51
Energy = -151.20430545 eV
Be 7.436264895477769 8.037333431095554 2.4984603688242695
Be 6.9295833420898845 6.263183379979572 1.1543013097600203
Be 5.386526596049665 7.470201987213468 1.468041132864086
Be 5.498473134270898 8.708298450553487 3.07833789208414
Be 8.36057275641686 6.103458567063509 2.541871652433454
Be 6.887240175542399 8.52866772917048 4.608707185986411
Be 8.339622290202728 7.059246245440574 4.361957489949808
Be 6.111404285475813 6.643733223163052 3.387921194097764
Be 7.920660755678705 7.747804040484645 6.4268446221958655
Be 7.111154794664819 4.456191564230935 2.1843381385500216
Be 3.8820070903859065 6.907574579970983 3.076763551766878
Be 5.092090242123158 5.3909330707071925 1.7416363331279432
Be 4.8062588871857885 7.913366028374687 4.873282965500329
Be 5.9365830018374295 8.417726786372187 6.629519823016975
Be 6.487748644427674 6.611030493943422 5.390477374636656
Be 7.863403482090916 4.906123038291757 4.228935484258121
Be 8.267015244712788 5.612691059062542 6.177868919802563
Be 8.213554980778316 6.442316429759123 8.123633239087843
Be 6.977143708099167 8.042530788405818 8.381620457243073
Be 5.199968431342529 3.1116719460295585 2.50725734763999
Be 3.853262761211118 8.476071697210429 6.7380218795527105
Be 3.619386875581412 4.515767193719966 3.0960057934632257
Be 6.856828308926898 2.9481206625351857 3.8978367676955377
Be 6.292592289853431 6.012666484397032 7.389378348316876
Be 5.779415591607341 4.651304539806152 3.632339312641339
Be 2.9062342670214956 7.136635587507807 5.368435216246963
Be 4.581050407831495 5.74866879576673 4.723241269544868
Be 6.287653547799736 4.562694986721365 5.725140624617992
Be 7.998694774301172 3.4177328237456175 5.874744704094261
Be 7.634111030463896 4.381629238922129 7.7661054069488475
Be 6.365433124388721 6.358536946579419 9.435986740035107
Be 2.2988257879743808 5.688377596022877 4.087207765013533
Be 4.891093803034429 7.725445323768322 8.403841570263118
Be 4.495790712796092 6.506589990022286 6.610190821829529
Be 3.1027890735762687 4.871261628337959 5.789366887660729
Be 6.467531087246002 1.9847621390873347 5.634766666040066
Be 4.5461114037068375 3.498261804019645 4.9509402669872244
Be 3.349223176909602 2.3877195293141127 3.1079431320547357
Be 5.883621362495186 4.318411562857762 8.886382895876542
Be 2.820573737682187 6.86063523247882 7.808351157775337
Be 4.715848660165687 4.421310344286178 7.018793197672485
Be 5.094793249378438 1.6040261161122977 4.056555819557542
Be 6.270100590412861 2.8267371589979318 7.476423671524916
Be 2.257270286989316 3.493402106939015 4.5070690014012795
Be 4.397334650280877 5.749502432196726 8.839705370098974
Be 1.569104829736675 5.883707197583889 6.392211759442233
Be 2.7489400064011704 4.750989752613747 7.878864005230023
Be 4.623266790785853 1.8246531167338613 6.483115741470202
Be 3.140357387789469 1.693213595220973 5.014584122021799
Be 2.8786047417204155 3.0225836380597686 6.60149172120685
Be 4.176528316468317 2.9892252451712875 8.28678145540679
