55
Energy = -163.78647961 eV
Be 7.4034994696814636 9.002593445566198 9.209222926010545
Be 9.042734941224534 7.775012202856084 11.987791876441726
Be 8.743309791885055 9.602685977242182 11.005791546143946
Be 6.781059995444121 11.00220071560802 7.767493506828141
Be 7.0441917200901765 8.423944109963106 11.29748365196409
Be 7.710688662268658 11.058887173891279 9.642274234753415
Be 8.940795745041838 7.507883465391026 9.845049325757083
Be 9.141410360768004 5.666763720258749 11.157795962549464
Be 8.481540799830297 5.520034490159262 9.163606106982199
Be 4.716329071562668 5.6770688452852 7.675801791020368
Be 10.561506216846537 8.848793414075747 10.600512880673255
Be 11.731917141512826 6.232981216547628 7.469679236835716
Be 6.117122185834065 9.966918092530618 5.941328706243596
Be 7.022595284511449 7.562631535532151 5.982701898439114
Be 4.334884017532272 8.866281627521332 6.201683861315656
Be 5.8247428899987215 8.062804152454339 7.840642125440975
Be 4.0813720848868 6.959584827549905 9.341608975255426
Be 8.069966786259645 10.985390542759864 6.02622205398282
Be 7.8423001300153965 9.209703687542982 7.07103345609547
Be 7.735341375982815 9.312293924991154 4.7415585913276805
Be 6.657587519344987 5.148135340448695 8.347568230734256
Be 10.598763341827317 5.62744289294114 9.564970635062204
Be 8.815766198580858 11.013375377799246 7.93391441606532
Be 11.254939334943494 8.225080424065906 7.006680394154428
Be 9.413125699269838 8.690757224023523 3.6088379007090055
Be 5.44406598578934 6.6722353400093235 11.198390265455954
Be 7.861992901594395 7.2538041487361085 7.912002764677524
Be 5.604999596762795 10.274046346155364 9.278107774691891
Be 9.211739071940453 7.753027714513777 6.12830671050376
Be 7.031537746885738 5.043500630834119 10.564234571348099
Be 4.776230489314304 10.490110721842266 7.411945795718847
Be 9.854490674576281 10.565507489114273 9.623726211979818
Be 7.854494060142918 7.3752813353975 3.769603297983735
Be 10.944170506601298 8.846917841767375 5.0370533499359516
Be 11.569167819979961 6.879356264406963 5.507535655739961
Be 11.353759697650348 7.544152566344127 9.13037511340725
Be 9.845898083395944 6.6548937457221 7.895621277607486
Be 9.917848065265515 6.793985880088394 4.16959468143539
Be 3.933962933043567 9.029740400753857 8.590324681905432
Be 8.195884934750357 5.679543543996507 4.989544370784235
Be 6.354221913954518 5.449395604665839 6.313969577075678
Be 6.783320549839836 6.9786388418083085 9.6385087032065
Be 9.69802004491364 8.868499161730396 8.389956499266775
Be 9.577653536477873 10.399171737630807 4.706456345816756
Be 5.12169743340916 5.287305937962836 9.708009948141871
Be 3.5614078212742477 7.3733202087418865 7.4062737538144745
Be 5.727618432405106 8.344642741385165 4.5491494016734215
Be 4.839795646121338 6.880303755774726 5.872870113783575
Be 10.074445741157861 10.01522146311127 6.652212855883276
Be 5.262904914105037 8.40083741443579 10.06658725860503
Be 10.162903781072915 5.58773880635818 5.978352407848793
Be 6.240878972296296 6.288629114064325 4.4298852917739895
Be 8.339981693433145 5.347252757242209 7.010898177469301
Be 7.425475797177522 6.4888207403320886 11.944497172164544
Be 10.795663556874684 6.918592485418668 11.128474846864508
