5
Energy = -6.58116877 eV
Be 5.432032161778775 4.888627937664155 4.7594230346729915
Be 7.079732869449042 7.897236369304356 6.252537803220069
Be 5.9057255702246465 6.21344383836469 6.325037075141543
Be 7.786544948720604 6.218789929928582 7.145168804489746
Be 6.299494003601841 7.285431478512893 8.021362836250212
