51
Energy = -149.59210863 eV
Be 3.6663483768317477 3.306324418361747 1.0827241950750335
Be 3.9616507729525017 1.3487431525207847 1.719527035144332
Be 5.578666864486152 4.703725456643221 0.9740713409066555
Be 5.665874543056403 2.5476519046532067 1.4457310868120086
Be 2.0062771801098287 4.556786531095675 1.9147920464240038
Be 2.1650036770796808 2.45257633922658 2.385410699405994
Be 7.370826571337009 3.838384835776817 1.4944195891208916
Be 4.911347270618261 6.792442388367091 1.8975077566163223
Be 2.6825000057955553 6.703448836692876 2.3890585185275772
Be 0.6790708941744995 3.653282471406768 3.280330897672438
Be 4.061888083666706 4.9151941753470485 2.4275885813194376
Be 6.941332258458257 5.911749976066191 2.101304942418902
Be 4.230207939695864 2.8229905766441963 3.114255722176505
Be 5.461094697008232 1.0024670419359112 3.1865695304049355
Be 3.2720152944301466 0.9742029844094096 3.717480867436463
Be 6.041360896044142 4.042361408851169 3.057820854287108
Be 7.296080848329532 2.2779970975478183 3.025249177867649
Be 1.2043473289031739 5.697623846909061 3.5768993139577088
Be 2.646107905396842 4.080632653193175 3.934682175561082
Be 1.5849102464163634 2.161386639973651 4.510350920445464
Be 6.3039192837464215 7.770594661328645 3.054200710040732
Be 4.161730511073681 7.981547681175318 3.533591348243999
Be 8.0656932825228 4.436134385433038 3.4112406080121382
Be 5.566026371126873 5.94656481885165 3.7786863292487243
Be 2.040698000281621 7.571800519098125 4.316511808908695
Be 5.692466479806131 7.631386773495924 5.002350999423598
Be 3.584124143275682 6.038715186238126 4.127684308772873
Be 6.548630561455131 4.6188440842519105 5.156128941593035
Be 7.516067412086617 6.426764130372392 4.217184192942919
Be 8.564048271273794 4.869719865542317 5.304221791141639
Be 6.915964921788056 0.9790745460773876 4.71660805882838
Be 0.24967175768768352 6.139578916751498 5.575938400605734
Be 2.160747295653993 5.92114417520318 5.439890411575739
Be 3.6300595549995642 7.537249415313925 5.74088129487173
Be 5.751703445148184 2.6354891537344183 4.626574030210008
Be 4.8398200747425335 0.72091849436836 5.299580232800323
Be 7.841027282164463 2.850587658229296 5.057924069294461
Be 0.9548540068082889 4.126301221510399 5.307383136521512
Be 3.684501229512672 2.5789784851100466 5.13052196237314
Be 2.747698450551286 0.8748648755120015 5.799252980752916
Be 4.613023478631216 4.317562353322058 4.515861079375821
Be 4.932053613333456 5.850437947864421 5.912242597386339
Be 1.6714190020894992 7.236500588043367 6.804729271627492
Be 6.21590596266166 1.8462910537672597 6.490196541038536
Be 1.5366284129441092 4.954306187632442 7.1923621349743465
Be 3.3333451578804505 6.04353624187387 7.318802876238425
Be 4.064212586854097 1.9204380809498764 7.095545895190783
Be 5.1083604609779725 3.69344850953557 6.570581561783985
Be 1.9818191337101654 2.709236471896251 6.6296532686238105
Be 3.2274347278812754 4.395398714505085 5.983347304929928
Be 3.3045883677409655 3.821766962589159 7.889701496288377
