54
Energy = -158.55147087 eV
Be 7.478175549398331 4.338250860195035 9.619496292378873
Be 6.736522428566485 11.685426214700499 6.5667320307445625
Be 9.157382843831495 4.02614222529644 8.123293984094028
Be 9.941131099386872 9.257696040590023 7.396543485129626
Be 7.25553046086848 5.308379388003723 7.614326811219628
Be 9.756467023570632 7.1660180632878845 5.400485489452454
Be 10.024170671322059 8.577367957487624 3.927956698597069
Be 8.204496564287687 7.545609678491621 3.678125573786982
Be 7.394032691958851 2.9550389427678736 7.928828601895178
Be 4.58752367620538 9.500024252318042 8.32605564646318
Be 4.80862542694807 5.471197584495369 7.35756216115927
Be 8.379220804644262 9.59519451361486 3.472039115446316
Be 9.5862026699167 5.560852623213589 6.797070860279961
Be 9.433638185578307 10.05763849267589 5.373797798977321
Be 6.219506749078653 7.106624629092561 10.758909013884988
Be 5.643258800506675 3.7664462808359143 8.771311942174519
Be 5.791260473232188 5.699984053435136 9.18742104973741
Be 6.312013365219777 9.058396320539245 3.8001571061267665
Be 10.681384419485669 5.621949787157847 8.742114759329008
Be 6.57984030282684 8.888805149848901 7.532205652662239
Be 4.570861978996771 7.655093176383033 3.739521730951105
Be 9.807235045418743 7.906274587755077 9.062352753255846
Be 6.106827607557419 4.969978390829682 10.993909252332413
Be 3.720995124617589 9.844095727845293 6.3121878367494935
Be 5.064177949798711 7.560899657872354 8.88272901602224
Be 5.494841452593557 8.741905468387959 5.67806807511983
Be 7.996090025988787 6.141353128862504 5.508834350869291
Be 4.9140636523553285 11.25566938147804 7.257639819762875
Be 8.49671814094822 7.524776610373915 7.320956751142162
Be 9.903427521324176 6.549422891854056 10.614668558506256
Be 6.171093364873312 5.196496812188742 5.520584249858355
Be 4.073899257393151 7.815245059226556 7.088948123354059
Be 6.366480588671868 9.007911144620106 9.734268999557637
Be 8.750750913693874 6.000584875902353 8.934856635715732
Be 7.965599928423637 5.929338793812555 11.080503963051678
Be 8.263795061117138 7.993992818456189 10.56508769537882
Be 7.674234985062387 8.447669518025466 5.57773917936458
Be 4.502668959263649 6.444582861025234 5.475130134850157
Be 7.33597062303417 10.502450406408267 4.982750422392548
Be 3.1860246771108365 8.05741727225292 5.2048772731632225
Be 7.143619027237152 7.233361700654268 8.845181113619565
Be 6.2554298021728325 7.009056258004278 6.777814557866507
Be 4.068092542004639 9.582907315571966 4.202076227558094
Be 10.746739966002266 7.248032926953734 7.32197501148871
Be 8.184177369002953 10.294723528596506 7.01085554777931
Be 9.521229340113797 4.5148297433527596 10.26217834336229
Be 6.609478114007537 10.775496360750514 8.470705751927932
Be 8.724979119841167 2.696519431777544 9.58426094883996
Be 5.843584330500156 3.6466585888496192 6.774516360363719
Be 8.247034439002418 9.285909150652184 8.855765145984996
Be 6.344711019629601 7.036097046907927 4.535812457209723
Be 7.957700404807537 4.061103562357139 6.154467718982703
Be 11.021369972528412 8.766611415601874 5.744682160007618
Be 5.320173706838926 10.904495737926242 5.202844854454095
