51
Energy = -150.34567995 eV
Be 3.3881926668340068 3.897036784301661 0.4303015970762919
Be 5.778002092842129 3.185530890214862 1.3646393661093406
Be 5.312055142614084 5.282891826847305 0.9023692089412549
Be 1.9890730221977122 2.5690826718292166 1.2492880586845565
Be 7.293359639107773 4.64283164276893 1.4262263048857184
Be 1.7507546917004262 4.5341513326086 1.8193873149162354
Be 1.5491899536981373 6.642717522839227 2.4231354937193585
Be 3.9667986989390216 2.0583432545731903 1.625230482587266
Be 4.116604368838631 4.261295286036578 2.247336044631868
Be 3.26174962252036 5.995609067691604 1.2488918931499007
Be 5.963680135379261 1.3304043699144554 2.4447210212776898
Be 4.798915313216353 7.470221254697626 1.2742237301233834
Be 7.237151763159974 2.9405134195183797 3.4697863542789324
Be 2.832391452072291 3.133103187775012 3.25821422603916
Be 2.8505962279575785 5.468650257494724 3.3487218860513224
Be 6.7146444764649535 6.547703767877513 2.0942263919198987
Be 8.018148384181728 5.286541859140013 3.2413742342089855
Be 4.9830496433896085 2.7873137592459294 3.317318341282062
Be 0.6722539496996577 2.901550565621536 2.975309933901539
Be 0.7899913631976855 5.006878313556612 3.7467357132831056
Be 4.767039035290688 6.109223637639304 2.8624034105941667
Be 1.8830591748587913 1.2002045789188254 2.8084606129398466
Be 6.0314199338188885 4.592514135308925 3.1564188925579946
Be 3.2943232249350727 7.633170507401558 2.8203187817578748
Be 3.882109200651118 0.9514439891052784 3.564240657957329
Be 5.431382492749251 7.993216968760334 3.143265098958746
Be 2.1942840643018333 7.993216968760333 4.4949257940774
Be 4.202354237856211 6.923382845070305 4.707287127633185
Be 2.1997407785017575 1.9295331647700662 4.781034830377814
Be 4.253715665272194 4.581524927235218 4.405815227942803
Be 2.425341417909187 3.897136334296363 5.208058131306261
Be 0.3372014300658738 1.290570559498391 4.57190429546768
Be 7.351568588354355 2.4337075224146454 5.6931488017241065
Be 1.9325711039571811 6.8001046036481005 4.646267477158413
Be 0.0756885928477746 3.416506353100618 4.856525845743582
Be 3.828440005507104 0.5532288703172821 5.723104208551583
Be 5.789297724967361 3.507816130246855 5.05712489551035
Be 7.443707961415963 4.636518142034707 5.098004268146994
Be 6.464933567509251 6.450743360419283 4.245969244476085
Be 3.152300564746984 5.745056236016233 6.0754870105912415
Be 5.799464500614682 1.3215120962875364 4.630959498913176
Be 5.499292400093804 5.576361408015293 5.946838269521776
Be 0.9544149344698174 5.139182068794663 5.911651665495504
Be 1.672326480640681 0.6336406961585886 6.3204074903380665
Be 4.043438682926957 2.564193677696511 5.098221505899703
Be 0.9858119522195882 2.6710347740193328 6.508978757318221
Be 6.442711680613436 3.8659313265708497 6.930543221040059
Be 5.360477003919091 2.0088605954600665 6.596920379595249
Be 2.270661964534356 4.1431492730988415 7.2703166753833655
Be 4.319065746010277 3.9764183707650216 6.668269788163956
Be 3.024591455632205 2.1980386884700343 6.869028712993291
