55
Energy = -163.99228361 eV
Be 9.012786980695903 7.691311790491284 3.197286981017106
Be 8.791709037708431 5.601749367553561 3.436517025960326
Be 7.084463811668594 6.6616100533576335 4.10774255677555
Be 9.082044566038945 9.539266031607092 4.224376998669321
Be 5.689451121502989 9.743796379051958 4.620593236897052
Be 5.448770321024571 5.745739774760377 5.004209285099303
Be 9.353278550603518 5.210305247921164 5.361965492209145
Be 7.205125879081373 8.70227485367483 3.7662586728856002
Be 10.501485090387842 6.566978441749072 4.002645420688289
Be 10.710637168849917 8.452013414894752 4.994972854556785
Be 7.360812584926401 4.615173687759296 4.912531313407705
Be 5.118377963544894 7.763125846475671 3.995660170745007
Be 7.335927747800886 6.243558982599935 6.289939936979969
Be 3.781431531650801 6.867124262587322 5.654190068373352
Be 8.715432163972896 7.476200350981253 5.284300381695508
Be 5.380063569461927 6.325056404863705 7.0412623149733795
Be 7.542083391149812 9.84552069320547 5.593398919434726
Be 6.351375545538787 7.924194552319754 5.74844661230857
Be 4.101014164190263 8.911429567637022 5.509394493743231
Be 10.904831384326169 6.610746847014819 5.9570350444303575
Be 9.57404208641721 9.727141473201591 6.231592946093539
Be 4.084342691788531 4.857662288365248 6.377777987924453
Be 6.105692003357682 4.38688967698448 6.692191951176138
Be 9.230177339173991 6.207025666156056 7.120780500371372
Be 3.3448553284783755 6.196977923862066 7.657745977004681
Be 10.573386362668618 8.168482591158261 7.337900061683402
Be 6.140298696290085 10.95406644203924 8.703997422735485
Be 5.729153768469334 9.720276292208556 6.88575889817589
Be 4.302905338361566 8.099906411151675 7.383646506426224
Be 7.765236948366684 10.334289998812814 7.597630096880728
Be 10.812139167171841 6.348169574751606 8.380019004739921
Be 6.463298092229283 7.805606715615403 7.881864597249111
Be 8.094901823004685 4.322086457814185 6.975553599278331
Be 9.13322044065301 4.854012106091342 8.733535103697736
Be 6.963374278875502 5.765656341754513 8.284109348669134
Be 5.910236446462541 5.331489399190335 10.211547488273734
Be 8.313941065536156 8.321866512797031 7.1350992378255125
Be 5.194135981108643 9.093029646681586 9.041015736654611
Be 4.854987182034255 4.7781844295303895 8.466452288174784
Be 4.817269445710074 6.897106761335238 9.116937386515364
Be 9.507452937395977 9.561037703480503 8.57927815802884
Be 8.649374149702417 7.142017166215341 8.891228084159193
Be 7.117743557071836 3.921934752794208 8.963533088173598
Be 6.7595924070594915 7.160418999535783 9.834337492562963
Be 7.525942586865411 8.933644606469892 9.26156471121737
Be 7.946950210057449 10.876356450002312 9.800034576241021
Be 10.039290611231895 5.980012805009789 10.222497515639057
Be 7.991804442953714 5.453922565936888 10.438662050296388
Be 6.085165013989529 10.30700918959356 10.611356628743593
Be 10.557142711742676 8.029666107163221 9.63927765099779
Be 5.469716922699884 8.302931598852588 10.935133355516703
Be 9.25571967880007 9.432211245565538 10.633436666254923
Be 8.797738631922982 7.471738850929321 10.985035706402556
Be 6.99240718385279 6.789728518591003 11.77361882209924
Be 7.38864175270764 8.933646038186467 11.476501431601172
