5
Energy = -5.22714662 eV
Be 8.280215934761864 5.8771798870349 6.888396153094498
Be 8.280215934761864 7.899612419154096 6.888396153094498
Be 6.356768304845226 8.52457844 6.888396153094498
Be 5.168012288176704 6.888396153094498 6.888396153094498
Be 6.356768304845226 5.2522138661889946 6.888396153094498
