53
Energy = -158.99911065 eV
Be 9.433523646055917 8.643287936323395 4.529283295763591
Be 7.565700760015734 7.5652795096391525 7.460807957896344
Be 9.706950385988 11.040879991366058 7.440388821251728
Be 8.632335636317638 9.28077996405701 7.454369756219629
Be 8.727632615341616 10.471485674285818 5.681306503284462
Be 5.852351718998447 7.565236871724871 6.379943462465723
Be 5.6917463140045506 6.48642972479009 4.5335526331784655
Be 4.590813733368837 5.734509297772034 6.269862177509025
Be 4.579626563248003 9.384886327803603 8.496148767987098
Be 6.497396513964174 9.277294917831698 7.450969831350386
Be 6.424689945399444 10.542994094600033 9.247440426087012
Be 5.416767946109396 11.036761574674312 7.4432724244385176
Be 8.699896203967421 10.544510626701436 9.251014930461418
Be 7.563502292162611 8.681041018791081 5.653513723253163
Be 6.396012137912432 10.468861570705112 5.683035846293091
Be 7.561387108988439 11.212816770365928 7.405705909664713
Be 4.048560993794371 7.561567099323615 5.277771819842562
Be 5.691695493336011 8.642094236597487 4.533365350320167
Be 3.8909931974881946 7.561726862844079 7.395248556502104
Be 4.590619682496448 9.393211862490267 6.271054707007968
Be 7.5650848850423555 8.65312674243716 9.193154375149515
Be 5.723666064886761 8.705257896019555 10.346412502537946
Be 4.1096624992371895 7.5588458579992945 9.55958141101463
Be 7.567471276446113 9.699731594660419 10.89069549097179
Be 5.822909231453566 7.56463148733373 8.505733371761789
Be 4.580777040505056 5.741853722959068 8.498240082666038
Be 5.7230501501142355 6.412109506257056 10.354413687280948
Be 8.730205336118296 4.6579252877460595 5.6844421497567525
Be 6.493451205836852 5.843155169975149 7.451271629760868
Be 7.56319131104166 6.447281982941091 5.6557975898770945
Be 6.400469925761397 4.6600119894835625 5.680075880192583
Be 6.427619087600153 4.583957187706915 9.251416835225799
Be 7.570990535595393 3.9170956421168923 7.408612506671975
Be 5.419914061266231 4.090191655519638 7.443104919038865
Be 7.566451377284129 6.472547377728562 9.194531482453321
Be 8.705070486771756 4.5873673665467605 9.251632706027555
Be 10.54367890818981 9.385722700401388 8.498503095562995
Be 7.569017528361853 7.559915137645094 11.087178746848286
Be 7.565885638159776 5.430726538272026 10.892256930919997
Be 9.406168213267371 8.711012406568909 10.35499907125531
Be 11.015349088551654 7.566639488003803 9.563244012423418
Be 9.300900292248848 7.564431341868371 8.50306453378307
Be 9.707670181392253 4.092752837346415 7.445573372153393
Be 10.543755135044197 5.745274602170229 8.498492388135102
Be 9.406009382741606 6.4190585846922215 10.35555688233677
Be 10.534781202031526 9.39782327619094 6.269761642618118
Be 8.634749826262384 5.851042876153743 7.453895728776772
Be 9.434475448088483 6.484249994993059 4.529237502706998
Be 7.565337278675111 7.565093287617758 3.878588089348744
Be 10.538745991867264 5.732913876409411 6.274022817662014
Be 9.27254413927636 7.564970104408275 6.385537856517385
Be 11.084350165732703 7.564756158150575 5.274554057818753
Be 11.235155917030257 7.563631858534016 7.399122144695179
