54
Energy = -160.66166795 eV
Be 3.728202439130416 3.555319394390848 0.2688810057201322
Be 4.933069408341601 5.327654846374588 0.2958393871105134
Be 2.5578251478491967 5.149771168854594 0.8423275703882482
Be 5.578388449614274 3.1507001762674762 0.945200814270881
Be 6.706017384152259 4.827963305882483 1.810566399831894
Be 1.9628892706344774 2.9494505957614834 1.1476683184583618
Be 3.837046224439353 1.5124581329435662 0.8782553187378221
Be 3.6784540324354498 6.806907310196405 1.719805489929744
Be 5.73634886664303 6.590702907722124 1.8338009040413528
Be 1.6392432258401708 6.301043496800613 2.490063985149019
Be 4.3859193178626334 4.755392776320596 2.0874380574008895
Be 7.366364443931234 2.8019232208076206 2.0845038426911935
Be 0.6701951400626631 4.570686252340516 1.6911254923000592
Be 5.726744806538896 1.4543526359642278 2.3395575123758725
Be 5.566299092011699 5.341409536536399 3.767773071957321
Be 5.735372129380983 3.4308520157972935 3.0295192643847946
Be 0.6923868162535549 2.8720015796436527 2.9950831361277297
Be 2.363344486988692 4.267471383369669 2.814124959702352
Be 2.1218797876488753 1.274978822024209 2.5262503757806156
Be 4.011431553540326 0.5048741113847088 2.7711398726224297
Be 7.5659025518011465 4.147833381431845 3.746474398049747
Be 4.928873599205794 7.440607073530263 3.5308333494052535
Be 2.539839109591034 2.6286367319476893 4.170010406183902
Be 2.829386496671628 7.8214357755051775 3.3999689900289147
Be 3.827874989184878 2.750290845736281 2.399464480724249
Be 0.48688963534845053 4.916987559197076 3.805335010081208
Be 7.149480013357501 6.45617843691961 3.462609036848099
Be 1.014790159685296 1.2601249775010834 4.367302087726212
Be 4.665674498462107 2.0944831355392832 4.281632802040222
Be 3.0343158590356034 0.5551686141181633 4.5786143871013
Be 6.960446814851183 2.0581753223709693 4.059121008683056
Be 5.394508506742926 0.2774753117473565 4.394724872382646
Be 1.6051640089606127 6.614754849613315 4.680374523013706
Be 2.302538579152539 4.580617558318373 4.95235055737482
Be 0.6491814895672827 3.189628921294359 5.207708693378544
Be 5.734562893078685 3.6955047646518944 5.124154363407553
Be 7.283550041168096 5.370561718032108 5.319952231528854
Be 3.6256441023453116 7.289531920385683 5.309868988002144
Be 3.447195333287679 5.8643866369480895 3.6500323126311858
Be 6.2126827222552095 1.5952060212775137 5.866836573085428
Be 4.284768993442821 5.2083876191466185 5.53123678435179
Be 5.778696238507796 6.774263155311494 5.434261114548413
Be 3.712628237828434 3.207217526491869 5.852126893069033
Be 0.6200692034903109 5.180976202442275 5.9123267983233125
Be 2.091803183276532 1.7716966747602194 6.148259816022107
Be 4.241059148887538 1.1551312413575712 6.285903500254037
Be 7.457341163792525 3.330186739777769 5.981153446861675
Be 2.4755743041084863 5.935582605040459 6.635672731383498
Be 1.8839407315450056 3.8277583238887276 6.951488932366033
Be 5.965088361828739 5.0054727551456395 6.8759922096035195
Be 5.3851306531354854 2.9244157237019697 7.20461471916115
Be 4.479825054832655 6.524503054418357 7.114632846038675
Be 3.902634104209404 4.524867775173434 7.580969740098914
Be 3.3538456965346826 2.4643658803685033 7.733395119733692
