54
Energy = -161.26317854 eV
Be 11.794166355604965 9.969528796917999 7.651039224112079
Be 3.522916595422618 9.97185689889224 7.658807144641759
Be 10.74142239876686 10.176587933124123 5.993054939848012
Be 4.570395691822646 10.17830821620126 5.998705101973728
Be 11.308968908356025 8.198534393148403 6.575169107997659
Be 4.003511271501653 8.200234229855832 6.580229435241722
Be 11.31278057697069 8.19928627444411 8.730146962272313
Be 4.006185876967196 8.200408098676101 8.734539634894944
Be 10.747138152044071 10.177739021778912 9.310714725446822
Be 4.574641325227533 10.17837007059067 9.317061734315002
Be 9.826017105782604 11.136817097521988 7.653042591618735
Be 9.604675643370758 8.62286476293554 5.224321271355218
Be 5.70556755344372 8.621776601984678 5.227508481521278
Be 10.087414105819084 6.6859162833188375 5.699944696778221
Be 5.217781614278628 6.684607340677386 5.698812775964532
Be 10.872346296575435 6.336931088314945 7.65140532230502
Be 4.439777286230349 6.3372265971694075 7.654089632239412
Be 10.085697601543579 6.688652540474689 9.600970866417057
Be 5.22901088501634 6.6869441628270545 9.603259792661015
Be 9.615165914512167 8.625506600651848 10.090187859335801
Be 5.709599844028961 8.624173531933637 10.08584677133293
Be 8.692365803337438 10.350681703757411 5.8681880668868445
Be 6.6200044779855105 10.349760873720198 5.870728595752046
Be 8.69777926542296 10.349075685910556 9.439510816067726
Be 6.6243882275209005 10.349653098979452 9.44111109805063
Be 7.658622308079679 10.517981456202 7.655317231652209
Be 5.4912969599299215 11.138656343778715 7.656633138625718
Be 8.731472800906097 7.111851241901135 3.999525751856022
Be 6.575977971793221 7.111590936804968 3.9991989470926956
Be 9.313559224339734 5.134119536457461 4.566113326926807
Be 5.996297259480251 5.133133528929003 4.565808285680583
Be 9.441512388470473 4.960479643105393 6.614788519608223
Be 5.869425507936633 4.961362239926484 6.614885754080765
Be 9.4416996732444 4.960997042962595 8.686897884497382
Be 5.8712960972848895 4.961298550215774 8.688442259040533
Be 9.316159752811311 5.131807228655079 10.73643003182157
Be 5.997581536314956 5.132001388392629 10.737088287503427
Be 8.735311000879092 7.109679104505265 11.304176310985472
Be 6.581989042592895 7.109814510793177 11.304845132734814
Be 7.654231980340759 8.973692065867647 4.4391140744572235
Be 7.660960415724701 8.973398675667273 10.87106369326011
Be 7.6545183776151955 5.341802065176962 3.5157451692449335
Be 7.655359731971971 4.174565975762325 5.484883916255497
Be 7.656187422892121 4.7935186464737445 7.65116151962836
Be 7.657355837466193 4.171081053610241 9.818322360248278
Be 7.658298580075758 5.338107474093123 11.786480370638829
Be 5.857716875425604 9.034413815223253 7.656964710183605
Be 7.655720673625862 6.280180183844852 5.851096730290563
Be 7.656767129859927 6.275462253518428 9.451897260538317
Be 9.458883811500126 9.0315381815496 7.653022611364517
Be 8.753021896402887 6.866590762010434 7.650235012106067
Be 7.657320179916796 8.445149894647296 6.558777297611998
Be 7.659806900358148 8.4417340351588 8.75258092148211
Be 6.558597224283278 6.868460885583584 7.651481193245428
