52
Energy = -155.17824273 eV
Be 8.383933448730485 4.841318645724821 3.700762675375714
Be 6.919607521772488 4.052013789584801 2.322352470299762
Be 7.546134494743682 2.986772115657414 4.119089719556453
Be 6.975841104901652 6.180385685254034 2.70093777576247
Be 5.68711201982634 5.4494593382752345 1.1256118176465495
Be 8.33038582001666 6.47519759786855 6.561407261121807
Be 8.005201965152857 4.417685849098322 5.83667663140506
Be 6.422971660386008 1.9518665941083324 2.6453090300603828
Be 7.510875393984715 2.1036421970832095 6.04686133036287
Be 7.632676802535182 6.508858463365805 4.683298962404607
Be 7.865862395092916 5.141326933695841 7.940845348171623
Be 6.401009380391351 4.92185852663884 4.290674224892701
Be 5.16035622880343 3.273796300261879 1.4625578271237265
Be 5.998995556984246 1.5288224056544926 4.68214109278953
Be 6.722306979379279 6.964887985878864 7.94753684135746
Be 3.773650355426984 4.659155444754573 0.7194051743794471
Be 5.360684029655438 7.311219653239932 2.269690241007395
Be 3.719113161667904 6.557108860951105 1.3889707557310385
Be 6.9707663640143345 7.940753092994879 5.955456193213237
Be 4.682729106291338 5.20586867388244 2.9771625367037533
Be 6.04963738466076 5.655961668689634 6.295060687929418
Be 6.045311356240566 3.467031122872 5.6656846622288874
Be 6.900178043674852 3.4034779523240113 7.594713134760178
Be 6.718926167009812 8.21900237796633 3.6916315774171737
Be 5.341193078017359 3.3118714160430165 3.7120498130146005
Be 5.542808127040613 1.8368232835744367 6.8988010825823105
Be 5.259787733556045 2.874730067460035 8.721865987442435
Be 4.302652656708636 1.7526684489821165 3.0412810336270595
Be 4.1466998180706005 2.386019113893352 5.358304656339901
Be 4.590425756400872 8.787172020039339 3.4145941343137176
Be 4.64414017645342 4.251688626780191 7.078628174210683
Be 5.30721011890801 6.814758017425024 4.566109254146118
Be 4.49100128677918 4.681062760698405 5.000188261763538
Be 5.547041818719402 9.172278903667808 5.1630488133658
Be 3.1247719100117473 3.083126008761821 1.8337910926581553
Be 2.5314377167447506 5.107044144836151 2.398976925848944
Be 3.5814221738607865 2.489751377481087 7.487063102545043
Be 5.974421208884808 4.94054270983713 8.75809640237648
Be 5.038940660491439 7.916720540057402 6.803776186889425
Be 3.336299895931803 7.067052333739992 3.4258512377798827
Be 4.609433924179188 6.399116704934213 8.191725201870002
Be 2.7312633321121984 3.866497966763709 5.968878813141402
Be 3.9089747914192787 4.476699174236773 9.106109109348473
Be 3.087579626738627 3.462362017020176 3.814409823301277
Be 3.8086326691062053 6.136052725264274 6.163399722036787
Be 3.6740924172008573 8.385360987039418 5.233472993511541
Be 2.4940001970291745 5.364849576585579 4.514780454048504
Be 2.274201051615239 4.120880124626649 7.924426666285833
Be 2.0405123367144133 7.231458063429494 5.206063462866291
Be 2.5605682100848908 6.0182589983984744 8.441546599692286
Be 2.8773654260039483 7.65106759110162 7.146963203398984
Be 1.6999722434227449 5.690371816706617 6.548602965763365
