52
Energy = -153.62291099 eV
Be 4.254386623218699 4.274051881785065 8.186415987085773
Be 4.982960562348006 2.484450230209943 3.549163681200696
Be 6.160296267891604 4.246843768443046 4.704075016102234
Be 5.574439678511844 6.072202431824083 7.837734460242632
Be 7.337135771279435 1.2533169337867622 5.914229741832834
Be 6.270309384436541 4.30141480082012 8.74285288797766
Be 7.322639603826924 5.707465930197418 2.4511741460652696
Be 2.1728308593830143 2.524525235144795 5.678989379219887
Be 3.488782460872999 6.6326398399338835 3.1505483489971913
Be 3.5083669483084976 6.186919409748687 7.219765641138047
Be 1.5333450927422778 8.163663046380268 3.2653912992877188
Be 8.148051654518964 4.353657736016637 3.798384795580713
Be 5.451599701022093 2.4270605781665995 8.293865072734084
Be 1.4518104818211544 6.319950880792107 4.084680443325383
Be 2.6212020257440973 8.014422891583838 1.3255478888084158
Be 2.7323410271634025 2.8345100133966112 3.6666266533534038
Be 7.664985292778095 6.017960682078374 7.744133009098212
Be 5.354879858542403 5.907319487511107 1.9142816581611612
Be 2.6738508670179804 4.349911052084944 6.70656786398861
Be 3.9783957996455115 3.569639679242515 5.0822818234453155
Be 1.744180155069675 6.182071917078719 6.104985147093542
Be 1.417660114515058 6.518583952369996 1.9956894453815817
Be 6.685754087962482 7.7962671587100045 7.178711563508903
Be 3.3538758241798643 5.614123428239595 4.937005177709592
Be 6.7037342048608535 0.8203022027356237 7.840015196157693
Be 4.203224886254622 4.462463294638342 2.9782006154419394
Be 8.532896594702851 5.262465537968447 5.765431623345976
Be 7.996646866169031 3.2036482277129337 5.598864920112426
Be 4.89701904432411 4.96626181923282 6.204000405649744
Be 5.350193331038194 6.075303984230853 4.094244797453792
Be 6.277771045131911 3.946273860266652 2.572200110562201
Be 7.477233911192608 2.6822699311516853 7.62351186609643
Be 6.530868740831101 7.575557662302053 2.9111489031323887
Be 2.931465954837977 7.775693025448271 4.957281729762516
Be 2.1262168239675776 4.771807146687183 2.874533457479022
Be 3.251288454071737 5.921536785745202 1.2496459688549217
Be 5.735444793203366 0.8620044114868319 4.642171708960029
Be 4.665408138449235 7.84471178608774 1.8356446747679662
Be 8.075163837431361 6.603984578761093 4.129247442188456
Be 7.029180203345516 2.4130054534481453 3.9680583343137528
Be 8.335881169109603 7.303898943357869 6.149024279838602
Be 6.810271407625357 4.398879278978189 6.808982851354303
Be 3.334623516802119 9.001435033953793 2.9358715076968562
Be 3.839560247927371 1.493648954659717 5.069289987993906
Be 4.858906291663168 8.186959406470661 4.072834818237934
Be 4.846574748629584 7.295048733578785 5.998932947237986
Be 3.748523928344214 2.4589633408912652 7.067553032564606
Be 1.565464762798189 4.305470568538965 4.836746972527093
Be 6.763751108121577 8.082193815424073 4.993137061226992
Be 5.054802837243723 0.8032671777324873 6.648933187605006
Be 5.723637229988296 2.7233132441814614 5.979588473793675
Be 6.582847733314748 6.139340782965047 5.794483948486572
