5
Energy = -7.34973607 eV
Be 9.127735665335491 8.195005729738321 9.717874414855807
Be 9.363600901826478 7.6152843887687744 7.721370661171924
Be 7.598592247977937 8.32798079039917 8.40452858876109
Be 9.557128241173338 9.547763138409733 8.286474060711555
Be 8.014785731003313 9.95590034390304 9.530008135244504
