51
Energy = -151.53371848 eV
Be 8.646142727593109 11.58571057404256 7.73214048052388
Be 6.54575085158735 11.080813390172416 7.64811000822111
Be 6.138409759330071 8.938833182788285 7.51722018636233
Be 7.8748989355928725 10.842667750961702 5.900538990965502
Be 5.66972577859972 10.09417459739756 5.804159210523663
Be 5.47208342116508 8.214900939670688 4.664963367962954
Be 4.581485141307048 10.272964768193967 7.620360013016472
Be 7.3444990212374455 8.773114920816477 5.64237412240141
Be 6.097137019508778 7.172357553877609 6.362526124034209
Be 6.169327969306579 6.108208705249712 4.55571256209028
Be 4.286788580420799 6.637605340184617 5.257333213862789
Be 4.2180882220632965 8.497948440022594 6.399068176226319
Be 8.185980635766668 9.619768172846058 7.589789284186773
Be 7.827122377196617 10.693932583926173 9.492416306872682
Be 7.340998125355403 8.570692326231375 9.264123313883662
Be 7.004115160530019 9.454665872493074 11.033043396824812
Be 6.054486620133706 7.065203638092503 8.501847441635654
Be 5.66319428959904 9.97018499101789 9.426770181763207
Be 4.2111355862885835 6.491119563267984 7.366908324423223
Be 5.42559959440348 5.020991468638877 8.467537835866462
Be 4.374154349539373 6.4598702447882586 9.54787670006343
Be 4.280050818162111 8.385457854775074 8.624579894419076
Be 5.572107035382194 7.984522145664722 10.451584681206215
Be 5.387501057869774 5.072160288010255 6.202035548714891
Be 7.550537718837835 4.708684410411326 5.482941361561612
Be 7.167629255928878 5.595180904579293 7.3428760905113934
Be 7.687098792170728 7.654443325818827 7.46581842575578
Be 8.0149696579665 6.5338515371699595 9.145323226624056
Be 6.27164284452297 5.828218345210566 10.32650825117566
Be 7.531276924884445 4.458218529164038 9.135885375614242
Be 9.770270213257632 6.920393922805366 10.39163726887519
Be 7.646906932310259 7.421493795164611 11.10209546717523
Be 11.161445981609441 6.844974564742292 6.369608604218642
Be 9.047938859381466 9.075702024733062 10.536521259195359
Be 8.31706651970721 5.416843894397655 10.826865125686636
Be 9.665790875259114 5.041900565088067 9.164406392897956
Be 8.853442351490951 4.233406597737151 7.277119746404911
Be 9.308191432912698 8.105070431536575 8.58448017143167
Be 11.054453445100403 6.715583274520336 8.599847126882107
Be 10.94137956522871 8.575850034998636 9.70385192974081
Be 9.205905546785445 6.346669502695397 7.385874924349752
Be 9.680227076868476 5.322351299655173 5.576115519625322
Be 10.816829624797341 4.972973255984206 7.362627677033613
Be 9.931661741683287 7.3139454971125035 4.685293179841519
Be 9.22845797024982 9.480488184416505 4.79713585792459
Be 9.306691573636257 8.239491315095963 6.454148634073017
Be 9.930251907696885 10.212876019155734 8.804572616835726
Be 11.157791721054238 8.726820627752591 7.566676172773813
Be 11.081014328472651 8.857231395583414 5.469100830948728
Be 8.032095643042274 6.751669226235823 5.533737342256717
Be 10.027230752712743 10.396779846725247 6.5948946213381445
