5
Energy = -5.74682437 eV
Be 6.442938497656396 5.054234415157381 6.231066717677307
Be 5.959927680960995 6.151458044584825 4.508654419590595
Be 6.933563021139935 8.14672540722406 7.873443782626295
Be 6.392305592853355 7.258164533281197 6.140228590945678
Be 6.929371663297339 6.0475240556603245 7.904712945067911
