55
Energy = -160.85915601 eV
Be 10.184010814789639 10.480956971264341 10.173898692788168
Be 6.662839984280426 7.120337619014314 9.403756710465522
Be 9.998398364559076 6.922007352537364 12.134704923205266
Be 6.632682115019214 10.465202180177293 11.281728400351021
Be 10.251760664464374 9.3666285976077 8.139621179264074
Be 10.24992268705852 9.358810666268484 11.971816381330399
Be 10.183093424714192 12.700818918642778 10.115717981644258
Be 10.341418427046477 11.68458825365126 8.21555767248561
Be 11.80726398170184 12.519793417652647 11.36006969948115
Be 10.188607943117152 8.253628269863317 10.165713301637396
Be 10.34095513962867 7.055141968377196 8.223253692938147
Be 8.377901709677522 10.473566349832694 12.559661733997658
Be 6.634005551735991 8.25486789421171 11.287041162787744
Be 12.116908859538533 10.477192888838601 7.652036055938275
Be 6.619607817393797 9.362495287132207 13.005247368398447
Be 10.199888021842293 6.029051682100515 10.12493618713103
Be 12.117231463932892 8.266429225797427 7.661263620574542
Be 12.15327849711008 8.28920712620534 11.425462322390477
Be 8.466157779499644 9.362662268449265 10.689409326933195
Be 6.593719677154453 10.423323913655345 7.5197977816750186
Be 11.81830528888392 6.231626769345078 11.369773904022805
Be 8.313841760393288 11.703665156765435 10.74809417876156
Be 6.606008902349492 8.285920709925426 7.520805158527949
Be 9.989105125860174 11.810731930380008 12.124744214463146
Be 8.32128960799065 7.020523084770082 10.757055259374024
Be 8.54788930550187 9.371289333733705 6.830027852647902
Be 12.141016700621318 10.459107776217868 11.424613652906018
Be 12.084081651675064 9.376291061355802 9.500487305766029
Be 12.010759184259918 9.368101372679838 5.92273556012034
Be 6.843549491566158 9.34568407393748 5.487508190136033
Be 11.981300769911929 11.598770800123182 9.544251944953192
Be 8.637365452241623 11.650563438850131 6.879305362139657
Be 6.969135228404238 11.40377771972266 5.70408532950281
Be 11.989521283531928 7.140971581145847 9.542666939530381
Be 6.813908685720586 12.454413245905782 7.531027943952169
Be 6.966330662414671 7.292571988527883 5.699193079017105
Be 8.453618673577234 10.422807203321629 8.745189864106928
Be 8.635924909876755 7.090129317349092 6.888787777830339
Be 8.621079497609632 10.42707789820048 4.886616660836467
Be 8.422313724750323 12.644610697543985 8.837387334587545
Be 6.824272993338542 6.252756662385878 7.540022782527427
Be 8.615487364320694 8.286994566408184 4.887117476977391
Be 8.457676752866936 8.307769960974642 8.743160970376573
Be 10.463983533767712 10.71777360213893 6.259189645392678
Be 10.352015933222168 9.358789588944848 4.670024971917055
Be 8.437711456174886 6.0896153094339125 8.843629586113856
Be 10.464591987810218 8.014575043846271 6.2632463204927555
Be 11.920196024111348 9.381050161772098 13.364610201618882
Be 6.50496385965244 9.354700397560872 9.449400235398443
Be 8.376327658993768 8.249689813509864 12.56575278808456
Be 11.746062778252373 11.47667599199184 13.19663643668097
Be 6.651963472101243 11.598055565784676 9.400908626329525
Be 10.116677321785195 10.448405874426598 13.822868009675492
Be 11.752504589454531 7.286519106456665 13.195979218088528
Be 10.117521000743139 8.299237901285665 13.830356579727468
