50
Energy = -145.86709983 eV
Be 3.084095703334595 3.360361479925024 0.5211709567594441
Be 4.391191750137147 1.6563413121951533 0.8101527700140231
Be 5.5060450689765315 3.4287330012783466 0.697226036036604
Be 4.433800962164791 5.120347124575288 1.2181614543780561
Be 6.5173196698686064 5.252094023762025 1.4811107952202496
Be 1.1774812933702212 3.0775431061053697 1.8959858408585117
Be 2.475541267602151 1.607739471720502 1.5520840817825619
Be 3.1087754930498437 6.78110880068839 1.5342009086775856
Be 4.070814847690872 3.162823166672419 2.298146096243356
Be 2.3891730144393977 4.821515793900042 1.986017177743376
Be 7.428199145157162 3.2339356519079496 1.625289266864216
Be 5.933822109171044 1.827188477153143 2.106122706654219
Be 5.13326637975706 6.9256565969517005 2.2209332176166137
Be 1.6198061374034007 6.6671529205101105 3.056347336667573
Be 0.3217811677503159 2.929622126005471 3.871849692644907
Be 5.864913239258176 3.8381621419316607 2.8047483131200766
Be 7.854486849423959 4.5495660482507825 3.232605236606339
Be 2.4791859172125377 3.090725977094407 3.6486404330165163
Be 3.9187694801984168 1.0730656877188143 2.972158444267047
Be 3.310041318558838 7.878197369056977 3.2362436186712182
Be 0.5385676042262046 4.85568953698259 2.909550790668534
Be 1.7312426729331258 1.2424183186119777 3.463917288062206
Be 3.7924219182763115 5.82586667652047 3.2783058447226474
Be 5.335437510154662 2.168966828580067 4.16590891692241
Be 7.409118174383607 2.4194400048359626 3.5702057757419494
Be 6.4073289225299455 3.9305083555481017 4.705207677724639
Be 1.4222940528507777 2.091796746364307 5.48887507840484
Be 2.1920090635345786 5.0033874255911845 4.3700496548054035
Be 8.477254308663458 4.628603659653468 4.363133343383608
Be 6.149379237704518 5.807239627587715 3.6614233657554633
Be 8.477254308663458 3.531871040508991 5.03375820588617
Be 4.7341786986468355 7.080053466053938 4.602305859162304
Be 4.304927244253599 4.1203713231763315 4.2797565750433035
Be 0.5405389299060583 6.12066912035941 4.865972337843477
Be 2.521695852822824 7.024661829718836 4.983193802426471
Be 7.76170847653357 5.463999169618446 5.224568967016162
Be 0.5733977591467811 4.036369366743256 5.7320902876982425
Be 3.7803829829301554 5.562810496521446 5.8363359824343854
Be 3.346737862722323 1.5824495875419706 4.956022644255524
Be 2.85220107344246 3.5933574566673068 5.712383068686377
Be 4.996804024937947 3.6192491740547177 6.18105689664164
Be 7.096808276840205 4.04612695186272 6.688779655521795
Be 6.940910615937981 2.1632962740187396 5.770354286531473
Be 3.556667556661542 2.1802372873118667 7.083072494514899
Be 1.8563133868739443 5.4422153924425345 6.5708188994069605
Be 5.811977963445206 5.607979896904581 5.872292313330501
Be 5.0899303658694866 1.12179315645939 5.987832841246934
Be 1.7446410397237013 3.449068341775709 7.386351456735361
Be 3.5995743513373784 4.276709698621369 7.567926730759682
Be 5.775804712598259 2.2798201043352937 7.478261167199599
