53
Energy = -157.2250483 eV
Be 5.891836053382584 4.744425892844125 2.093501560353286
Be 6.212246976747617 2.990499203281536 3.251121684771311
Be 7.963438292523147 4.119616567409265 2.5557218826494443
Be 4.065996036053786 3.8197344425608843 2.7467845420850376
Be 4.29334288209589 2.3714019066979595 4.290361428169959
Be 9.383119803459818 5.53452680468865 2.2732643069862437
Be 6.108557989656672 2.3146588585769656 5.181937215415086
Be 3.959946710620844 5.695458588080861 1.7629832638486196
Be 7.435685315639798 6.151032881669226 1.9449487348990997
Be 7.900515848216252 3.346573192703991 4.549075357943043
Be 7.195383134832071 5.343193378457868 4.177396034075852
Be 2.848322517405679 3.9959269839805596 4.54343872189349
Be 3.531159031962122 5.813139100508955 3.7662751851561946
Be 9.298205762899395 5.043634435789271 4.235524641810882
Be 4.5795943944419415 1.4685006504150844 6.389506760165952
Be 4.237795802471706 7.660452136526015 2.6430673201577086
Be 6.268261383525009 2.649464876979289 7.25358136873317
Be 5.151483487263377 4.413481350277988 4.384235970014323
Be 8.454930405788458 4.830372656273324 6.1350799421066915
Be 5.576436873807938 6.804466495274813 1.3344142780813595
Be 8.543712955646104 7.053702824503204 3.4744647289993327
Be 2.7266642188744146 2.1777065586288136 5.571839478668248
Be 6.4460858243808055 4.221276184664415 5.978847266472908
Be 4.408031552437997 3.621441401785512 6.2947352459875185
Be 6.8296934834978655 6.222420592164088 6.026216161882077
Be 5.535133858959604 6.640441427373071 4.031975572024733
Be 4.636101593552971 2.2949827247613563 8.41824767252912
Be 8.813725111747145 6.808978396701553 5.554620545409135
Be 7.287362491034861 4.618804770185017 7.8600024373772746
Be 6.660103761151973 7.994347737782267 2.684320155116632
Be 7.197846552373054 8.036669390476149 4.722029457883887
Be 3.660351976996927 7.622315012550943 4.743381544636227
Be 5.2644164210129825 8.85535126308218 4.1391646032214435
Be 4.673190275919214 5.778744864781151 5.8485812383617155
Be 2.2495810870990374 4.009568773646848 6.636555841110304
Be 5.296309240331441 4.383578992345441 8.178385837212932
Be 5.510533006451769 7.720237124162612 5.938645227330902
Be 8.221903122360278 6.413676936350539 7.730368593914715
Be 2.532996438744128 5.883570769152557 5.65600265854303
Be 2.8383488228216582 2.1426981438159958 7.565729815177742
Be 5.533045188755187 6.5573841589818365 7.668751535218171
Be 7.423388666281695 8.117373726672021 6.805097661312206
Be 6.216772529115614 9.626459477687153 5.966588705335097
Be 6.729257016590219 5.986349878852426 9.349937496161148
Be 3.2795158094087427 3.8403665027841396 8.585851286988664
Be 4.175324026573316 9.303644742494892 5.982423019027202
Be 3.5943156735711623 7.486303897088353 6.776453985183189
Be 3.3446734571236796 5.643921778857947 7.661762996812331
Be 7.173016838253468 7.985781697579988 8.808893308340773
Be 4.455758243143227 5.811859905084997 9.47557111576965
Be 5.354233486072622 8.800994285789038 7.851181405623813
Be 3.7112209313358004 7.647199216774472 8.792522095965285
Be 5.4433353255602395 7.618014708420519 9.781530653890789
