54
Energy = -160.60631559 eV
Be 8.898119392797122 3.101888122225636 1.815626875505744
Be 5.675439039241648 5.146761987420018 7.719787787182245
Be 6.8925507139124464 2.3340242527962816 3.39076200145274
Be 3.9090542638231938 1.9156702343252299 5.624649911910967
Be 0.8094355379976484 8.61083520248917 1.4681150007660997
Be 4.9083757824916985 5.711176067681356 1.5479994940557864
Be 3.833058819682264 4.321047343069326 2.78367760728474
Be 2.686558063904066 0.44158449390943905 0.6885676317555365
Be 3.432445868100057 2.316752339179086 3.6038991018808573
Be 1.4128953546026204 3.603962534416075 0.42220069790911924
Be 0.07200533908728077 2.3019814931362075 3.8719939906784036
Be 4.252533150072322 8.209936599427362 5.096315506001981
Be 4.863424911607636 3.7244802858466524 0.7087261643702811
Be 0.0018898555064539198 4.410385941101092 3.4610818419234084
Be 4.776587469093878 3.37943684524626 6.807550608688641
Be 3.1202934018081536 2.6782221202189933 1.50705584359596
Be 4.618932449457688 7.370083691143285 3.1737580202685853
Be 2.8268831683120865 2.2199408849521114 8.489970320130505
Be 2.42684591682068 8.209936599427362 2.557314295021427
Be 3.7033446079311467 5.29135819265045 7.079292569206633
Be 3.077845636323419 4.854600501756225 0.762088748906618
Be 5.012725663202074 2.4793522799484684 2.3579132661555033
Be 5.109294273910573 3.405303356191267 4.216693673283572
Be 3.092909850987996 7.1860714807621715 6.413293803987057
Be 1.819649246592125 5.412902418764445 3.834276702733306
Be 2.008635535458965 5.506275747823886 5.873875908819484
Be 6.209820565186628 2.2557622999636155 5.546510842589355
Be 6.348507102254531 4.1147281665524655 2.3082227635105674
Be 8.546492441607512 1.103143991419797 2.246803774159186
Be 6.063454546617353 0.7290350102165699 2.0517565730080367
Be 3.9587715097241087 0.6460004657032368 2.3371179368108486
Be 5.4043779367623275 5.040530813120336 5.523560553470971
Be 1.8068418292581094 3.458323523619967 3.103468279562115
Be 1.8234752218464922 1.4591057975317143 2.580873528498108
Be 2.5670992092225218 3.3782761337526632 6.707955094025328
Be 5.153302746420072 1.1497930400753167 4.005550101055789
Be 3.00774738775625 6.35829308359388 2.327787892823164
Be 1.027899168826518 3.8019370571388156 5.163936823666296
Be 5.88133802408255 7.061435340725649 4.8514684127298
Be 3.029048070691277 0.34795841177512743 4.244344407410418
Be 5.149425013618343 6.9600593579096595 6.765443487931306
Be 0.8701632959167919 1.5980085874115946 0.49378944619902365
Be 3.17039757777019 3.9539343670515863 4.881700424711271
Be 7.100429068822643 4.161695988379371 4.530955757611608
Be 7.020223704209227 5.915612376309856 6.32830011245635
Be 5.637620603475837 5.529938014074693 3.4993478808082377
Be 3.803955632244131 5.930420653462372 4.591336546645673
Be 6.5971011844054654 2.4352783458035 1.075566800724048
Be 0.8303871277469862 0.11468285946556775 3.7652145156761474
Be 1.8263482842192793 1.8876998214803937 4.984591722738616
Be 4.7007089638059885 1.4901918070461273 0.4903953267240882
Be 2.42260507261059 7.375273561850222 4.327662147509825
Be 6.9117430605944294 3.866037342921142 6.624685373190803
Be 1.264523677214504 5.108414105371082 1.8227150053907917
