5
Energy = -5.60341447 eV
Be 4.8070898603326055 4.984335260586989 4.888521560201902
Be 7.837857937260155 6.649476289832457 6.448831336387222
Be 6.501906478426903 7.824283758694295 7.379378554145614
Be 8.0978552143173 7.081071283244521 8.470905666982063
Be 5.836173255158116 6.541716153137058 5.893245627778517
