52
Energy = -154.73768638 eV
Be 8.107749239890996 6.316470700606487 4.581128367672613
Be 9.600567712512516 4.713342361611072 4.816352877104127
Be 8.235355978324153 6.682755736536094 2.4747140354671546
Be 7.064569773386342 8.084597344161102 5.512472704669891
Be 8.805720144286308 4.75162061835 2.9587938933727598
Be 7.054619318576161 6.198456950095705 6.526677759464849
Be 8.889416713774528 5.485222099074053 6.58106381761825
Be 7.2097848293844295 7.927594801152616 7.603524686949214
Be 6.66678926889231 7.566965339533337 3.4650382398123094
Be 5.6794576626710125 9.135429501119848 6.841868439854711
Be 7.911686856846801 5.218679865252799 1.130277434610657
Be 8.362052528308833 3.076698348033894 4.193858151997229
Be 6.262390513786924 6.586338043033563 1.543651457551043
Be 3.6906118089838618 8.730004221243501 6.113608669047397
Be 6.951292350830381 4.484346263170291 5.1969397532677135
Be 8.927968326921103 3.487261306056279 6.284276298752051
Be 5.1561116017915545 7.085363993388358 6.783875592546934
Be 7.287234068637241 4.233505350073024 7.492104369994868
Be 6.62024364963942 5.174363722430483 3.1425078450907558
Be 5.162815375559725 8.288398914652449 4.767614626675846
Be 7.386437367513956 3.335460741385236 2.1626156843112305
Be 5.617260355483233 8.130732894955258 8.804829224853883
Be 6.33545229285235 6.159119517312466 8.494282799350387
Be 5.716994406360938 6.202558022616754 4.919684590968498
Be 3.7133689620614625 8.227856496174184 8.048782335755234
Be 6.078315045884662 4.503825878662707 0.8863998654379615
Be 4.691310082664418 6.851327349374213 3.1894090362590357
Be 3.5624473094603317 6.865922263862457 5.179015757673534
Be 5.0387839473541645 4.524535668591303 8.79902022176937
Be 7.156907334658983 2.5074952251231997 5.975573587560945
Be 4.33694163233282 6.449050706174602 9.21420081064637
Be 5.404588538966023 4.931691536876553 6.713605041721387
Be 2.129444826287321 7.507715465762401 6.8303185429032105
Be 6.315415929273267 2.74008259280471 3.908613877271683
Be 4.948535830534637 4.398869287277175 3.9935010006398723
Be 2.3270069109932052 6.8815353997805655 8.88602392230406
Be 4.500217654557608 5.265158745157729 1.9361696815310498
Be 3.481011956533038 5.832476956029607 7.219241311415852
Be 5.176199066326842 3.2243957642763488 2.2163224394679304
Be 3.6500561613559266 4.6116073164808125 5.560308144611063
Be 5.743194830458434 2.8317831732373673 7.617111461230704
Be 5.1261972574153765 2.996812781240617 5.675090185905707
Be 3.0389994167516368 5.475488957968402 3.6020503295091175
Be 3.8307124251612126 3.5367499640235196 7.4731159280572985
Be 1.8138336034979259 5.670309402377867 5.545338895699693
Be 2.7575289718910785 4.782450289962495 8.863179759511219
Be 1.262853268014063 5.753263531178427 7.568234407839217
Be 3.9813202201898394 2.5232656897771397 3.9458559075391966
Be 3.182990735114366 3.7483392665803246 2.515189932477156
Be 3.121360718179681 2.468956256246049 5.872236988369564
Be 2.157624680944556 3.683852161597061 4.405505210162906
Be 1.9555289700074547 3.9924988977887614 6.818766634620133
