55
Energy = -160.98446832 eV
Be 7.986766594742818 6.646887391819643 3.345045107440016
Be 9.868516577911437 7.65452211185694 3.3511366000714307
Be 8.217143230854145 8.47124302595393 4.555552820707095
Be 11.54150700921937 6.558095029496902 3.9769725813235275
Be 4.973862253358199 8.497160774157374 4.768384611809651
Be 6.223831562150469 6.529803261987649 4.393899644827717
Be 6.531019401557516 8.254051198221374 3.336683585534204
Be 7.45594104611097 4.816912132416228 4.451677161101018
Be 9.845688254208422 9.592702469467133 5.237238081134916
Be 9.606780546504394 5.616196824208194 4.1624103171334905
Be 10.105141810021637 7.463132036355679 5.436525920940548
Be 6.509263622316542 9.856394740583324 4.654944183327506
Be 11.526103967421577 8.586290029378173 4.278046385062507
Be 9.059829664445951 4.406035886149385 5.8405587388968945
Be 5.370336829514707 4.5883797803717945 5.253497710828329
Be 6.576373409932257 7.967069339485072 6.217695789857647
Be 7.8922988331746335 10.003232982186669 6.119364164139098
Be 4.636739849319469 6.639401096842791 5.677438397814037
Be 8.172383674107916 6.520125971469804 5.551306474309289
Be 11.514756268805794 9.13288460023321 6.355857583787285
Be 4.233773224172245 5.083343256647192 7.088147104700976
Be 6.467951354766802 5.790914352350162 6.389045178083175
Be 11.032734826362397 5.615691428834827 5.769782015410904
Be 5.37297250773078 6.767242950911464 7.797126533692733
Be 3.04867006332609 6.904935600856878 6.872194254931765
Be 12.330704680337572 7.301773120763194 5.7389855708355
Be 4.347711205127539 8.50250326664513 6.773100014771798
Be 7.574918095871622 6.913825158685002 7.8241816784322795
Be 5.883669767253332 9.950838227023414 6.647046447754473
Be 8.06436595264071 4.735552558030892 7.751233548398514
Be 2.912834290963511 5.902046420229811 8.61018603440415
Be 7.090035437024263 3.704629971331982 6.196627969536183
Be 9.48628114937587 6.055302382391116 7.105313194486683
Be 11.010033425850404 7.308909602036366 7.447726266381155
Be 9.702900358267177 9.95225000903432 7.366110697949237
Be 11.24463142167948 9.114833728445745 8.379089489717845
Be 6.005974746497559 4.3649102921572425 7.929192583798383
Be 3.625432184152881 7.841528180061534 8.688994837387881
Be 8.786474549616578 8.223540893004254 6.721537685010276
Be 9.044826915910784 6.2539207020745815 9.119265943472206
Be 5.525761547376248 7.337123779507461 9.807806542978971
Be 5.45294369180734 8.965840041453836 8.488603906556568
Be 9.36589569619366 8.251141310597308 8.770279377043721
Be 7.546585344852477 9.273162710113922 8.137841064794399
Be 4.714433371988784 5.269610489662853 9.279459464740407
Be 3.6420440796324076 6.7258573425518575 10.611684195535403
Be 7.690096551687706 7.70164933207969 9.829100123880563
Be 6.83747383861488 5.6771615527275525 9.498309535202878
Be 4.316769434207008 8.901264544786812 10.422387388462388
Be 6.64506376138208 7.251319747737666 11.57807486924118
Be 5.4616985144826495 5.567339393009796 11.177169179699169
Be 6.411639508369046 9.192060834263492 10.421092604628393
Be 3.4438348314051157 8.255441951874591 12.150801906160158
Be 5.405161347841351 8.827896757362083 12.259606023274504
Be 4.833240021774917 6.887939532336888 12.562483012821165
