52
Energy = -153.73811565 eV
Be 8.290963580811699 7.129816312578501 6.123853297196896
Be 7.313035045608321 8.371209356264506 7.506209998766671
Be 8.666855254957605 5.0173664230144945 6.393454708416458
Be 7.725352140033924 6.309668601346762 8.096138137314593
Be 7.614356627311304 9.257940943940318 5.589236891057679
Be 8.632118286064033 7.8770237453467615 4.268381892713551
Be 7.9845243477664285 4.30525703721177 8.319873468597528
Be 5.669024371104434 8.989228991990426 6.456378809898304
Be 6.237091802708182 6.778181579918697 6.719089304721484
Be 6.90683089910045 5.779187790054696 4.958389620271517
Be 5.665127395305603 7.289770145850422 8.633436448191354
Be 7.330717728567244 9.151082714144483 3.3531094076189816
Be 8.729848714044198 5.770873469862306 4.236502514977295
Be 5.75193322415037 9.734020250598554 4.442977195514933
Be 7.981776962588627 2.9719590427471485 6.753329402152918
Be 7.268088289429238 6.93206435202295 2.953573014738177
Be 6.043561193529562 5.167686290384187 8.814501626813946
Be 6.40848994542723 7.71086573359761 4.850807540631562
Be 4.246758924075959 7.593669983921598 7.133541724540202
Be 6.251615039016739 3.078978273756818 8.038476716240442
Be 5.264734771110263 6.553807643005816 3.5724328827740353
Be 7.641641512687168 3.798996325913363 4.850525320964105
Be 6.6000783483863055 4.617717982024532 6.709143786480134
Be 5.465288772890229 8.370094673896189 2.8204861348412242
Be 6.833261995728679 4.818244235880803 3.074390469381777
Be 4.81628425330297 6.197667806209838 5.4200464110802455
Be 5.578315576807218 4.205723639310429 5.0081838236044
Be 5.5066417625128485 5.9399014645613635 1.67142092985989
Be 4.678795948232179 5.271236976498565 7.15276537142898
Be 4.796827022936821 1.658982103296497 8.026701236150013
Be 6.1461077900373065 2.303671704413247 5.844082113803055
Be 3.7058671414126123 6.1332111670603044 8.6192207092046
Be 4.30188144304547 8.150948164141273 4.914762538395058
Be 6.0578179483969095 2.834066748329406 3.4550568170520974
Be 5.640800327756314 3.8762380984819234 1.6219796793507366
Be 4.5001735720420655 3.2980671323332023 6.6183339943848125
Be 4.2722902722335006 3.783826100178978 8.681221273216286
Be 3.6255435395450935 6.6413380509832916 2.2651378854381923
Be 2.840084906079545 6.3056591533223925 6.407873770969679
Be 4.35984981979387 4.709398828982949 3.44197612465653
Be 3.0341385220393584 6.400303753940091 4.301798283668382
Be 3.5462214994984373 4.591038769297579 5.361475393823305
Be 2.88612947922806 2.344513173631066 7.810153773575322
Be 2.6858046815971908 4.4034424682525755 7.36211384009302
Be 4.235987485907068 2.6293880913936674 4.584636582163825
Be 3.8531534190326955 1.3277000443801845 6.246126338667828
Be 3.669989240299043 4.677901513975484 1.4579897498401888
Be 4.148263497552055 2.7820752440628103 2.462166445581563
Be 2.101715639856921 5.311575665545638 2.836058535112627
Be 2.432317471921482 2.9086521331661883 5.789608384542748
Be 1.6416226933804257 4.925131210847618 5.0076141103099046
Be 2.5136410287074433 3.5122163767058097 3.6985621992392526
