53
Energy = -156.39820167 eV
Be 6.245602769328641 1.4775711002907004 5.744282402927353
Be 4.49771331009737 2.048967179108025 4.59907756213561
Be 4.476708604120156 1.440680888820213 6.663613369003064
Be 6.459947666611868 3.126075939067314 4.456770726171547
Be 7.706004215758111 2.855724894494573 6.2986242688318805
Be 6.199192757984065 2.392082655604521 7.6641367955896476
Be 7.881299268473471 4.0164017747646525 8.017208628131801
Be 5.106065079655412 3.565351003087538 6.112451149256588
Be 9.080585927880513 4.571916032010134 6.394496229225787
Be 7.086856434377307 3.729039587033374 2.5811117332304474
Be 8.403139327870447 3.8446867016580293 4.567687836824466
Be 3.1953529661719693 3.4881980633150738 3.8842994527447083
Be 3.040835388622933 2.7754873372665436 6.030800710031494
Be 9.280377845538517 5.440917608794658 8.370146582060334
Be 5.755550175291854 5.317494797434124 2.2690540303824163
Be 7.1486994059003965 5.209267822473018 3.845750908762728
Be 8.462904714940393 6.28266578293578 5.09217372074541
Be 4.094533667196734 3.0180064738697148 7.927155679867806
Be 9.809987868527502 6.467936890986468 6.780966278893155
Be 6.780244276340247 4.804296150716574 5.884562788839074
Be 5.890838572923791 4.515258324845514 7.971576415924848
Be 4.9762942214680095 3.442369353799826 2.822626103395343
Be 7.418530209065197 5.831736657912066 9.158459584997079
Be 7.251865887448647 6.41299313496529 7.1182296205208075
Be 3.690227850207226 5.2772958633222915 2.902752995601799
Be 3.3516520788738373 4.684821513016299 5.513740804050757
Be 4.153734428149702 4.8885431189039075 9.014699135287621
Be 5.140604056692754 4.9692422610885485 4.437942557397052
Be 8.924173400960312 7.489172425498061 8.401397516989693
Be 4.972290437981078 7.077596454784272 3.0604485657808076
Be 6.264273239272263 6.767294840600483 5.032310302586773
Be 2.85819490390502 4.599186812328192 7.49243257544749
Be 5.45973546228319 6.508065493381404 8.651894298528935
Be 6.9275640938680265 7.985111204100659 8.67196672440767
Be 8.6104267491392 8.066093924584452 6.417530488158085
Be 4.880852984733085 5.8331251699709625 6.509320954917562
Be 7.090722628352646 6.966535362195094 2.93884239902395
Be 2.125757438863376 5.456833147765092 4.19690175185584
Be 6.436173960371649 8.404533015011735 6.490261979300582
Be 3.483005014452211 6.633050125223299 8.091064579352373
Be 3.663567720383089 6.786742593758602 4.6514832290773835
Be 2.538835290579276 6.347104403589039 6.280649115107644
Be 7.6244037276441015 8.337315615981757 4.573068220063263
Be 4.977756852603366 8.552124549505745 4.785232419949188
Be 8.130104081730401 9.541935893499959 7.820373328803753
Be 4.802099964616274 8.39916942777576 8.238243548165846
Be 6.192097088078683 8.809235244530615 3.20065947214188
Be 3.8859918152966206 7.9573913224189825 6.455715150880781
Be 6.363705358800103 10.139287816423817 4.881255309730751
Be 6.171008024005716 9.94716006654982 8.318375603264023
Be 8.249732080745918 10.019875698178879 5.727854549256812
Be 4.922287165493257 9.878904595687901 6.591344634466399
Be 6.812779894038554 10.938233308348307 6.72781348300112
