51
Energy = -152.24862983 eV
Be 9.081919970834557 5.358339088512731 4.280407147454299
Be 8.345889324768887 7.429178504763487 4.933477933350326
Be 6.659691080759853 8.509225240108444 4.205508059130804
Be 6.959781221203693 6.464554171870202 3.6959783087159357
Be 4.838565784114179 9.410810846161104 3.805017048996681
Be 5.485584039655597 7.764041555078648 2.3949212895262173
Be 9.26156519818207 8.691746138183069 6.36792476770224
Be 5.467263325404238 5.3666823644171995 2.7299050780734655
Be 9.943397140754653 6.664361808531545 6.006939528323403
Be 7.124274164146453 4.342841336622241 3.8574995071256004
Be 10.063765708506065 7.66521128055695 7.865619482209317
Be 5.19012996754899 3.4169223647255036 3.767283622769741
Be 6.903828522673904 2.285726110095936 4.372872102956993
Be 3.396827972666015 8.39841587901049 2.943331751742445
Be 7.232664831950903 8.96123758032384 6.2425508238021985
Be 9.77926228385328 4.620563437089444 6.114794804308795
Be 7.694937685625986 5.459133182635821 5.724810358036709
Be 8.34012334613376 3.41356277661282 5.268396388922255
Be 6.3473227220513175 7.041333508072678 5.7317012484397525
Be 3.819541326395181 6.483045836869841 2.3533403023948964
Be 4.851593170272219 7.206996564758231 4.268377406566325
Be 7.910637167260709 7.0035946250441805 7.14349592879453
Be 5.330982930451899 5.314783182711737 4.915864049071084
Be 8.106653919728641 8.753587101636391 8.242963467829965
Be 9.480947764986187 5.613400780998724 7.8892846328706066
Be 2.6698147981001425 6.787765832113184 4.1145204391612005
Be 8.122612659909933 3.9569451947777146 7.319408095852557
Be 3.561781736326454 4.86684549057624 3.671544837835087
Be 5.172591600043498 1.912089928542989 5.314168478238895
Be 8.7503085181995 7.017686226324074 9.29335360780089
Be 4.548730441887354 4.873831790122429 6.880631370767044
Be 6.333336683525886 5.712317079295853 7.406661931942694
Be 5.868213740630444 8.039808170101809 7.583482293784892
Be 5.1482490762789395 8.867597527332125 5.82026502156165
Be 3.2021997962844595 8.714920739035225 5.068636058608226
Be 6.259320345679645 3.883380729662237 6.054195665458882
Be 7.785258462450681 5.1746750116305895 9.017795876024287
Be 2.120913339255102 7.270114062096353 6.134356051212393
Be 6.993640830959436 2.0800514968234007 6.506616959417755
Be 2.7169161214160695 5.3241888289131944 5.595612813511924
Be 3.8475071401728966 3.526283368453949 5.361008842484004
Be 6.196852830656269 3.7176847687266608 8.276304999390751
Be 4.6743632170213685 2.776836751600554 7.189158904459557
Be 4.631308785191626 6.574585934049968 8.479376907116869
Be 6.746742049006763 7.1071305125796105 9.185469475097527
Be 4.346218503011205 6.827371594087335 6.271315134932398
Be 4.133137302723414 4.435721409739896 8.792430155000522
Be 3.516519268119469 8.317531597334046 7.307442573154351
Be 2.8135087824979217 5.9827063566745124 7.653353144038055
Be 2.77607348565948 3.9457879200273953 7.16570843965576
Be 5.8154080159380115 5.273230497799331 9.638390888359888
