55
Energy = -163.71721652 eV
Be 4.390721269138129 6.447957408846309 4.768944914825067
Be 7.259611865017623 9.543681382725095 3.853379956579854
Be 5.928049315926575 7.903928614208617 4.725479861673005
Be 6.506128108800345 5.8793801718539775 4.49636183452781
Be 8.06113209379759 7.520158079795092 4.314551248160881
Be 3.290114597901661 5.26340410624848 6.416670890905363
Be 10.510264047348278 5.699299496315788 6.308661651587031
Be 5.632108939542154 9.961322958302553 5.076752208658247
Be 9.247402369884052 9.29664975967633 4.495494013906725
Be 7.236589812507052 4.415096211142096 5.7922954383278515
Be 8.545371919499832 11.155710680202533 3.9609080762953135
Be 10.063193767614903 7.460948767070628 5.180783239782254
Be 5.321591634862381 5.061087324742485 6.124491301683691
Be 6.8912725245602235 11.478065535925676 5.024803002652026
Be 4.675289385969466 6.944162360127631 6.824015333483489
Be 11.049119246307168 7.5668549448409 7.173063550468491
Be 4.022564668140872 8.590424994494313 5.3381796177558165
Be 8.718599124807499 4.958129883590401 7.055378312391286
Be 8.64946879832879 5.757930557902822 5.125563308986193
Be 2.6690110987568483 7.122733863383055 5.866467895148903
Be 9.698505761803306 9.171618176207605 6.570875724780175
Be 8.959235647202965 7.130555454277127 6.907869443610818
Be 6.897894941194035 6.742543008311548 6.504620306168088
Be 6.586686154327869 10.747056192660658 6.996226058765013
Be 2.7128263773173105 6.515544331602133 7.885080581256779
Be 5.665347154973648 8.696087032139975 7.0103791133162945
Be 8.633362457503106 10.928303992129745 5.998498710993858
Be 7.538863933711919 8.992095581219145 5.9181138606165895
Be 11.98931802499479 5.824137536580658 7.733657414529163
Be 7.975983599176513 6.443444764879098 8.688271015301563
Be 4.50924743255266 9.664460001044878 8.666149989323445
Be 4.105171116975246 7.642329126274814 8.935444437202232
Be 6.043040539795887 6.917530140193965 8.473846273773722
Be 4.3936951128100095 10.35845434286675 6.642666014815056
Be 3.2891447799325064 8.620982509774654 7.287631803375767
Be 11.91719024191645 4.984316749639673 9.556517237178122
Be 10.626581925980977 4.19710065500135 7.944053904737798
Be 8.445386067877584 10.188063162504355 8.011166132978026
Be 9.91391531953242 6.005052365865972 8.57671373403924
Be 6.602948592950509 4.811235726851516 7.7473427188986195
Be 9.632797049942413 8.330125509172019 8.601736192440674
Be 11.448203087118221 7.136187890048296 9.349486088848797
Be 7.511100163746659 8.335687936789657 7.908645688906925
Be 6.528770548525555 10.075540180351965 8.921478545304822
Be 4.538189520059326 5.368449428136923 8.38001936811103
Be 10.145077434130211 4.0583427885699725 10.028459885819773
Be 8.400168039159256 4.216581593152485 8.889579121019745
Be 5.774752943051009 8.508449247314262 9.986627658226768
Be 7.154065500953923 7.032058844852501 10.637824353748016
Be 10.688369313002088 5.812834799383848 10.895674103843387
Be 8.557879381070343 5.387571674324416 10.600166584095723
Be 5.1176327964429715 6.431918326833758 10.298148576273423
Be 9.357114424796004 7.308298264603073 10.37954642134444
Be 7.924649365256026 8.835982197780309 9.889804880825176
Be 6.5918796961107695 5.096732401871167 9.798031432338625
