55
Energy = -164.32284327 eV
Be 5.452972491988666 6.811178629879896 10.540635853555981
Be 6.717318913592646 4.929358611666336 7.438670631050801
Be 5.540201259934052 6.645977830591486 8.274538157675188
Be 6.836991503008843 5.457634034559082 9.561121733759732
Be 5.101487427629711 8.610255242179376 9.322022371422651
Be 8.602395380128984 4.961940760505457 10.748429321729168
Be 6.818988648521738 6.642429372268026 5.965088881630766
Be 8.607825627429802 4.746422249548721 8.512815052972895
Be 7.487828161072626 6.736044524403203 11.442734241867074
Be 6.922928118907558 7.6319617915383695 9.515486127640932
Be 6.4606038322324695 8.608658630315091 11.378035791063184
Be 7.570442241917902 6.64667912917458 7.893190234555551
Be 8.611602019623465 5.417622219417851 6.428138069436105
Be 5.45539222465438 10.408345437772105 10.540702689133285
Be 6.632470010016697 8.609752083315279 7.355912062320005
Be 8.605532327128838 6.5978537126356445 9.65263371692603
Be 5.543304735360429 10.574290295197676 8.275242699580616
Be 6.924340126352623 9.585524757836945 9.515624989650703
Be 8.6084531916181 6.794341804420202 4.700171026336194
Be 10.5013662208286 4.9303974522192755 7.446673298391297
Be 7.477638887864463 8.610699830234303 5.026797481938309
Be 10.374274005744477 5.455921419472299 9.569364898259362
Be 9.711332904452604 6.734787747014126 11.449980829097754
Be 8.598081373447249 8.606499956826877 12.45865701781501
Be 8.609384155703102 7.630737329959893 6.5145017797363876
Be 9.650505265468606 6.64932966165443 7.8967246940640825
Be 8.603604338452024 8.607292987939429 10.500065256834917
Be 6.823254690259922 10.578835501977021 5.965352735396432
Be 7.490274903669564 10.479846752659647 11.443551180868518
Be 8.609536253534579 8.6081649514463 8.43794129830378
Be 6.841609538476988 11.760108688398319 9.56240499897421
Be 7.573731444582816 10.571246412918775 7.894070855136521
Be 10.398747614197795 6.642554020425955 5.967238367306023
Be 10.28856013437414 7.630180490549295 9.52597665489982
Be 8.612068114480772 9.587226053516247 6.51491229447723
Be 6.723350092242166 12.290108554535497 7.440767432035989
Be 8.608467691372136 10.617132368779119 9.653760574609418
Be 9.742671436661007 8.608355970496598 5.027356449303991
Be 11.677766341391415 6.6456670435439165 8.294513322052449
Be 10.741160556377134 8.605374766451456 11.392399337727923
Be 11.751331967583482 6.80875089708108 10.562356892330577
Be 10.590040299797662 8.60725655781346 7.364836500799285
Be 8.61217896734826 10.424994697662497 4.701090304370666
Be 9.713638802174124 10.477158097183747 11.451265036287662
Be 10.29013555628808 9.582777144490787 9.526676742018868
Be 8.60699578452059 12.252250631284724 10.75109659393252
Be 9.65398804735533 10.566205706089182 7.8981014521914235
Be 10.402759749933491 10.57349726947871 5.968789582945942
Be 8.617133758928057 11.800582943883915 6.430166702308938
Be 10.378778233825859 11.756852219257697 9.57210728296563
Be 12.113139131851721 8.605321072623292 9.34762925745253
Be 11.753901903387007 10.40120859319568 10.564145437067793
Be 8.613551827805255 12.469716535422442 8.515592909809548
Be 10.507378750763715 12.284431630495884 7.449932939773365
Be 11.681065748068699 10.566739660125405 8.296490690542804
