5
Energy = -5.60185741 eV
Be 7.843868098304236 6.3036662585259196 7.537413857958119
Be 7.153161438621547 5.7517728332368625 5.718051654753196
Be 5.570038453169126 5.749839165340562 4.495267875237746
Be 4.33410332216034 6.582307220665612 5.996684982361294
Be 5.863714845791153 6.626476788329669 7.2867023696698485
