51
Energy = -150.67922587 eV
Be 6.141264871687276 5.914296382030907 7.932411581305092
Be 4.057447726390603 5.992703211107014 4.868922598218182
Be 7.315974681369945 10.647783641333064 5.729746975305619
Be 7.865542098191746 7.12169388368736 3.0582684671714286
Be 9.310049898310698 7.090257272802383 6.367392246681267
Be 3.6188997829904053 7.554636873469651 8.395288451769263
Be 4.053785067094209 5.8613341205862515 7.02378272413009
Be 7.6903124850238065 5.582698062006607 6.332688252709574
Be 5.470317506980798 8.041255916005818 7.676803347499823
Be 9.305916323255936 5.219824347801148 9.650194544312647
Be 5.486232372971017 10.591116962565785 6.848784497496642
Be 7.346637957182008 7.630688391628432 7.009245906132707
Be 3.857348030285296 3.987578864894626 5.763457734791781
Be 5.724045353454123 4.7600606101607275 6.1147933708755
Be 9.050994495853466 8.333236488073103 8.05597168697495
Be 4.441172328549817 4.019209476385635 7.940895423346128
Be 8.747337177582711 4.015434637850802 5.34727512480292
Be 3.866365446174914 9.492409606723914 7.50830269092787
Be 4.5430643043196595 8.10173102051206 4.367382513262562
Be 6.244073828029153 8.484199767035276 3.2916006550540975
Be 9.119503652287559 5.9344658043135965 4.479463254110479
Be 5.774991143214065 10.23069679709977 4.3548479050102396
Be 5.382454409154245 2.681435011755758 6.573006089265195
Be 7.851954712513457 9.399415246966795 4.085798144835661
Be 7.205873800849253 8.101841793475913 9.14470585150398
Be 4.059842659555423 9.768022168938769 5.509413890631311
Be 7.411184024063256 3.370736086071566 6.9075969298659725
Be 6.205103109883704 8.80562645992959 5.777725178156837
Be 9.38945725735496 7.983647951999561 4.382805039829693
Be 3.5997159925472486 7.831084206396558 6.243059023191238
Be 8.612983769082978 9.076074330216512 6.039977635604986
Be 9.258856127792589 4.403134620964238 7.616792012616847
Be 5.568745986989194 9.652305821044923 8.827101274178299
Be 5.336191810875115 7.121316665365474 9.727959038896184
Be 5.67429209774654 6.801174996423436 5.94754721521739
Be 7.245655189608089 5.1284743510455195 4.105987470826218
Be 3.9706833785796287 5.682168384066299 9.13540636198035
Be 4.770597529052103 2.530234250607383 4.5994532429944055
Be 7.483377866379603 7.317715509447792 4.985180571628598
Be 7.212970118566278 6.112553337528375 10.042769031583674
Be 6.6941703824524055 3.2037790409827336 4.937865494279194
Be 8.218982175601605 6.3202699109092615 8.212241525764712
Be 5.765481215943182 6.518585283692812 3.6605846828795596
Be 7.582160738956565 4.36723064691011 8.897387119473015
Be 6.097772108799766 3.002692775787777 8.546860543969132
Be 7.305979910502476 9.667467814136774 7.644940201870963
Be 9.115060363991773 7.248622372316466 9.822257030389569
Be 10.256892633171232 5.303659496676519 6.089204772260223
Be 10.304384967584237 6.322701834131192 8.16432410250707
Be 5.65569148736182 4.6962487085376114 9.74315900496014
Be 5.184682813014473 4.426943954772081 3.963824875078812
