54
Energy = -159.33728015 eV
Be 1.6667662407611212 5.933324945371393 3.643360460386479
Be 1.9981914703898667 4.029117742470145 4.301415061150549
Be 2.789099431319965 7.407810949986046 4.501427420470872
Be 3.0932989447460764 6.877575024372683 2.5048273126773988
Be 2.833564320771151 4.7659910520843445 2.3923515209748594
Be 2.273280370586525 5.690319534955217 5.647860118765641
Be 2.73824133464967 2.1340815515977636 5.1269403730043255
Be 1.6314920490644118 3.7843362346806164 6.421828155799866
Be 4.510091582215501 3.7304748688105485 1.7712986384326659
Be 3.7778351331481663 3.214573447175393 3.6351752007102833
Be 3.27038872317313 9.24052657017803 5.319156795210084
Be 3.981530480889092 5.495855947914216 4.167607377123227
Be 1.9188820150954073 1.7809499415368943 6.993726566069881
Be 3.5202885203502126 8.857006950912133 3.2657083865745844
Be 4.7358034419504556 5.822338063436456 1.781441639432753
Be 5.032254726457938 7.426815706476835 3.145524496942865
Be 2.8665486833865508 7.498713346756996 6.558057120258558
Be 3.626500552822374 3.923218146200876 5.76815319830354
Be 4.906398936929849 2.006062670154299 4.969481203349395
Be 6.119579827893178 5.820949327435853 4.460300402519038
Be 3.0406934061920605 5.224106518811932 7.590490637658293
Be 4.8541699647100085 7.4106324133446515 5.306295041998807
Be 5.924572903375924 2.992933058667845 3.197835813967498
Be 6.3878948943417395 4.497550599787293 1.801382444972178
Be 3.9877118463818824 1.826973334707893 6.857111513246554
Be 2.821927622469219 3.175620798822808 8.068103975077097
Be 5.127900865032786 9.332819576187667 4.5014193608822985
Be 4.828564755658607 5.615761023083103 6.324534488470168
Be 7.110351757367572 2.477406192462894 4.891564059601457
Be 7.035240149889427 6.4233642169976095 6.296555637787287
Be 4.735386962511966 3.655318565957862 7.585556650012727
Be 6.793921603693086 7.899005315975255 4.221558423300937
Be 7.619202702561263 4.315258060656659 3.439978340435269
Be 5.715436840689604 3.95106233170722 5.297996964294411
Be 6.140124241914526 2.3134822943901985 6.728051150051864
Be 6.848612876354264 6.355230692045214 2.5441141633005215
Be 6.415110805417533 8.706009640305686 6.101671928866674
Be 4.448315699070307 8.853792513818341 6.95825476956251
Be 3.810426751140346 7.116800570636528 8.272360595519986
Be 7.738220313768755 4.628505828858401 5.48996041750671
Be 8.189676250718838 6.386366047437779 4.257615270003134
Be 5.103072348730175 5.460754870888768 8.521196326151175
Be 9.056545337684916 2.9596964300039468 4.660213790156145
Be 8.18409889795712 2.947964798117142 6.687964774094832
Be 7.200462986368622 6.225016414681063 8.51528608692149
Be 8.392188592588262 8.045285110880624 5.8033909991735735
Be 6.703377249494783 4.282428728730543 7.613621214415235
Be 9.61411380277959 4.855034469002157 4.271949355993921
Be 7.483545615716201 8.239206055534376 7.78715252063
Be 5.643418379433767 7.324299345670794 7.572189509834079
Be 8.672569361505264 4.9047909803342495 7.520583469200406
Be 9.929274985835743 4.084190761569406 6.138659659159606
Be 9.392818520154854 6.142938330045989 5.931083614943615
Be 9.001869449796393 6.983279648567405 7.731170137257485
