55
Energy = -164.47742194 eV
Be 5.590743309898644 5.8673596937754695 6.77399110815748
Be 4.842625117799379 7.206014471808658 5.058994886497849
Be 3.866461804033424 5.116143394663395 8.215717446236885
Be 3.5039998198327584 3.1331565670428345 7.528603411184275
Be 5.484540212193716 3.951433811568391 8.227546691561988
Be 2.5255910160778883 7.401551166960686 4.664014144108561
Be 7.322824669383001 6.95882586739596 7.645539810531026
Be 5.490107258502683 9.270065027665341 5.552362723978753
Be 7.193636718201085 2.77301528926836 7.998650982917818
Be 8.898567660713296 4.174656951605782 5.2021189171167395
Be 3.4185688304674446 5.410407521028324 4.463030395966423
Be 3.570699902176004 8.42881690367088 6.321671418162978
Be 1.7470256530818418 3.99951321836295 3.6618035380743112
Be 5.502636969239856 7.974533761530694 7.226469743166224
Be 4.477272424370197 4.21120082410329 6.091329505899612
Be 4.355686581558092 5.227017203863704 2.523173017384258
Be 7.651966336642293 3.183420608432108 3.926963904821958
Be 7.363264143513022 4.929980731705196 8.260178156186411
Be 3.558083766313171 6.164520583652864 6.325934862321827
Be 3.8820527229058306 8.94294816811901 4.288713724985164
Be 8.941133364475329 8.554367648748842 4.883001409565775
Be 6.96873061316673 6.894737343774344 5.369606265257347
Be 8.98942121110415 7.6290637028317 6.63505827148516
Be 8.711007395599154 5.60001991985999 6.732225598672537
Be 2.167837599239855 5.966148920366242 3.004878583348888
Be 1.489282324721228 5.586654335961842 5.234747422148542
Be 2.625768046758053 2.2994251512308934 2.3410056989256485
Be 2.330280549285077 2.04145463930101 4.2672413277082155
Be 5.5643990574641595 2.3002181424012957 6.84780246711529
Be 4.469365921081842 3.063071680209658 1.8324201184090458
Be 2.6800304611628207 4.244675763125668 1.8130115017680661
Be 5.782396990759438 1.1378770461823131 4.962952306886667
Be 9.143053094009176 6.449199604398625 4.872404870143707
Be 3.9460049212160566 2.0913418683358453 5.589243939339206
Be 7.777267730432872 7.631837778368598 3.450829814995352
Be 5.831262296212528 3.1501725657316966 4.8844676969406
Be 6.905314242079337 4.401821025252378 6.130735410728523
Be 7.612221009608323 2.3357869289022246 5.90644803369863
Be 5.528096515655852 5.216377655294173 4.622473194162559
Be 4.1620853207776 1.331321823482358 3.4963757869505354
Be 7.18839270723935 9.460813415489081 4.4425731828602
Be 6.048066662590562 6.449979066916179 3.0078407241999647
Be 3.955413222809902 7.2063373419938 3.0561161370932584
Be 1.857147589964608 7.149793652885942 6.655002299106891
Be 6.101187316403519 4.1428577247993745 2.8306572517710027
Be 5.996256190192244 2.068547450988671 3.0584467887616857
Be 5.565337687340677 6.167320867781296 8.790608601443877
Be 7.662519850415029 5.311897900493213 3.8365718742832358
Be 8.789064083728876 3.598871977522334 7.176888190573812
Be 2.0963567440070228 4.9573346499587725 7.195291510556857
Be 4.0258193631404025 3.512486995676605 3.9115593092288985
Be 3.73444036163778 7.1727909979361115 8.065945843948075
Be 2.39486551346877 3.624726967511211 5.631917726382815
Be 5.72457533563971 8.417766895650605 3.4240544054989486
Be 7.375934029931838 8.895009024636533 6.469478287003297
