5
Energy = -5.30764528 eV
Be 6.336934171375752 6.6119322702736385 6.82667621218762
Be 5.313513569576284 6.747017185122015 5.083075572039649
Be 7.252310949402981 6.015863422468242 5.1429601785742225
Be 8.24370862185254 5.930122854197559 6.962644059139164
Be 5.353066364717771 7.1945979448641095 8.484177654984787
