50
Energy = -147.47415282 eV
Be 3.09660987133189 5.863320941639523 8.066524022065154
Be 3.1066343908013327 3.8742878968431884 6.90553902302638
Be 4.417492783984138 3.0274471858695953 5.412387674839369
Be 3.3120291608269268 7.564477552952671 6.8313604501475504
Be 3.8284076067105093 5.9767916235746705 2.2694382419134054
Be 2.4974703244392495 6.028791727307812 3.846828516394246
Be 4.3572575949551595 4.383039320652597 8.489602629845287
Be 5.588943648218721 2.9355655964041794 3.6479068910119694
Be 5.513429370526412 3.2156014740701937 7.2992511232078785
Be 4.533612237644347 3.860769948597522 1.9306259250523699
Be 3.833306895986725 7.662806858599611 8.846105419111646
Be 5.2997769361620435 6.635692048692907 3.5690708697378137
Be 5.630619106855444 6.4219332152624276 7.761420485292993
Be 5.0053831410953595 8.754042227324028 7.501344805459737
Be 7.650312953386061 2.7222271850701563 3.7388999994947905
Be 6.75543983872583 3.4075661057057953 2.0039023449450246
Be 6.424361525548682 4.818391747309586 4.47880169456129
Be 6.030477778198859 5.243770553325712 2.313313814394151
Be 3.769606422394359 7.939221993143005 3.5618173161003845
Be 4.385422377844292 4.7852671943184575 4.008014094644984
Be 8.02516930896732 8.005351896173062 4.983883072854744
Be 9.65186192822295 7.034749277405703 5.932203528205039
Be 8.356257930731163 3.811310349252849 5.322673337099161
Be 3.489451574629287 2.779302211317902 3.4687626309526403
Be 8.082762369267385 4.639329348457499 3.147181943600356
Be 2.5857980679148036 4.325355335939701 2.6595819684801567
Be 7.3078829568539385 6.685432662896553 3.444603298623853
Be 6.575310939672675 2.7504139110112367 5.599234414130108
Be 6.88251747615985 5.033691491230624 6.618320583227688
Be 9.578165635171173 6.835870719159694 7.932768001572864
Be 2.497876357843803 4.040883344148878 4.8405233739477
Be 6.1141059310546355 6.7648516698944094 5.515198456619124
Be 6.129598257422776 8.44611575122175 4.042178034593221
Be 7.793231336176292 3.4264572556439226 7.4102723712452345
Be 8.223136094438322 5.846884662170687 5.039885158356471
Be 9.169596600241638 5.120803388129581 6.7909284244781025
Be 6.644016358517348 9.06416606551768 6.0692399841054785
Be 7.606294151641971 6.9692934591660665 6.951476611573068
Be 4.758451257565926 5.047610201483284 6.283246084828926
Be 3.974775730194047 6.638562798393537 5.147050209527715
Be 4.657697934579961 8.613146647963964 5.429523288079172
Be 8.726354631570775 8.681184105508288 6.988012671212374
Be 8.189733207632736 5.382753850396127 8.576619226124613
Be 6.334740328823451 4.404453864415219 8.81379339544141
Be 5.815045184793344 7.9460326098191905 9.396819515426204
Be 2.4172430273891985 5.682826755220079 6.110219924378767
Be 6.759556234433464 6.191520921979507 9.830799556674284
Be 7.998455286605228 7.605773036071237 9.019036099793302
Be 6.9524349001663195 9.08839984064341 8.092565438434871
Be 4.701042453343862 6.021171843216071 9.652537534101413
