54
Energy = -163.30463537 eV
Be 8.913166404107377 8.523168139245273 6.286297568207945
Be 6.801331728116761 7.194246494109481 4.391495282419624
Be 10.833704640218539 7.526334743907974 5.894371905527703
Be 9.049821278495005 7.24870905182954 4.512407835446145
Be 10.052965539672098 9.129334152409353 4.728352504674634
Be 4.941969759111659 7.4063497202737025 5.602856693685152
Be 7.909679226395049 9.1894176624175 4.428270100214979
Be 5.777496176122431 9.067347612577336 4.481153682996499
Be 6.789984579188219 8.473681671111082 6.2059056862683555
Be 4.9546196745411475 9.49102817157511 6.356334181529417
Be 9.470104102386271 10.320102767983672 10.047323115039386
Be 9.478161727339275 8.933129389569716 8.321846549339966
Be 7.617594077208805 10.401124147211961 11.108222363750844
Be 5.934590379307526 10.201506567672942 9.883401049467325
Be 9.554429168835576 11.110358965820163 7.930822166264086
Be 7.695655962155573 11.323018978763448 9.143021564586434
Be 7.692877319290474 9.127651320611458 9.457597289199322
Be 7.7799301333222575 11.915484477329445 7.055208254835167
Be 6.020255664086855 11.007553290717912 7.726892034402773
Be 5.927807888114514 8.917370803004241 8.172403651553564
Be 4.210310961761927 7.748386490918216 7.66608913075928
Be 7.771920455446931 9.870648680361066 7.468968207528523
Be 6.7279924214438145 10.62250511424653 5.662892442353914
Be 8.9546518502988 10.676016632052567 5.771844101627831
Be 11.174655787025229 9.941961864631962 8.766696232256852
Be 10.74175884029002 9.655983362252737 6.68748592878566
Be 9.793261238560563 6.712240152084108 11.195237460824817
Be 8.826806166922873 5.176549252846914 10.05589334800941
Be 8.782222156679586 7.304852891497425 9.54591593487688
Be 7.786879321674284 5.889070019611601 8.266324015146175
Be 8.731430933850728 8.593385235033283 11.345372362456793
Be 7.818797340521689 3.9041464987991144 8.657259883730488
Be 5.9843555193922 4.68638176481921 7.813446469739932
Be 6.070163970465782 5.4840831954419205 5.676570827185684
Be 6.660488630250228 7.271579174139393 9.423035134417729
Be 4.377572994339243 5.793110617468496 6.942907289269059
Be 6.103053729483629 6.866488941780098 7.413617388511168
Be 4.803010891332098 6.120856110217638 9.047381494485274
Be 5.513477050152718 6.6182454083327835 11.037716121046737
Be 6.504444685695525 8.540285118278808 11.234562789841512
Be 4.814466708762771 8.188036626348858 9.845876296718634
Be 7.632560823951118 6.618287067658836 11.308624902579918
Be 6.577000692360573 5.117344221851631 9.951741764536846
Be 7.797986057255544 7.882621510607736 7.862176099042091
Be 7.86661062223749 4.480447159559145 6.593481716731615
Be 9.57040176500153 6.902206544488625 7.5670544152097845
Be 7.980011659200221 5.397398815296841 4.659912536787409
Be 11.428071636868522 7.956944648362313 8.03541869544459
Be 9.650071677001463 4.754760968283486 7.978059819405868
Be 11.289840248003292 5.952313850191944 7.281484433429092
Be 10.604359910309457 8.375565394388543 10.113872431199775
Be 10.696608379117942 6.2445922558079765 9.32347743526641
Be 7.867487689890979 6.642193676880956 6.251003778216484
Be 9.735085873526671 5.54755649311316 5.8583802128487354
