5
Energy = -4.41891705 eV
Be 8.111944618568245 5.345478201729957 7.199047798957673
Be 9.945141375567548 4.2838272821427985 7.655323282583067
Be 3.3086436550156457 8.86081249167226 5.023236388114802
Be 4.752967211207277 7.580754689123644 5.967829198468564
Be 6.38406249665029 6.431886692340205 6.657322688884895
