54
Energy = -162.43237715 eV
Be 7.537218596224389 6.597803725336365 8.283741338280329
Be 8.157812646195541 10.789362347327273 9.541504892083399
Be 4.613364967509728 8.243202359056314 6.519725341882918
Be 4.249216298968462 9.365640309599899 8.476255862660835
Be 8.75174952745085 4.066976512338501 6.373181624964555
Be 3.2684159599114464 7.527326294044876 7.869581678086766
Be 10.20390554848584 5.703006994191695 5.8089078639274465
Be 7.590105000277142 11.043462166434415 7.5485881804736
Be 9.513547383958509 10.877959427196844 6.262390924917205
Be 6.08032780803964 10.547044904425206 9.15600786412965
Be 10.826052895583214 7.564272130814538 5.091127051912746
Be 7.714520329384725 5.946094676900379 6.097806990129705
Be 5.909522924400405 9.761412913835867 7.234830735612676
Be 9.31902385338996 7.591968966735741 8.59763647003427
Be 6.976721120517639 5.57265430447151 10.145044795092744
Be 4.902843529360044 5.843020261948841 10.090113339260823
Be 10.796226724560102 9.187589948289638 6.404211869860986
Be 5.812955628981518 6.030642412352941 7.117673340969455
Be 10.412374227824458 10.620159391209215 9.607014048827685
Be 7.088252007652049 9.345773361958159 10.743725055007296
Be 5.61231702988681 7.026609548211089 5.054408652199836
Be 11.098215203521185 8.73361253027407 8.7287160562071
Be 7.831909585359966 4.447925989389856 8.424682782782707
Be 5.608397321819457 4.984240579971165 5.229040602350688
Be 7.408127512125084 8.82478209602057 8.652467866251994
Be 6.811173775256655 7.845054962896025 6.779326060002381
Be 9.057545965217729 5.759355353555379 9.725625698090322
Be 7.2548888675366 3.8956928223562364 4.862780246793417
Be 6.011193991783896 9.159034880687958 5.2532120458375555
Be 5.577711397746399 7.638978626884762 8.4973607789269
Be 9.407307828366742 9.047089014376326 4.788246676366537
Be 9.120724481311195 9.090851477051432 10.037156837148938
Be 7.17255265834708 5.860772354260268 3.9900751083837087
Be 10.992329911792437 7.252771438009491 7.116119365676794
Be 5.033372839910504 9.255239355235878 10.357286502764154
Be 4.5870080556000286 4.337967046421422 6.939198412925115
Be 3.8950053399597286 7.603296977083712 9.816350760243905
Be 7.850190930898931 9.605098677957248 6.095992973987401
Be 10.214185095287034 7.3959981613896 10.467670626896288
Be 3.8794891452966462 5.676465718413148 8.36523771149134
Be 9.445081217516138 11.829248099121553 8.171314583027996
Be 8.976014078891545 7.671191586330188 6.483180443976098
Be 11.138204734565907 10.783470951996144 7.735949831181623
Be 6.630141673727678 3.9074283140915766 6.8042589765681445
Be 10.978664397566039 6.2941772173259425 8.919193417280516
Be 9.414302164221477 5.6540762684491765 7.669697315334035
Be 7.546497193057747 7.8800150137380225 4.784336780544735
Be 8.028643219365726 7.3854817289439145 10.521997985790245
Be 9.236009321472554 9.536066660023257 7.864728075444605
Be 3.919957224271177 6.254910779401438 6.274986182197389
Be 9.177930641534337 6.819665806355794 4.186120421997618
Be 5.705383121992985 4.493774870720259 8.721630914245209
Be 9.006622156167417 4.806263315810914 4.391273697543771
Be 5.945127811983543 7.500640865325834 10.767309333974564
