50
Energy = -148.38660842 eV
Be 6.822130245628206 9.455895702455436 11.427536659374805
Be 5.846625075905317 5.904508379133327 4.438951768300055
Be 8.680311935830792 10.656108658336926 8.608589861121354
Be 7.1086887193978 7.640746654933929 4.100622573298853
Be 6.315294748248193 7.38368992166051 11.603645142562897
Be 6.917207189040351 9.797408903493496 9.368330052875645
Be 8.646901346099886 10.641249136281916 6.4063811516933145
Be 7.674811785495566 6.370813678070209 8.345441733422518
Be 9.181946693449932 7.734934167013807 4.3273448166702195
Be 5.316983044626591 7.87996994986393 5.139417424194036
Be 6.814149494730075 6.520677317316602 6.292674050607379
Be 10.84264629623095 8.094977459459722 7.303998674714511
Be 8.288373673938734 9.779037844334864 4.370888524149171
Be 4.219650231162853 6.289670734771909 5.722297376704632
Be 6.950129951130712 5.6181823383289995 10.440879413915747
Be 10.220224454638243 8.963615169674569 9.219405709919748
Be 5.4188663807280175 4.756132314670579 6.394273506119069
Be 8.413013042313054 8.556644233379686 7.94655415088027
Be 8.73900547014701 9.568714948990685 10.558865715416358
Be 6.859292692400203 10.947884854568303 5.449540671739068
Be 10.31587734493378 10.047992515898411 7.454055567338434
Be 9.07986923564319 4.704709896706007 5.899819781519604
Be 6.868703145455332 10.386873133074964 7.423318767513977
Be 4.525036533909439 6.262405799529046 7.745558339618957
Be 5.355691102486179 8.710055400602672 10.186081698000777
Be 9.056899540526288 5.680609152174329 10.022345055433528
Be 9.982602868511337 6.9074013397032585 8.683611143889486
Be 7.816420934422615 4.285344974111199 9.147925700063203
Be 7.4094504422155785 4.451407950925653 7.138814518418089
Be 8.972822275833188 6.950126778089845 6.547422638416325
Be 6.183260373181452 9.541470375279324 4.217017028105935
Be 8.302825698599982 8.359818474281392 12.218716700113502
Be 4.1045061026761145 8.170822898930888 6.813509383716311
Be 10.214152567210062 5.892689306103427 4.667058628911728
Be 10.856594090814019 5.986911773756502 6.703652473868436
Be 5.459071783974063 6.708702781167052 9.618084446839855
Be 5.312384748566611 9.71617055466902 6.180849009446461
Be 7.07490469069198 4.398714349703156 5.152336134725902
Be 8.150841830413734 5.884109026069718 4.29775595823582
Be 8.24204090479221 6.425319735238327 11.783263907384981
Be 5.910249218427844 4.944655168989731 8.532731288235622
Be 6.253712157723927 8.113229829747727 7.93676157651187
Be 9.864580655675102 9.179830931106885 5.668302420742407
Be 9.347072679923444 5.040320850433278 7.918430378665305
Be 4.960611021371863 9.769022583754516 8.324434517833215
Be 11.073580640987782 7.57580779727227 5.346399255075714
Be 7.5800101439648895 7.720709385763621 9.912338743477779
Be 4.013564233085312 7.990014351823262 8.821070196164877
Be 9.665938428779256 7.58268356327877 10.781397825118226
Be 7.410280975212947 8.648987105884936 6.003903431112575
