6
Energy = -9.3447243 eV
Be 6.47928951825774 7.935843724590032 6.923406614403076
Be 6.578363883186588 5.142438435657866 6.12428253708753
Be 5.091904767859112 6.553325316036621 6.314857418742512
Be 7.966966312136985 6.527699775821383 6.731591128238599
Be 6.729820617097048 6.943815465312346 5.14083432832357
Be 6.329340924423905 6.131771271698224 7.9051498691680315
