6
Energy = -5.80041702 eV
Be 7.139726327101497 11.081645598243384 5.126623008091589
Be 7.3846782615676245 9.396616757284598 6.454512743833206
Be 7.717275604315859 7.612878079700472 7.560740152362955
Be 7.775964525117268 5.792493958933449 8.669343054834167
Be 7.529814116911676 3.9940887910686307 9.774077635876642
Be 7.311549622984264 2.0722442443856144 10.738097382662723
