6
Energy = -8.15585331 eV
Be 8.028003997854881 4.268765896163883 6.8565762793463625
Be 7.2071649705250795 6.146998848973157 7.190605766187073
Be 6.830890029660301 8.15922140979069 6.796366127044808
Be 6.424228116661544 4.9335772634596795 5.787800224059154
Be 5.009840600694952 8.751111372770334 6.099743383158253
Be 5.501029250534381 6.741482174773514 6.270065186135483
