6
Energy = -8.70369458 eV
Be 6.980852053004667 9.592872738208445 6.028185819379112
Be 7.190140760701599 7.829774833432898 7.073771587175819
Be 7.832763358073851 5.928908169058828 6.534742988147748
Be 6.24851301691924 4.639435273170004 6.617679522406541
Be 6.6223295315535 6.0375352914040255 8.073475922717938
Be 5.766944649346121 6.613017064324774 6.313687529772348
