6
Energy = -9.30589538 eV
Be 6.704535302279213 6.463334451068377 5.377710256205562
Be 4.8885084710059585 7.292629614714497 5.902273617164049
Be 7.140451996221912 4.723527632185872 6.398532660199438
Be 6.506829555684694 7.9471631149284345 6.825131989333235
Be 7.842695136872776 6.422449219391111 7.120580377003446
Be 5.800920401902482 6.034836831678856 7.259711964061543
