6
Energy = -7.96168738 eV
Be 5.571534564404533 6.824096822049306 7.130359676840884
Be 6.817094678463648 5.363380883781666 6.468462938997665
Be 8.32201040099856 5.847637426695493 5.202841147498096
Be 6.0635538849160495 8.791523988728288 6.873227285588252
Be 5.017427975657027 4.869982344187859 7.26110411939517
Be 7.222732621121626 7.317732660118831 6.078358957241255
