6
Energy = -8.31555063 eV
Be 5.477810961970889 3.42391039172391 6.466811332294964
Be 5.90172443950606 5.404018350468041 5.961631696687858
Be 6.394250004955521 8.36346997871818 7.410421520397516
Be 7.0864056025068125 6.441827627447864 7.283214327152623
Be 6.154299827723632 7.414586219329266 5.625481928468398
Be 8.002841238736233 7.96951950771163 6.269771270397662
