7
Energy = -10.55268756 eV
Be 7.520424539852043 7.090196060194218 5.518957580095447
Be 8.302419308305618 6.523091694346389 7.329939049134767
Be 7.31124706429359 5.173746377324895 6.138152727712077
Be 6.636570662347906 7.741717368691462 7.234773678114288
Be 6.451115228002391 5.811113387163626 7.8609214785140935
Be 5.595761188726376 6.374379334853686 6.013837350181004
Be 3.6858381561167866 6.789131925070566 5.406794283893415
