7
Energy = -11.24717127 eV
Be 7.41045522039557 7.872347859775391 6.6017320121086565
Be 5.951361132738145 6.2335175790554755 6.297793226220065
Be 4.385963361993643 6.271011727260016 7.495782682565917
Be 7.937448177787343 6.207340135883377 7.273684302598797
Be 7.694232296325481 6.3372867938380155 5.1843566172653075
Be 5.874958453485148 5.486721196970777 4.474943211983674
Be 6.23761046713669 7.0838038170788495 8.163737057119725
