7
Energy = -9.82560919 eV
Be 5.811481373287548 9.473055385663965 6.129438071954649
Be 5.706499482038648 7.422693656341383 6.088124439251849
Be 5.767958834786832 3.8278595614050612 7.821129153636434
Be 6.045986772292346 5.831062130054204 7.426412831321243
Be 7.550714929542812 6.3765387401110845 6.033003872967799
Be 7.5264862741896525 4.498382245781459 6.941866427379277
Be 7.362851364796175 8.342387311576593 5.332004234422629
