7
Energy = -10.94837278 eV
Be 6.939068882425016 5.882872791857843 4.571385886781924
Be 5.546753942109184 7.3785614587216415 4.892415398548156
Be 7.8616497590697465 4.970326972595083 6.183324437914183
Be 6.513147728136072 6.508888196736958 6.499883823202677
Be 7.40947134107924 5.584958455518073 8.11167386570528
Be 5.142576962628733 8.028700027900365 6.814850793009646
Be 6.087331384551873 7.145692096669782 8.42646579483824
