7
Energy = -10.62952743 eV
Be 4.632445679591606 6.437137544539294 8.55294976610687
Be 8.013846823210155 6.019996708062508 6.215439954715701
Be 6.25025871881766 6.729453526708175 7.194580007288651
Be 4.620784155427893 5.364658806615611 6.8353994605672295
Be 8.877473572547094 7.8160152145262884 5.891665575158209
Be 6.141292982393232 5.627732326059627 5.474008366931558
Be 6.962308096795307 7.503415902271077 5.334366898014482
