7
Energy = -9.24287848 eV
Be 4.62612180239248 7.1694301452315 5.707633801095303
Be 6.404762006172026 6.408545631995535 6.409616375997111
Be 8.181823147169489 5.705376310469916 5.642671931638992
Be 8.1883342156069 7.105399203761216 7.167723785651123
Be 9.953305987829184 6.40214494904186 6.401264915780885
Be 4.625671441063302 5.643928072123995 7.106436317396723
Be 2.8574318523157 6.402626139924765 6.402103324988794
