7
Energy = -10.85783817 eV
Be 7.181796693897355 5.731465060923993 7.055516190984778
Be 7.807950969958199 7.471165461105559 6.340061003215597
Be 6.552255481110576 5.536118548080807 5.178346488424269
Be 6.20799809310638 7.465732367780705 7.665867448171303
Be 8.526922047038683 5.930441532878405 5.254749135950301
Be 5.154213863724944 5.921810252927845 6.652476695076475
Be 4.163367016245508 7.537770941384701 7.44748720325905
