7
Energy = -11.89699063 eV
Be 5.627508345516029 6.569362793656678 6.354129102036034
Be 6.264652640579244 4.657071960006327 6.889088225087616
Be 4.105184835329346 6.180318378437002 4.983446296822277
Be 5.561409522042319 4.675060648067927 4.928200289778864
Be 5.999651007537453 6.610783363228482 4.29464816624406
Be 4.268568920410369 4.968862044231172 6.577556838403332
Be 7.334262827305876 5.679009495865165 5.482177722189205
