7
Energy = -11.64969935 eV
Be 5.578906314172142 6.456268952341036 4.773178880299226
Be 6.676614451346768 7.911754644234309 5.406839542277984
Be 7.41424334177662 6.036091660696019 5.684959629697607
Be 7.361502528332673 7.253082448292588 7.385788944374495
Be 5.373437682271856 7.13253217176401 6.753000730648394
Be 7.743440742274999 5.301138614642136 7.70914110963304
Be 6.129528042382848 6.186804610587444 8.564764265626678
