8
Energy = -12.9833602 eV
Be 9.148113497595935 7.5909885529099475 4.841439562539299
Be 7.508489064759193 6.926189610628362 5.878639555535081
Be 6.691589606485961 6.647176333563413 7.936824248901074
Be 7.300564020878952 5.1232527368019944 6.663591046341974
Be 6.117770346805647 5.7131272108544575 5.15757677241206
Be 4.746066551974715 7.1846163943818455 8.153948673506493
Be 5.158482123047467 5.491660273970203 7.154300508282476
Be 5.325609816818292 7.319673915255932 6.210364660847705
