8
Energy = -13.75362814 eV
Be 7.8577575087151565 6.9726978975631 7.4579680180128705
Be 8.253814182704119 5.634374420915191 6.059113949394684
Be 7.3484814012127915 7.337546443670265 5.363886296716287
Be 7.272497934439664 5.106489323492662 7.749791872530247
Be 5.316637800318106 7.598375354560529 4.976444606737799
Be 6.03334052810603 5.904940407097558 6.068726114447981
Be 5.8049658256855725 6.519167815044585 8.028087501445533
Be 4.326680627023138 7.059123507883644 6.656890042874065
