8
Energy = -13.46719135 eV
Be 8.43153758522682 4.721675648988686 7.181965536396496
Be 7.415547585326129 6.42525125316472 4.2527663290294955
Be 7.165733014036684 5.909983263979119 6.188048190283105
Be 6.896490999726718 5.686242709798563 8.153119397237832
Be 5.184644349691731 6.183778731138004 6.979867647164257
Be 6.4804360324906165 7.6118123839132465 7.331140066454245
Be 5.854140316637362 7.3582243872948 5.277805628644882
Be 4.600643622834911 8.132205127693354 6.664460710760181
