8
Energy = -12.67446265 eV
Be 6.724306814405342 5.935540214394335 4.6446491997338715
Be 6.772777981206913 5.641635248833339 6.703951018262638
Be 5.9200875602980405 5.824949299499347 8.582200424509036
Be 7.878743277711293 5.552047924368114 8.449491672125635
Be 7.021175518578902 7.667456923902874 5.759073600153349
Be 6.313715467897999 9.137412586139043 7.03396721171354
Be 7.100170452989397 7.407733368204023 7.900838608513112
Be 8.269318399267117 8.83351934983043 6.926123365888158
