8
Energy = -14.43915568 eV
Be 6.101996165104253 5.142670064735988 4.275830473149271
Be 4.82237121376922 3.5946297718114275 4.305161073910122
Be 4.135252819057308 5.425681280756164 4.133272480012365
Be 4.754080558928502 4.775518130198369 5.998976795557185
Be 5.3537465231309245 6.764526063087439 5.5026439282987445
Be 6.821288074328223 5.344793487050757 6.336123399109698
Be 6.952759025598229 7.318715258349794 6.6887010140177505
Be 5.5012985997113 6.280649471539572 7.50725011671693
