8
Energy = -12.70566415 eV
Be 5.317466345564931 7.659999287638648 5.368065165809293
Be 6.8519259575194065 6.1879146531467155 5.542908415717235
Be 5.849308333179244 9.611767156308861 5.406735570040691
Be 6.840792261648414 2.7046081114124987 7.732827436843782
Be 6.950460097497618 8.177074616094398 6.441795341623579
Be 5.711977270319567 6.525361812493238 7.135163685547933
Be 6.73337320478786 4.678654071447983 7.015183629293392
Be 7.7446965294825185 6.454620291457352 7.3573207551237925
