8
Energy = -14.9901833 eV
Be 7.817465885285705 5.990265998656193 7.639260760668326
Be 7.846819482533891 7.356176199101731 5.95574666676738
Be 9.174374215119775 7.746911064143359 7.449746468571756
Be 6.191064782438579 5.93234554272918 6.412984205775378
Be 5.926423241716851 6.346480245084505 8.317375828627014
Be 7.480928162549275 7.919524435248309 8.571994436487799
Be 7.855081952638222 9.126470368045027 6.972396553610023
Be 6.008749678264497 7.882733547539142 6.981402480039633
