8
Energy = -14.60734785 eV
Be 5.613056286807445 7.13301778823654 7.523698198292895
Be 7.682819793736081 6.805045099546602 7.362730923842602
Be 6.923654297044758 8.616776489736761 7.6368359469497245
Be 6.342204428462191 5.1700417507382115 7.1625892228629935
Be 7.385871322082378 5.869384762407007 5.476588882339005
Be 5.318286573696125 6.192712329890815 5.6414878166906774
Be 6.657076545562173 7.830065126055428 5.836700135075143
Be 6.07792472247913 4.3838506232590415 5.360262843817611
