8
Energy = -13.60797369 eV
Be 7.34836377055205 5.475973196627017 4.6321556479117705
Be 7.793648110957993 7.316495790352621 5.43192841225101
Be 5.827108877573072 6.756365754268933 5.539296135447144
Be 7.417061683083801 5.822853724506936 6.778640540483417
Be 5.913210611579762 4.744380338316733 5.9101430669040145
Be 6.684299908064905 7.784138063395789 7.199054204613372
Be 5.423672312608806 6.074148600351921 7.51387715995906
Be 5.3006454474975095 7.733655254097825 8.70291555434811
