8
Energy = -11.87364991 eV
Be 9.389508710128025 9.039817116429353 7.248159992557767
Be 6.293162165550815 9.590214962638706 9.085749878741298
Be 8.089379036152474 7.238469801460518 11.206513521014847
Be 10.39642445453264 7.753445163458087 8.436777085575173
Be 9.818759604916993 6.956516886888517 10.204636775622545
Be 6.515969083486818 8.406301578754919 10.706053395095134
Be 8.294717936238996 8.404586271946195 9.203030482553212
Be 7.57181982882909 9.867886187731811 7.542688606547681
