8
Energy = -12.67372624 eV
Be 3.685558702229017 5.73072142123479 8.362723499768675
Be 8.100946918839535 6.347501798696136 5.846888919010918
Be 9.56087557655258 7.573604511571358 4.96198814490835
Be 5.597970958644871 6.408763647439193 8.084676707699419
Be 7.627842090718329 8.219898069010886 5.20610355873564
Be 6.124836158324102 7.005940816397986 6.122659648534457
Be 6.65775887054006 5.154463925245034 6.8243070139299995
Be 4.6390907944418345 5.553985880694813 6.585532577703145
