8
Energy = -13.23609443 eV
Be 3.831540167295075 7.286111355156109 5.971944047778345
Be 4.868561498567311 5.869799307003289 5.044069613384193
Be 5.874867002444243 7.585683243275347 5.757914761779343
Be 5.306035494358729 6.277758094716258 7.0726510083087
Be 6.86481468638359 5.672163250861079 5.722213091887781
Be 7.358636220617164 6.988895160760945 7.221628373256321
Be 8.651104394943161 5.447405493461727 6.760147964640575
Be 9.093855572225898 6.721599131600549 8.298846175799657
