9
Energy = -14.92751536 eV
Be 5.193530444474939 6.558216994863021 8.979946838883457
Be 7.500565460820142 6.425023263573033 4.386090521740646
Be 7.214357227011592 6.522537956122495 8.550747076553757
Be 4.335360602234355 6.443357896899673 7.103839435428259
Be 5.769260313568985 6.335926253220138 5.52546792704506
Be 8.516745204442435 6.630379532800199 2.558120188946067
Be 6.03272615756156 7.57328475411399 7.25064874351676
Be 7.628879488928536 6.3970428047771675 6.458238632329428
Be 6.022882671562492 5.328538114235729 7.401208206162015
