9
Energy = -17.5591746 eV
Be 8.178840344101587 7.958902929995523 5.284918374058844
Be 7.477917724281188 6.069943831624533 5.064701863603558
Be 5.489408409898163 5.735657734653023 5.500695791951184
Be 6.180238230106956 7.6780852439440075 5.222063086542191
Be 4.906359718990516 5.08471191918069 7.397003235725813
Be 5.173173408646014 7.093326743878219 7.062323141929977
Be 6.867480113651756 4.986236839933306 6.832554414611641
Be 7.282985285471692 7.110495626989221 6.925196101114107
Be 6.231680741104613 6.0707231060538485 8.498627966715285
