9
Energy = -15.41536794 eV
Be 9.329704208995327 4.884032090144931 8.08817594995008
Be 7.367277071210564 5.291949755880903 7.612408019791635
Be 5.478551572301349 5.934296149589622 6.860635283578529
Be 7.218900879807876 6.137647612832087 5.643592486354795
Be 8.951239445032826 6.4360270563800315 6.839273460111816
Be 5.573515960131102 7.5356321811675375 5.543272979339496
Be 7.053676513093108 7.3595257292966 7.1020527962142035
Be 3.711345293749547 6.646450156623604 6.043326854864445
Be 3.812068001606333 8.270718214012323 4.763541115722511
