9
Energy = -16.37150057 eV
Be 5.411558583685158 5.0751283810842125 5.44688953178939
Be 7.047106629665997 7.891091263692317 7.321775778657377
Be 4.406508574061288 6.832480971564164 5.181859058763826
Be 5.268079633355205 8.240961978025567 6.34403192227317
Be 6.329951144181144 5.866797400300531 7.319080751195595
Be 8.352614465642125 6.3360162594628635 6.824611891354359
Be 6.5210701028081495 6.855509726032561 5.484170724995164
Be 7.783062931373181 6.56807377288595 8.707390447316412
Be 7.381924003598195 4.835816315322753 5.872065962025025
