9
Energy = -14.63835255 eV
Be 5.854564918620252 8.090102592434341 8.090102592434341
Be 6.694886795709668 8.090102592434341 6.3399228948717035
Be 6.694886795709668 8.090102592434341 9.840282289996747
Be 8.587891907751661 8.090102592434341 5.90748223873611
Be 8.587891907751661 8.090102592434341 10.272722946132342
Be 10.104938932506254 8.090102592434341 7.119540816080234
Be 10.104938932506254 8.090102592434341 9.060664368788215
Be 8.090461570676185 9.129928167598969 8.090102592434341
Be 8.090461570676185 7.050277017269484 8.090102592434341
