9
Energy = -17.13654669 eV
Be 5.92563977375341 5.207247958302076 4.094318209875699
Be 6.51155309966537 6.940780096419052 5.168132559742528
Be 7.347440043943914 5.042507814246221 5.6242049723004595
Be 6.477812358320029 3.382230725589016 4.864613375008736
Be 6.304285196069472 6.137987443277441 7.150074063824529
Be 5.169391371607612 7.759911631154771 6.5112174162950245
Be 4.4463163996160775 6.436363671820592 5.0767048350373045
Be 5.231541281643316 4.620406187048428 6.004910437910971
Be 4.196954766631967 6.118695846192251 7.162193418115684
