9
Energy = -14.0637221 eV
Be 5.597827446008617 8.997932529150322 6.764372109434524
Be 10.922476193094244 5.600058894585153 7.318451933272425
Be 7.355742351115296 7.826901586852175 6.93331647995944
Be 9.129218348731207 6.725992246379551 7.128214113040958
Be 4.704966146236027 9.747032179452093 8.445786691282569
Be 10.150433789943426 6.632512925099408 8.930850536855399
Be 6.651158916358269 8.966524492436495 8.518464257822876
Be 8.210142347340698 7.520574082934022 8.752024153906971
Be 11.713768703887492 5.2454638728234775 9.161700887167777
