9
Energy = -16.00175041 eV
Be 9.44025400300939 6.881188940967311 6.95964940308664
Be 7.67686226135557 7.804205332274853 6.8215901855685255
Be 5.9030036238924275 6.802246042021671 7.477975324026441
Be 6.196880996777494 7.073784174624155 5.460028182587094
Be 4.516423438627325 6.1580092851886885 6.144284199610753
Be 2.475440022666573 6.504398158913136 6.13591971080029
Be 7.841138525383528 5.9026453008347755 7.644472703399855
Be 6.327157834596007 5.221890717254864 6.265901073670356
Be 8.145575903821726 6.174368658050877 5.612915827380226
