9
Energy = -16.06929358 eV
Be 5.8727119139364845 6.28939219425392 6.925368751483544
Be 8.640188487428839 6.065520994462105 6.898381663304879
Be 7.144170676478944 4.8622020232238405 7.657206487719834
Be 7.298477811409125 6.904010560331369 8.406248839744364
Be 7.1596879651971825 5.246680923896197 5.712391774095197
Be 7.323048897436561 7.418236180055033 5.795886797039004
Be 8.425734623601485 8.188758888849554 7.320297490261483
Be 6.437242886492531 8.438336649990358 7.349351852011148
Be 5.2159999263406 10.10412477325937 7.452129532662568
