14
Energy = -49.1881908 eV
Bi 10.449344314324973 7.803280112323289 6.22547830287708
Bi 7.7616319185790195 6.7684600614726875 8.198360868381267
Bi 9.483636104004145 9.900015473324112 4.39675620531703
Bi 6.325555726233653 9.627809173174848 8.33046112339331
Bi 6.66874440955308 5.969063045335329 10.981711329423636
Bi 4.454181032984912 8.17844429112741 10.149803020857785
Bi 8.468351994523408 7.9301558672728385 2.377518836844726
Bi 9.007686322974747 5.80646698951901 4.49628818444368
Bi 7.6354156143232 3.519209934792348 7.187632316711607
Bi 6.788884395567792 7.911540782190307 5.0148616250077644
Bi 7.347188084510483 3.222828042422202 10.064857240566319
Bi 3.5732122582175645 8.826604883300837 7.29634612560674
Bi 5.1422039541767415 5.293716288527137 7.5831138297910545
Bi 3.95455872768101 6.6392703829849555 5.186391371016737
