18
Energy = -65.78121225 eV
Bi 3.0396577081365854 4.89600566239282 7.317061064845924
Bi 1.7513485716234882 5.513252936724443 9.981270060674055
Bi 3.601922461558093 3.377662894620779 11.096588394294466
Bi 5.538046344258288 3.831068234559315 8.662708292701
Bi 3.633698994527838 7.732440769859508 6.474604575488221
Bi 5.67608191820388 7.007712058917743 4.357794535201331
Bi 4.013606502450565 6.28561092573523 11.850145797562933
Bi 6.497740939284051 6.325834892567092 10.102127084216017
Bi 5.300231735829711 8.766714729469292 8.776672715630728
Bi 7.579285096713429 5.525391607857608 6.176569356628188
Bi 6.638773343030046 9.837671866134249 4.444168803503808
Bi 9.31246941119107 4.421768091940161 3.9356203660374915
Bi 7.685666464827897 9.99391839280541 7.28364453515752
Bi 9.402682422292612 6.540829831165527 1.7996301225588793
Bi 9.282650660873578 9.353208448387992 3.0156384816672697
Bi 9.432181121792077 7.544751152934196 7.403588406318322
Bi 11.806928044840346 6.072876279438656 3.6584404582988403
Bi 11.212073175976208 8.628686775661743 5.2295284973124465
