10
Energy = -32.81289077 eV
Bi 5.685745065431857 3.9172296231869206 5.410780697070607
Bi 5.897243215464727 6.978731326918411 4.513339288639205
Bi 8.437527290752175 5.727755152411657 5.556935583893714
Bi 6.275147872312593 6.1375964069745805 7.654884573129905
Bi 10.391556303908635 8.115800909424015 5.762195035733657
Bi 8.731920665101967 10.285837703988435 6.944682563730573
Bi 6.987780778748969 4.614790222911172 10.336631816707666
Bi 6.000253165506201 9.845410721041514 5.724050186971092
Bi 6.502664278299839 9.217367735603565 8.714570823699454
Bi 7.176068948728732 7.204979197310686 11.260693794048372
