16
Energy = -57.55339899 eV
Bi 6.188276281438578 8.607038855029803 11.675156865928878
Bi 5.802914613400702 9.223206735541751 6.933314244623002
Bi 2.3262328483995027 6.650338857877804 6.284133860634214
Bi 9.565135001936838 4.569907847410375 8.227224855629244
Bi 3.9569975372109893 7.710969783434434 8.729406219479252
Bi 10.909902298234064 8.444373485716747 6.255544906755557
Bi 6.884108700057022 6.599672442886134 5.564782755855424
Bi 8.620325691892106 7.467643868687729 8.349686179292458
Bi 3.1822639474218124 9.271312236539597 5.097282552947744
Bi 6.12884641000582 5.8651877554748015 9.836158663597052
Bi 6.4117983295746726 10.793929691865683 9.720838848617378
Bi 6.673045987139702 4.181030499453382 7.322973972571268
Bi 4.220280880247538 6.667033685299393 3.952630187647426
Bi 8.903607257293135 9.428843148908479 10.752591499519669
Bi 9.523688558951301 7.134845570447439 3.980501337842563
Bi 11.253276860210407 5.468950501170772 5.781626719948238
