19
Energy = -67.36265842 eV
Bi 10.387472900803623 12.247951180014322 6.192828820854117
Bi 6.062576595437124 5.8159199208181604 5.923323291076915
Bi 7.239867232494875 5.036437692263976 10.995146475129962
Bi 8.971376063745183 6.6973035500949125 4.85447707745126
Bi 4.452851416322601 6.035313351690282 12.037867214267091
Bi 10.02262709054452 7.082113693767218 9.779436774922276
Bi 6.6333027883985745 3.85479600544193 8.209517099165593
Bi 9.554304370571556 5.188564816324166 7.536592170402277
Bi 5.051762514571999 8.702913918100297 6.400752499758733
Bi 10.890678675745539 10.458076260115318 3.897998887699167
Bi 7.9897454290097585 9.542287844409836 4.169515265044462
Bi 3.7069402976572463 5.839034125709202 9.068714984340309
Bi 12.424357007056608 6.148296408927595 8.206841901190801
Bi 6.218954192100942 7.4839753246736676 9.304119408367688
Bi 7.496149723480593 10.87740981989458 6.83609013132129
Bi 4.525729888126447 9.066561332215521 11.312026070191987
Bi 2.9124277959921008 8.817483543672502 8.687874114705334
Bi 9.917472256965722 10.05506147943674 8.447212851049454
Bi 11.25926550067438 8.349252643623753 6.28869506762397
