13
Energy = -47.03253618 eV
Bi 7.623854165582983 6.210395064959198 3.652386240316848
Bi 9.859652198519997 3.346063316105929 6.018234557876357
Bi 7.630880863971754 3.1545677132102545 3.9180105853464804
Bi 9.839498348062861 6.400879859285126 5.745523027833476
Bi 7.78430826642244 9.738767347446956 7.706479762374245
Bi 5.586598923008995 9.586615899410976 5.592854656755655
Bi 8.484169351649749 6.903194366044998 8.36885248582396
Bi 5.055950122080496 6.675829978468342 5.124163669519316
Bi 5.6693188551215625 10.05256047548593 9.90306735097742
Bi 7.026241378121587 2.7761457391017887 6.83317812576601
Bi 5.847365626571952 5.595553916468545 7.8057337895625
Bi 3.460051497282992 9.897438169289435 7.779650991257246
Bi 4.040059443216777 7.553714138122969 9.565791587133354
