15
Energy = -52.5055826 eV
Bi 7.7198102294841755 4.1900025929805995 2.2802472973040024
Bi 3.152963187494448 2.6172164672977236 6.365216988443462
Bi 7.124799428703704 4.152382621356723 8.581169648492661
Bi 4.5667812022225105 5.682307441027916 3.591359407736895
Bi 7.108842997961421 4.898933649585707 5.497303263941971
Bi 4.3346235249917395 5.361019045014081 7.370347149493499
Bi 7.107635255941343 7.390691172692572 8.66445113990975
Bi 3.729608968346111 8.290551351014136 5.3049540402872655
Bi 7.259312190870008 7.279532374291819 2.570203656967525
Bi 4.5055237552594285 8.36062559307577 2.132699890545327
Bi 6.701516999373712 8.327397699202386 5.6777616099548185
Bi 4.318660372757997 8.299296714757359 8.61894001260951
Bi 4.397189734800977 2.8788989151742497 9.153779407804711
Bi 5.727889342419667 2.128408754682799 4.902120472356339
Bi 5.015417878971934 2.9133106774456112 2.060021083751322
