16
Energy = -58.39415262 eV
Bi 9.2512138950079 8.246936499760059 8.136240710994601
Bi 6.575334707975122 8.279242807956303 9.593207852190641
Bi 8.971202895877044 4.534236729107544 10.75849275021287
Bi 6.089770074420684 5.4144079571211305 10.433748662828426
Bi 10.144181560272864 5.359996305866426 8.092352812088365
Bi 8.60729564383853 8.74628174361193 5.217677275665752
Bi 8.006519711075752 2.0663526306127444 9.159842696270458
Bi 6.336222737002227 10.54221796665113 6.009969045995142
Bi 5.624295208055404 3.63135186088913 8.029677103667114
Bi 8.250021375079971 3.60021263996325 6.513344477891826
Bi 4.475108575320239 8.677766354756189 7.4497319998006715
Bi 7.159033082566197 6.313031700443696 4.219676026553183
Bi 4.882651463447918 10.437004595130233 3.3486966947984076
Bi 5.88721052539307 7.9574520531043476 1.9461160664897925
Bi 4.516261453770861 6.262776276132101 5.665038031981056
Bi 3.2139990172619504 7.921053805259529 3.416509718937424
