10
Energy = -35.16549728 eV
Bi 8.29155372064981 9.209012284312594 4.923904437466602
Bi 7.658060998211677 9.955821022104466 7.808938355358035
Bi 8.180386848624089 6.257116841769803 5.910042843121023
Bi 5.436621669953405 9.666266748696378 5.8142772040445205
Bi 8.903608397597914 3.355497785721822 6.267583943049036
Bi 5.58501077120895 5.2514151380686505 4.887248743431464
Bi 3.923431725225395 7.133264133145281 6.613081892549528
Bi 7.971642593857959 7.070606762396403 8.83171577545858
Bi 6.128483531729596 3.442995760543871 7.240503080894148
Bi 5.239939387832142 6.022401087000285 9.105568504021218
