15
Energy = -52.90153328 eV
Bi 8.211905323397147 8.560007549365253 10.375899627040987
Bi 8.718219143200233 4.704371957055709 9.993667774618949
Bi 8.471022857995381 1.7480555441329912 9.354411377707203
Bi 8.544732693262782 8.30673655631458 7.20927361069781
Bi 9.070651764919152 3.7480901098814243 7.165032953044046
Bi 7.824589928538254 11.226971251003407 9.346930064492003
Bi 6.339136734997216 3.6961889403134958 8.451087120107049
Bi 8.475892206792647 6.417385430327058 4.650998995325232
Bi 5.752951131544317 5.143060922454697 4.239565717216682
Bi 5.740931912933515 8.193636341463002 8.440571864098482
Bi 7.575542983992434 9.058915296927172 3.6031585907151547
Bi 6.443769991369095 10.486819324021063 6.462371562300279
Bi 4.979520959960131 7.745269232323332 2.7291869524002204
Bi 4.1307180076547265 6.180235550965933 6.5914633936992235
Bi 3.7309038240263743 8.82078229601663 5.287587573689509
