11
Energy = -38.59866756 eV
Bi 8.881140464930416 7.08898116573042 10.95460434520857
Bi 6.841193961504951 10.481574761897088 5.726398518191547
Bi 10.41816512614718 9.235209739435748 9.49298876888816
Bi 10.652843075364984 6.323134589305708 8.715762032903783
Bi 7.7281488232995414 10.358822283976517 8.544627326524381
Bi 6.799294619409218 7.363613648545346 8.50198328345814
Bi 8.569769021676299 5.890213407357136 6.421497226505506
Bi 4.590034475157739 8.366184348255803 6.334221589398107
Bi 6.771165901831877 7.690093598873975 4.410683315477412
Bi 6.350266697145424 4.247336731007135 7.722125145348048
Bi 4.854649175601391 5.251216522251669 5.422881502206491
