14
Energy = -50.50661929 eV
Bi 4.466381677643328 9.35419222741855 9.553138673649219
Bi 3.5142013066942144 6.572626720425307 8.915283684571081
Bi 5.7840877937557496 4.803443695249361 9.814503450599208
Bi 7.943910137535563 6.5746374355792865 10.916084934095757
Bi 3.9465071991368235 10.016651028141284 6.594390777978889
Bi 7.467449258851917 9.279637649993735 9.5799798741251
Bi 3.5149215995213017 7.059891104410903 5.905436888675875
Bi 8.325403548768792 7.957443837658673 6.986209178820625
Bi 6.03850421069047 8.446973698183363 5.074704315631105
Bi 8.26842438859837 5.171116703343495 8.157074486228716
Bi 7.4461436294484455 4.515946123887529 4.476214494475544
Bi 8.213192129609823 5.777838065712859 1.8396848594697173
Bi 10.13127439806288 5.875951735450755 4.152715423876984
Bi 9.584611199558305 3.2563504546971993 2.74799882523585
