18
Energy = -63.38719393 eV
Bi 10.46575545516892 10.805752188852265 7.497756862210618
Bi 10.952982772861914 8.9191077131864 5.173454872894476
Bi 10.388316275815965 8.476098405912314 9.33944677335477
Bi 9.117398478662388 7.163780289190503 6.876469421080794
Bi 9.875857969025446 4.223568587116481 6.422848154186254
Bi 7.662287745646461 10.486109676501162 9.667191614833225
Bi 6.353488766922897 9.339155703430444 7.084262405816618
Bi 6.985995563920386 3.310630233154502 6.179233103722745
Bi 8.603513214037019 4.536746932952344 3.674809770678374
Bi 4.987614169060918 3.755367567889283 8.842455666200802
Bi 8.216198085360741 9.744806808326013 4.240846179567738
Bi 5.769111844759354 6.151536933317938 5.9560183377229095
Bi 7.844192190762974 8.047013647643851 11.566260930191167
Bi 5.301214564036737 9.612610522574892 11.514022448521011
Bi 7.089237659876685 7.112456733370112 3.2401255588229554
Bi 3.8141619625211485 8.553917082075627 8.963445512654758
Bi 6.1375081897899 6.569205748013852 9.272499379573146
Bi 3.1529811900804914 5.70431956374915 7.552273129216807
