16
Energy = -39.06725907 eV
Bi 5.2803517742244335 10.877279260857888 8.640794342523582
Bi 4.663049002681973 8.390393686705062 8.489642303179066
Bi 6.591807458171762 9.079849422923944 6.410690296224095
Bi 7.864884186097805 10.825691565289311 8.27329830405798
Bi 5.101719693820639 6.40083007768078 10.226339300271832
Bi 7.170315376317912 8.509834136657387 9.410755020903823
Bi 5.900343295771974 6.515920562800826 7.068116839111205
Bi 9.831248590273857 9.244867698730841 9.035569789584901
Bi 9.707383412785632 6.952950056237251 10.206357693537157
Bi 7.53615397864607 5.81269166091578 9.183652001956474
Bi 11.71341375891526 10.463181086535956 7.163635035038144
Bi 9.212501219969893 9.815176494047792 6.112763815583345
Bi 8.516441993499477 7.547329830326618 7.2097235618289135
Bi 11.183133414803718 7.754938703485763 6.796325090117758
Bi 10.111854643592444 5.484543333295956 7.741186198135701
Bi 7.881550493879945 4.884006963942153 6.499899766314489
