16
Energy = -58.145799 eV
Bi 4.218215817749643 6.887387414874677 3.5056274975274118
Bi 4.738598396268064 9.578988545149473 2.2782210924269157
Bi 6.906314755400498 5.59504294576431 3.331912493460266
Bi 8.814988211499873 7.7057958936610795 4.244108248844855
Bi 4.391525894574453 9.283644230906983 5.31569017587851
Bi 6.099199409309046 3.83705121568764 5.691903087835116
Bi 7.765944976965349 9.997402199081508 2.552905273218448
Bi 8.466791550332138 3.5338887273765303 7.608080818715992
Bi 7.353764022059187 9.935868482011571 5.609904774352067
Bi 5.990916698495193 3.311573192774795 9.335927884600952
Bi 9.203235062958539 6.41007562830702 8.042287332954878
Bi 4.596989338388397 5.5116064425933216 7.766245303425385
Bi 6.513214800378225 7.768711197427901 8.28390441770333
Bi 9.349039516489984 6.265794299571643 11.121766153489231
Bi 6.893697483028529 4.6879925127529765 11.88684452852058
Bi 6.643295301200972 7.6349083071563495 11.370402152143367
