12
Energy = -43.35661855 eV
Bi 8.935052684453339 8.83467005519188 10.308598439185976
Bi 6.153528992094705 7.706476053551003 9.867641560974944
Bi 8.546424126629574 5.841431409291948 10.02530808767125
Bi 7.404510262949042 9.473201265527793 7.757681815707216
Bi 9.072157508462608 5.13495874969556 7.139836451202941
Bi 4.177279610201461 6.252850949352456 7.079453746934287
Bi 4.533832932908968 8.320395169202946 4.9164262459212305
Bi 6.275826504635675 4.114365656140574 6.644673941985385
Bi 9.104085093299673 7.841019225465336 5.868319986146629
Bi 3.43950728440609 5.571769608857207 4.164801606105549
Bi 6.298496244799011 4.518113171641227 3.6567138585214476
Bi 7.103091604659255 7.461910349327905 3.5868324375690723
