14
Energy = -50.79268235 eV
Bi 7.406895254210385 4.775532775623082 9.337921626758046
Bi 4.767574494123571 3.9476446259793088 8.097065560928028
Bi 3.665316376451606 5.055909019919018 10.772055710347729
Bi 9.17518381881724 6.488443560702153 7.538310825094766
Bi 6.101968975184359 6.865769472821373 11.072968296065154
Bi 9.053429923049542 4.951212081379622 4.980190324271147
Bi 3.392370662886802 6.411124231389578 7.0077325219843845
Bi 6.518316314647693 5.822915492723814 3.5338621061244493
Bi 5.2168708377980275 7.988948129774618 5.134867623080034
Bi 10.634506686319517 7.183015351190159 3.628783751792102
Bi 3.644320636004893 7.8838233095433985 9.62935935804891
Bi 7.450679726971096 8.859486277048608 6.924309654605934
Bi 8.092639609370915 8.047008672052533 2.159164857094859
Bi 9.125164376139605 9.65401931318017 4.519419024590794
