18
Energy = -64.3986535 eV
Bi 8.207906969700185 6.817132175932849 5.618437712173098
Bi 11.899380446968326 6.567918884069178 8.779630117748086
Bi 6.676924942416693 9.006923991630261 7.597896277436138
Bi 8.8739596880979 5.513493760716275 8.765908548438595
Bi 7.1455319777490525 11.206836331790262 5.478781952807457
Bi 6.101354588258128 4.027162252487512 7.866110214057959
Bi 8.700288494916414 12.890484518868602 7.925938832844344
Bi 4.955585771509636 6.018089857912692 9.766130359062902
Bi 5.2703394622687085 5.812011697331748 5.538131770079573
Bi 8.452358964347788 9.075163637907178 3.6552863633288117
Bi 10.909540980678226 7.454138273417825 11.43199972684325
Bi 9.952396247049869 11.044981257327052 9.940243854410046
Bi 3.8745266810671954 7.745807445763451 7.4528348056017135
Bi 10.224489879964986 10.85582844859987 5.380291383962376
Bi 10.087986330724389 8.819507144370112 7.738210410481527
Bi 7.708644788666094 7.582810936308451 10.731067964161262
Bi 6.958808550061257 11.361437266229235 9.805885000178893
Bi 9.06008365346728 5.072277535744399 11.820251439490837
