16
Energy = -58.04227665 eV
Bi 10.13501426111666 3.4807791529408862 5.871746821156749
Bi 10.936912543213136 6.173597703338771 6.923464849231571
Bi 9.308796811495219 2.1333675729829937 8.454743325919011
Bi 9.377385537424363 6.3756172027466125 9.499462952278696
Bi 7.1970991816860135 3.0198271335729734 6.424751548059591
Bi 9.487442094600732 8.526077011309809 5.5847409444876455
Bi 7.242040881711792 4.275143860230794 9.187812312361352
Bi 8.642475540480097 9.181296243489454 8.466361403828508
Bi 4.486788322768425 6.647052795353722 8.084431663061244
Bi 5.269816477529471 5.7408420421229955 5.312862868017181
Bi 6.912296059994524 7.948271757688334 4.117416274200276
Bi 5.615818199041812 9.40677128939615 8.371487901743253
Bi 5.742351284397995 10.33370404681145 5.523623961355122
Bi 2.6655837771042052 6.8846853806565065 4.113631399495277
Bi 1.8778444163118675 7.788499155184636 6.915615539105865
Bi 2.824733345906629 9.806866386957477 4.870244970481451
