16
Energy = -57.02400037 eV
Bi 8.49037385587161 6.496297849199416 10.768608517627557
Bi 8.842349561883173 6.881258337502571 3.4311778705374216
Bi 4.630994475422496 6.5388796419138195 5.418962333559661
Bi 9.3975017355234 9.39016166334249 5.055845385578846
Bi 8.829090725928085 4.512799525432662 5.354700522106798
Bi 5.872021137086928 7.8974237625785735 10.555196865337322
Bi 8.403044730004005 11.658558475259134 8.309463738371608
Bi 5.891735238725934 3.7830244272864255 5.567729222846536
Bi 9.582883877633858 9.241035087054888 11.673085368834236
Bi 7.664576136989259 4.376352151613025 8.153583477603508
Bi 4.9551533351861075 5.767292002128774 8.263823265009545
Bi 6.552896249402887 8.684505730264947 4.133700779039872
Bi 9.5560574173747 7.615644688487754 7.701034940972751
Bi 7.039847648576225 10.760252637004495 10.905780251694301
Bi 10.91071254331937 10.068155724548676 9.010171081767568
Bi 6.910660235678493 9.083187198589398 7.514188108620928
