10
Energy = -35.64497321 eV
Bi 5.456085250035268 9.748971601408936 7.323991591803653
Bi 4.511774580620823 8.169996416514865 4.948025942378586
Bi 3.025207645554995 7.930517480087046 7.60051677663556
Bi 9.537097894026308 7.428380433406108 8.176428643973466
Bi 6.723478637910885 7.758363934504545 9.208770997801073
Bi 10.072963968132257 4.710431501148626 6.933969864889982
Bi 4.825910033563103 5.5543877458517485 8.453625016147196
Bi 9.91253292870502 7.126874915492517 5.172182327827062
Bi 8.028583338211662 4.800778040686836 4.681138598058601
Bi 5.15345665153913 5.2641510547401476 5.4902941645012
