14
Energy = -50.50383916 eV
Bi 11.392407542244342 6.354365915422321 5.302294905496018
Bi 10.26890621916855 8.511363398886694 3.4810891620424087
Bi 9.790073464810792 5.587398240760849 2.8260458242892152
Bi 8.95059107345684 5.680312256585634 7.045649912657904
Bi 8.613403015983728 8.684227852213466 7.393173288816848
Bi 7.425868227261421 8.762930323369659 4.5941321823902435
Bi 7.1924853673232425 5.711490731594758 4.540970667879237
Bi 5.436690775340831 4.121975423468067 8.490564207010104
Bi 5.961608689692711 8.96015853227978 8.946217272239938
Bi 6.201770097944858 6.342078756226096 10.368185594436353
Bi 3.912954304452185 5.43885745833216 6.183650334647656
Bi 3.993937346965013 8.385901722723933 6.759389914829574
Bi 3.3962143225994597 5.282764449891378 10.454550450592263
Bi 1.921190811113815 6.713126072292496 8.157421668628842
