14
Energy = -49.20295243 eV
Bi 9.195732190609222 4.22885319758559 8.769791051481706
Bi 6.914735438736161 2.492944506377142 7.965061056917436
Bi 10.161067854052275 9.342930317263702 7.132187106574117
Bi 8.201478556383734 4.280303703734878 5.91664327015983
Bi 8.686107946212188 10.777763928242578 4.993853453848964
Bi 7.295567613247735 6.455639607554992 10.125224398671001
Bi 5.794770147572275 5.4305294719979065 7.549583211303985
Bi 8.835956700704823 7.773604190669393 4.893915009785739
Bi 7.722888546084667 9.271066403288296 9.198621008630418
Bi 5.665336842064241 7.574425579586342 3.469694789020316
Bi 5.122635219554497 5.009282093117457 4.35978771520642
Bi 6.395040180074924 8.979754349166319 6.346197346671419
Bi 3.605552853929675 7.754633578837579 7.39530940471352
Bi 4.718204525891334 8.380749628016876 9.952947548221848
