16
Energy = -39.79201043 eV
Bi 9.53205389591943 5.561078548381708 8.90654363940081
Bi 10.26854158587899 7.826077391038669 10.154237355753787
Bi 7.176035624870044 5.9941766310266775 7.69124111757593
Bi 7.499814090836636 7.255158798785031 10.205594892757698
Bi 5.51137426642081 9.211803156375844 11.229256771044595
Bi 10.51284139124358 6.931743171582948 6.659231382215071
Bi 10.53056291210374 9.274139253440332 4.88441069922974
Bi 5.075598793570752 7.683222527435483 9.116183906911498
Bi 8.123804678504957 9.488651552802258 11.568769791536836
Bi 8.664243099683983 8.185802403226761 8.047676896509014
Bi 8.256537718861367 7.6214812649210835 5.337922733734408
Bi 9.50802614559368 10.475124182289889 9.468908780313221
Bi 6.932334492825453 10.111972502769808 8.804057370415103
Bi 11.16677244291773 9.36370926566415 7.653737050890406
Bi 6.1550675919024815 8.497527662881403 6.791615421560504
Bi 8.531222691188107 10.399578150824317 6.546875178473636
