12
Energy = -42.05990817 eV
Bi 8.993502 5.918550997126414 8.061843086257829
Bi 5.918550997126414 7.420928715670074 7.4211199496943685
Bi 8.992978281064435 8.06103806026423 5.918550997126414
Bi 2.844123713188391 3.7760639339885937 5.918550997126414
Bi 8.992978281064435 3.7760639339885937 5.918550997126414
Bi 5.918550997126414 4.416173278582752 4.415982044558459
Bi 2.8435999942528274 5.918550997126414 3.7752589079949996
Bi 2.844123713188391 8.06103806026423 5.918550997126414
Bi 8.993502 5.918550997126414 3.7752589079949996
Bi 5.918550997126414 7.420928715670074 4.415982044558459
Bi 5.918550997126414 4.416173278582752 7.4211199496943685
Bi 2.8435999942528274 5.918550997126414 8.061843086257829
