11
Energy = -38.03355674 eV
Bi 5.506109189581492 5.826956385376272 4.386203222440469
Bi 4.938423257318711 8.35330310301509 5.9661184171229955
Bi 9.440562591636267 10.502206529506045 7.806459595712829
Bi 7.4051932615884795 8.164525368800987 4.292210408135248
Bi 9.697774871414383 7.8183884187749175 6.4027458175767595
Bi 6.527555667665576 10.71106875038438 7.952843215574159
Bi 7.216848104566855 5.4718579189776095 7.110454797794404
Bi 8.995593332241535 7.758080848505495 9.427631204650561
Bi 5.931972152411241 7.74967461699922 8.973735941359191
Bi 6.564737665920125 4.591155309614937 9.976509281335591
Bi 9.387827089098785 4.60797364435064 9.18444794264201
