14
Energy = -50.4937611 eV
Bi 11.01632375407663 8.41593912800187 7.848302417709796
Bi 10.526181481875351 5.959881473643318 6.1839208492445845
Bi 12.061537537350555 8.294431104514409 5.02314928027403
Bi 7.424316647184172 6.364251949663201 9.303293954812467
Bi 9.085020863961375 8.520429178534837 5.537162781923526
Bi 6.886850760840517 4.2469240323190105 7.225420641509537
Bi 6.449732030416137 9.044481540755422 8.43394536689395
Bi 4.768609378442552 7.327818898464969 10.37947948540228
Bi 3.889371734016458 3.9519147919308373 7.2668163508413794
Bi 6.881369762378577 5.262907704480249 4.363565270479033
Bi 4.073498305354325 8.730721834058986 6.537985719665677
Bi 2.772434228214539 6.584007167403422 8.178374693173703
Bi 3.8875931999182365 4.448998659299808 4.248981150009253
Bi 4.745939827127634 7.321277177264673 3.9653767992388613
