16
Energy = -57.33730887 eV
Bi 11.792904110913918 8.258573630158496 9.382621679803197
Bi 6.622376099674236 11.190263356666554 6.275771022952543
Bi 7.380792909654675 3.303219966026226 7.826423164060213
Bi 5.307509887606355 4.593567815132368 5.928880411831675
Bi 9.504170465068867 12.00061858154858 8.826870136985297
Bi 7.326828204518203 9.939238342684586 9.328127927779654
Bi 9.358039489877717 5.698142579527719 7.717826067779381
Bi 7.64274731586284 6.358871189583008 5.063138486895236
Bi 5.792561451353399 7.287509223656198 7.300051855047386
Bi 8.741116093488808 9.030841101075598 12.130921909581302
Bi 9.533197976926786 9.302772274691566 7.409165097763805
Bi 4.135830078278515 9.503399075277867 5.838859364803206
Bi 11.101673465176507 10.650781041224894 11.140370423352012
Bi 7.260106847014786 5.671999448643328 9.794221900920679
Bi 10.105925583434669 6.537328954606266 11.221832702066868
Bi 6.476880346748176 9.16668592583252 4.0525608455186735
