14
Energy = -50.73142865 eV
Bi 9.77385306163438 7.517829983557689 3.7776810040715967
Bi 8.229552379768693 5.1071796404906 4.789300100403312
Bi 10.311748668796378 9.38095203669618 6.106808184165458
Bi 8.022594862792852 9.979046322423722 4.209820754375076
Bi 9.106824761615009 5.22611395898327 7.6576543700145905
Bi 5.591722539868452 6.359116812513115 4.142397357159146
Bi 9.098619215196583 8.081757394505832 8.565059937791245
Bi 5.429109458738651 9.032820708032647 5.471943744306859
Bi 3.5526998567605936 4.678864107967384 5.607383930903237
Bi 4.558447771793548 3.096179574609241 7.9574674375471925
Bi 6.320507847656358 9.18048304168152 8.333168221724463
Bi 6.830450336151192 4.4435801275321705 9.48691283242873
Bi 5.0833422340298675 6.920046369851507 9.912317588976892
Bi 2.808516552200107 5.581874247453559 8.378015883029638
