15
Energy = -50.90632834 eV
Bi 11.128238714389818 8.328897188531384 8.117872519581473
Bi 9.620203192650814 5.5919178134726915 8.310119117034459
Bi 8.739946556464275 7.921803684568169 6.244583121968721
Bi 9.646638218920428 2.4354304986769795 7.290987689254508
Bi 6.948526059814308 9.536474345763606 3.9320800612768383
Bi 8.28203599389277 8.47666535490322 9.163670603151333
Bi 8.744774954870406 4.556491586820062 5.415410903870442
Bi 6.631421275117972 3.0462148237772193 7.0765638971870946
Bi 6.048865060408951 5.285327279719431 9.092783925325488
Bi 5.375506623010842 6.598979259604645 6.328015011708226
Bi 4.8948782464624365 9.361127484903232 8.718111190491065
Bi 4.294787527945001 9.341867731587305 5.31839341062177
Bi 5.440397450253621 7.200547480892629 3.1118635816182394
Bi 3.5191414174156535 4.521823862886414 7.528907066698005
Bi 3.6873700290749087 11.625703639083275 7.749905452016909
