15
Energy = -52.4486926 eV
Bi 10.650688579132048 6.323884404500235 8.54833077819413
Bi 11.711432855475906 9.364485490512035 8.008675262068772
Bi 8.868816951549071 3.6873506009477843 9.120153557547969
Bi 8.053981647688667 6.421075938351038 10.09223670865523
Bi 9.075166952089537 10.559250411951568 6.993388322967391
Bi 10.423556245860633 7.751559615865106 5.865927949224841
Bi 8.154358015047494 10.092549245414286 9.755130264304828
Bi 5.384015030055422 10.778907420119436 8.944260067457652
Bi 7.173285925277548 8.249991190210716 5.633477179162197
Bi 5.712491259846997 7.4454047037583635 8.103903532297608
Bi 5.968963144045959 4.88132076718598 4.12289647263099
Bi 6.58412632589579 4.509397595856212 7.201990301880663
Bi 5.028255437166246 10.427334936833399 6.06687328073436
Bi 3.964242782586475 3.552911599032115 5.8681573536084946
Bi 3.9036995434823116 6.577781289807336 5.513445110895141
