13
Energy = -45.08688961 eV
Bi 8.283632183123256 8.113714577421044 3.809234806911047
Bi 9.187396421211997 4.728695769185779 8.256793161990085
Bi 3.695321549069763 3.0216621113037334 9.524763146336952
Bi 8.527536402915178 10.147761888604672 5.984695732447591
Bi 4.448685374312842 7.273456680262498 4.585210635222617
Bi 2.54813320876069 7.1853694790847955 6.841130552770482
Bi 2.7721714701999236 4.8308131283209566 5.023042560830182
Bi 10.247028689607921 7.661494843418913 6.115592672039734
Bi 4.925982735725852 3.332238760008317 6.82563365311641
Bi 10.775754350309398 9.837013663093654 3.9864143478419174
Bi 7.53841120024401 7.074526417942117 8.761316791694192
Bi 4.579961814538333 5.707027617780299 8.799508783442082
Bi 7.145025643849447 5.658556630430191 6.161568029795114
