13
Energy = -44.8583092 eV
Bi 5.488153140440354 5.647927338135387 3.7629565403790526
Bi 4.203401618562673 5.19925448281326 6.3772667430210515
Bi 6.921708170840036 5.137671716403828 8.375540465088555
Bi 8.13829325439802 10.153230542944087 2.504702690549809
Bi 7.079080234037396 8.131583795589744 4.6297391265231695
Bi 4.711690127740994 7.299429143116334 8.46854432379276
Bi 6.560570392990598 9.474018838738061 7.4938542322193085
Bi 4.867866649374271 10.161574319021804 5.097162565344937
Bi 6.954462397942632 12.156955211738694 4.14560340001578
Bi 6.887786843805934 3.4275708760166226 5.767487735250455
Bi 5.439224744576319 1.032576391430997 7.101189083670651
Bi 8.220633912169463 1.2073202299366517 8.0911653048555
Bi 6.049661274889618 2.4934202821146574 9.707320957289104
