13
Energy = -44.82850546 eV
Bi 4.641890083499906 7.73673355395294 8.731170301138707
Bi 7.621748081122225 8.633778885726748 9.113387886800961
Bi 5.204158574232195 10.685241719935139 8.366121808811075
Bi 6.654768561632555 6.4961630967427 11.361017997259104
Bi 8.018108395923646 10.262495464873155 6.389105544757003
Bi 10.515140713101777 9.140799289348797 7.809379526973748
Bi 10.230676573333788 7.87160744621666 5.182750842301232
Bi 6.850522079700224 7.991957943254857 4.788578816924195
Bi 4.2245813325787145 9.068799569094814 5.993096390763807
Bi 9.791134631969026 5.455186241663328 7.049978006690264
Bi 6.730031544171822 5.606896969348606 6.809411707891283
Bi 7.7516709151018475 4.558600126619595 9.665730433145301
Bi 8.318119962477137 3.30709366813044 5.509088650494954
