11
Energy = -37.99420807 eV
Bi 10.569429911130909 9.584032061259869 6.7923870073526
Bi 10.21680576257925 6.528901166374777 6.866499110101153
Bi 9.153311915473806 8.141981272836246 4.5409961348352095
Bi 7.881924442137979 3.610484174018784 6.606051070878281
Bi 5.858407130682213 4.193343007071693 4.772587836743061
Bi 7.567822930199979 9.744395364191135 6.545296668662917
Bi 7.843107229805622 5.982482075429802 8.733483528937324
Bi 5.579305519524765 6.5949804904798 6.745160606635899
Bi 4.189988893985019 9.30031032029664 7.8675625639543885
Bi 6.036171437981974 8.43781863830482 9.999935403089776
Bi 3.7469377942837836 6.642721127402013 9.220334071095056
