17
Energy = -61.26860842 eV
Bi 11.823695583145325 6.1346575275090895 6.636079395911968
Bi 9.984712368610708 5.4084512086524725 4.36547945741807
Bi 9.272484682306702 8.403660949656317 3.93269634210262
Bi 8.469212863647801 11.649996327361084 5.743707770352034
Bi 7.458230193742903 8.047970672238618 6.394533279628776
Bi 9.10352768683539 10.564874061414695 9.930900407070062
Bi 5.721442026606994 11.139956870651092 6.915678954326237
Bi 6.579779214976829 7.526979375854796 12.655844180487993
Bi 6.293009146837359 9.658823894512189 9.717818052955112
Bi 10.151841159750772 4.468259922434538 8.494055769286438
Bi 9.552161295607759 7.341192751447693 13.063193660823064
Bi 7.157439202139788 6.664279973267979 9.697291163655654
Bi 10.226443436360757 9.15744940887763 6.770021283360573
Bi 10.091421004577366 7.248318953855395 9.964308181384164
Bi 7.866424503972467 4.860653111441284 6.519573776157764
Bi 7.673110630562605 12.924308590365996 8.35245052897544
Bi 8.249461443459554 10.083696023580629 12.88418344152593
