13
Energy = -45.75459788 eV
Bi 6.471677354170593 9.674543663510358 9.845283352626671
Bi 4.857154591484667 3.971754797623918 7.414146818064602
Bi 4.857154591484667 8.97159991071727 7.414146818064602
Bi 4.981959391928323 6.471677354170593 4.624924799279783
Bi 6.471677354170593 8.582907118228256 3.007920350384176
Bi 8.086200116856519 8.97159991071727 7.414146818064602
Bi 8.086200116856519 3.971754797623918 7.414146818064602
Bi 7.961395316412861 6.471677354170593 4.624924799279783
Bi 6.471677354170593 6.471677354170593 8.821547988467936
Bi 6.471677354170593 4.360447590112932 3.007920350384176
Bi 6.471677354170593 2.367779708341186 5.348706807919789
Bi 6.471677354170593 10.575575 5.348706807919789
Bi 6.471677354170593 3.2688110448308256 9.845283352626671
