17
Energy = -40.72992448 eV
Bi 8.764413459308397 9.667814852222172 7.695620280931254
Bi 12.076148015357443 7.0084467677677535 8.968936851650964
Bi 10.205999319190326 7.6197060175705955 6.454501440848888
Bi 3.473796608377442 6.90923751705325 5.051629819097862
Bi 6.291895955801619 10.10664928855934 7.9172881591210915
Bi 12.893265216893917 7.9482475549843805 6.62958943292887
Bi 5.96326072067103 5.971692746437676 5.137359505434956
Bi 11.347960447653218 10.004161787265721 7.287084060222644
Bi 4.992628254794379 8.10633673532036 6.866987081563942
Bi 7.5094649087645635 7.180481647445974 6.836549077316583
Bi 5.668273063048241 4.470071396268762 7.1881715966162485
Bi 4.764075425473906 9.029538794189017 9.798964759136897
Bi 10.659853402367245 9.197875054186325 9.65148867300736
Bi 9.50669611604427 6.7843090210553925 8.822412051641244
Bi 3.403388883830905 5.864751355958372 7.4427513807785415
Bi 5.486364672261197 6.4821405438658575 9.008211439707797
Bi 7.387334662051175 8.123276024627073 9.662219963411033
