13
Energy = -45.95508987 eV
Bi 8.299505414419661 4.495219335773187 8.536354136094193
Bi 6.540372890412504 8.553786863846165 9.597094149461347
Bi 8.893258563642684 7.614716115225172 8.029047768995472
Bi 5.34539092650637 4.072648062268035 9.042118454325758
Bi 5.397781752156028 10.65399328225981 7.713835936423368
Bi 5.863032050218323 6.534094564094629 7.302556046241153
Bi 5.182424453207639 2.666446166021869 6.279781979634132
Bi 8.196547663572163 3.024945828113609 5.8302091431506575
Bi 7.37174047381281 11.379766633573526 5.604041493214361
Bi 5.287310297426272 9.150626434831755 5.060468634533164
Bi 8.221326409648697 8.391783634977939 5.107810089883911
Bi 4.597065506782028 5.107292443287221 4.548583314927058
Bi 7.494598081501257 5.262634793920856 3.909826510623985
