15
Energy = -52.44726745 eV
Bi 11.044284057740999 8.825913217860794 6.08090352780727
Bi 10.322938927376267 9.4538794290384 8.935835197233404
Bi 8.131580035271051 9.359070752287701 4.691983801447701
Bi 9.674253358947869 6.794829421227885 4.235214511780195
Bi 5.0232888715251685 8.724129535355788 4.379189498807807
Bi 9.538718140282022 7.118589508328857 10.707222181857958
Bi 7.370198246724272 9.009071205414614 7.844566449641451
Bi 7.7153464208156395 4.559503919349008 5.049855650856875
Bi 9.853686675489989 5.759822566397019 8.08211203596828
Bi 6.331200756015073 7.604739180626545 10.661062475661732
Bi 5.96168580521494 6.6652921655808415 6.370487758911927
Bi 4.508583821666968 10.080433764274371 7.066188650748657
Bi 7.71453123778034 3.770537219133317 8.011138335404258
Bi 3.5744174958451516 8.154833376250165 9.175551324695604
Bi 5.029587783648995 5.372105792515329 9.182447258780005
