13
Energy = -45.03289172 eV
Bi 4.918748967407292 4.793577180250808 5.038524844143847
Bi 7.156794357029222 5.591383660533724 7.020309871066048
Bi 8.695420861170739 5.95380488638956 10.22253130197824
Bi 3.72499511337098 6.12698790977944 7.317047627380725
Bi 5.523128899838288 5.85119815757893 10.002357757385148
Bi 10.010383916359352 4.673111303229495 7.913036463068369
Bi 8.404063694840136 8.777425931548702 8.621828446400526
Bi 10.006819412893083 6.85130022730075 5.5768505171800244
Bi 5.683788343286828 8.892479436368697 10.120482353223453
Bi 5.769555107942288 8.727708464826001 7.005657181167291
Bi 7.308789878471579 7.053228551722995 4.129170441450334
Bi 8.997861599207107 9.646863872263975 4.566550534462441
Bi 7.6809243409876755 11.161269474501756 6.692568181429424
