19
Energy = -67.50873012 eV
Bi 9.845406862905346 8.666253290074287 10.100839842538072
Bi 10.151622543726198 3.65572510090604 6.534712458318023
Bi 10.827804877791221 6.187281384575066 8.408751887292294
Bi 9.25124336679717 6.527839699949257 5.678444692302351
Bi 8.065001569351331 8.826955055160047 7.502652730945087
Bi 7.741000999729659 8.335337861338706 3.184817119915554
Bi 7.870092736883657 2.5228550825557496 7.935387234236149
Bi 7.650131935490614 7.401845564383976 11.606847090713584
Bi 7.427504428400168 10.728196606939969 4.925251865161101
Bi 8.729071962860177 4.766183529693309 10.145310600103477
Bi 6.442624393979399 4.613146481237142 6.09622830180045
Bi 4.743118038139414 7.910255074600732 6.081709063088799
Bi 5.691759747517586 8.347796524719222 9.341769326358092
Bi 5.788255806301961 5.313251002570252 8.988391391226562
Bi 4.920356332008134 8.770496791766242 2.0868390198125666
Bi 4.400784129078321 10.549861375547618 4.527959720208543
Bi 4.423068210686095 6.109124818793849 3.573559923412468
Bi 2.1316583547491517 6.428997518299664 5.5677296089636235
Bi 3.4378436348913906 4.151186899917942 7.033382362767457
