18
Energy = -66.11990042 eV
Bi 11.530635293671336 3.8246297652632046 8.395081701917054
Bi 12.674466880546523 4.942518677794912 5.830341905708203
Bi 12.371402584645873 6.756560528898909 8.23063997299295
Bi 8.580828207710608 4.676185546876977 8.274356296528445
Bi 8.34771548041549 3.7359821149435444 5.432409742754506
Bi 10.312092801705463 5.517114096876639 4.025996164338279
Bi 9.412674035235657 7.582549086962784 8.114155091094778
Bi 9.669380315813488 8.207868748085957 5.188462910294748
Bi 5.949177465234238 5.215410579080048 4.31634264144275
Bi 4.269128691252633 5.0255084176201 6.813061868148269
Bi 6.826209807217976 8.175267179520805 4.144505565228106
Bi 1.967687078434294 6.530816518020465 5.614122160734719
Bi 5.58995370708298 7.174496998420061 8.445020535935056
Bi 0.7143000327624746 7.049630640094272 8.343763565120705
Bi 2.8435757901258465 9.444027970312955 5.46658289298867
Bi 5.6324628185050445 9.518379412058044 6.565541187168063
Bi 3.0773550102013303 8.01702864962126 9.971598710683445
Bi 1.600898118831188 9.975969188941157 8.197961206312833
