16
Energy = -56.55188964 eV
Bi 10.954225210660102 8.474456098421731 10.489735364574603
Bi 10.780107637133254 5.626121930639754 9.65358783067847
Bi 8.89529436581899 10.103359274111654 4.606708953938096
Bi 10.309514900938591 7.088455397798098 6.8356121879940694
Bi 9.744427288040153 9.884559908988779 7.76047636849956
Bi 9.447197596079539 7.306918500473641 3.7781497245027538
Bi 8.09554108398645 8.228178368446518 11.607203239336826
Bi 7.913424879473879 5.300570025315286 10.656798637674795
Bi 7.0566290055320975 10.03579525155294 9.406167423949952
Bi 6.518000818784497 4.178464236411756 5.629729995051662
Bi 7.353211098491842 6.180584518224136 7.750343469493342
Bi 6.461014585558126 8.807656738225477 6.031455554235269
Bi 6.4797851229283525 6.589541764208421 3.847210286089887
Bi 4.1641608768446865 8.979282892960484 9.417020593758345
Bi 3.4035172189324445 8.972048824430175 6.483370808420384
Bi 4.094571494432724 6.401589672581326 7.843467538419682
