12
Energy = -41.91915622 eV
Bi 5.120115726702094 9.154229249299298 9.126666162016724
Bi 6.035519745486322 6.0646259046665 8.460522985046136
Bi 3.346235481414415 7.731365604446674 7.194750087588453
Bi 8.8760107455673 7.2349742840110425 8.818287730389754
Bi 7.48882366400712 10.068772775898822 7.682853280666693
Bi 9.473471135383116 4.155641218354062 9.05541501191964
Bi 7.213616390682205 8.963757123183228 4.910597916178753
Bi 4.101493496581734 8.770150891315161 4.570204179556862
Bi 9.825908948540292 7.151080672342306 5.998952688743964
Bi 5.9347668942111556 6.211706597261697 5.365585014507045
Bi 7.365538255121789 3.2710152500375065 7.25392825726587
Bi 8.735785659607854 4.593986559640957 4.928243284357963
