14
Energy = -50.47597413 eV
Bi 9.011084404855163 4.650872294772373 5.4775765795850395
Bi 10.414564548930636 7.301562626467622 5.69637469607907
Bi 6.459168955126807 5.592233942975619 4.069187769059615
Bi 8.28580730912095 3.816967215641498 8.301095009648147
Bi 10.919223452711334 7.852531256108054 8.611732131637144
Bi 6.050721612491489 8.539881598871917 4.623085579409035
Bi 8.544024806141582 9.190901564129557 7.091747929880108
Bi 4.452515956540555 4.299771048646827 5.882812369751779
Bi 8.965378891010623 6.12786615885376 10.16428428700433
Bi 5.510818524393882 4.976199826251241 8.61265964928172
Bi 3.0688038356804586 8.518191437270598 3.89409871019384
Bi 6.616467406399443 7.789293373591881 8.99426269084003
Bi 3.918651452950222 8.958969161234098 6.773125174817384
Bi 2.3495517730973825 6.4722530052523215 6.000530706110384
