12
Energy = -43.02098826 eV
Bi 9.402329085186919 5.982120815129371 4.576613153773773
Bi 7.415464521491321 6.805546925062684 2.4912001392398366
Bi 7.906871534876718 8.560980266794482 4.998054001694628
Bi 8.227318329992704 3.8606817969830254 6.350404547532059
Bi 5.340587972783921 4.033967735021745 5.99252855869049
Bi 4.750752852249929 5.84496960621007 3.6297510465210903
Bi 4.90350472567919 8.259794032482555 5.480011922901015
Bi 7.450329454903007 6.070422937586604 8.597403677477027
Bi 4.489553090934087 6.540129716671025 7.979719542624563
Bi 8.38565987720468 8.930941684398258 9.22790462299893
Bi 7.421340422113073 7.227866089648673 11.513707835146228
Bi 5.491359834234706 8.884553323020798 9.969486102995033
