16
Energy = -57.67173825 eV
Bi 8.288366997548888 6.449892894986494 4.183116186378547
Bi 5.718089683202141 4.909749579065387 4.892452847656036
Bi 9.73137182466007 4.4281305430828715 6.008469561471835
Bi 10.947759920080998 6.225732317318796 8.141576219207272
Bi 7.09756722282757 3.4054106545543372 7.161656895821206
Bi 7.67713745190017 7.593085774009167 6.92468012325252
Bi 9.109797707083034 6.347127898052979 10.432888058750004
Bi 10.117191439749629 9.334354882036639 7.540937295614414
Bi 6.546162721908431 4.851699643503074 9.750839008425316
Bi 4.057426702788518 7.104271350917388 6.194699773344881
Bi 8.618688802517763 9.586311176010714 10.194406082383022
Bi 5.776546299705862 9.905839334427505 6.308650633115167
Bi 8.467430284298633 11.537528693405843 5.978396288894659
Bi 4.413512562307539 6.929306937445641 9.105865645103513
Bi 5.692160794692459 9.940884008396917 9.367252692400681
Bi 7.787917774006593 12.325480564966425 8.655484769145808
