11
Energy = -38.27169118 eV
Bi 9.832408860645629 8.509195063371505 6.203197819693649
Bi 8.955066957196067 6.50132363938164 8.523087489159893
Bi 7.314750168060181 9.552635352712484 4.91552587066945
Bi 5.45315659587736 11.105669269011377 6.818082674797561
Bi 9.871833464067507 3.94141282132705 6.957012535569552
Bi 9.183790752634078 5.92386883253966 4.735559432768474
Bi 7.023976217407627 4.929043987424465 6.813256523927689
Bi 6.42288818391661 5.379174819519097 10.184597228608832
Bi 5.093984898372359 8.101746218959187 6.496275583680358
Bi 4.423453642835332 7.409746256290905 9.788025721859688
Bi 6.710315203749381 9.165027699668535 8.812425658573945
