16
Energy = -58.1553874 eV
Bi 9.729881336779934 6.521771997466318 4.804093932857513
Bi 9.796133500488313 9.405406684522045 3.8951029978115983
Bi 8.913093704089592 5.431793162631925 9.42838087961782
Bi 9.16403526090969 7.772948589859708 7.48455847425676
Bi 7.20851743461513 5.582533275083851 3.5025495560891744
Bi 7.27590879092642 3.3950257293486854 7.9285856983174545
Bi 7.02920674320182 10.396645487735286 4.679628809426662
Bi 7.6707276268052125 9.790513275340805 1.771480730082891
Bi 5.5961633808183295 8.127075731405268 3.24542352240228
Bi 7.005413338584519 7.4598185577222 10.599159791955659
Bi 5.470175786174316 4.34754860702841 5.713727932574312
Bi 4.895442506400582 3.12485492710158 9.795294456205015
Bi 6.280547467503172 8.678552748063805 7.86339652006116
Bi 4.711450850713032 5.662982871684525 11.438601359270992
Bi 4.181549418787916 6.852733937479689 6.698333080285694
Bi 2.942039857821102 5.320081422143723 9.021969263402998
