10
Energy = -35.39674465 eV
Bi 7.16301290486632 4.967267639234368 9.317814464197697
Bi 6.395876054308957 3.410552892085684 6.899579451868289
Bi 8.834041621416581 7.3599691945373005 8.424606353394458
Bi 7.73610227151684 4.650745384093815 4.551588765245817
Bi 9.16229588529823 7.186212066277505 5.45792620932843
Bi 4.698957288881453 6.2791717454701494 8.096601271689067
Bi 5.033366972752248 5.965408012561488 5.062405274716202
Bi 6.2186436529985665 8.890304175687712 8.82034272148148
Bi 6.684937780312255 8.524224401960566 4.284093516599785
Bi 5.387145720050188 10.153311362935789 6.319595297404278
