19
Energy = -67.48518716 eV
Bi 2.458970697009681 6.746089049111697 8.226037796696929
Bi 8.851387954920774 5.497020282974293 8.491669209525067
Bi 7.206612940662174 4.8754683199832645 11.17255028890818
Bi 8.199687983908428 7.59840503128837 11.765821491960246
Bi 11.232029593183828 7.8314949691836935 6.185732129568872
Bi 2.7749146156498865 9.703005100506967 7.748131502108072
Bi 5.417832028212585 6.418933527085463 9.091763446613388
Bi 10.539732273844349 4.9874070891633995 5.754534699307631
Bi 11.423885395837564 5.5196445922649655 10.122992540798135
Bi 5.385554387798411 8.662878016059052 11.047193577536586
Bi 7.685738468979164 7.090694944093437 4.081845892318233
Bi 7.270002581648128 8.914862006431557 6.970068041086318
Bi 9.095194577583145 9.714373871004353 4.690281831804526
Bi 5.331904350018966 10.790317145348393 8.8902861758102
Bi 4.837593584017466 9.849955388018216 5.284763974025368
Bi 12.980899039821859 5.376786505055849 7.4896157262181715
Bi 5.015739731203748 7.822222371619622 2.8917463506226673
Bi 10.175108045854195 8.17208284993111 9.281005540175162
Bi 4.6753391531165684 6.858113426526578 5.807193085096029
