11
Energy = -38.44859598 eV
Bi 6.969354905819219 9.562227711653161 5.063783290864742
Bi 8.9257230389221 10.73217563531983 7.062936567706808
Bi 9.791343138531392 8.304642455994376 5.500450858572637
Bi 4.274830618351748 8.562224824250706 6.420113400926406
Bi 7.201586933482205 6.207189471156261 6.492114289906353
Bi 10.392030821275467 6.871236414123302 8.270937714888701
Bi 8.714433187742957 4.312327889324269 8.364502773693475
Bi 8.927122314693491 9.109553208164856 9.698502747779731
Bi 4.179865802181524 5.513611186065457 6.688339190604708
Bi 6.243432695152747 7.9364325253645776 8.798445271911852
Bi 5.813973874902656 4.92588832672144 9.34833704217094
