11
Energy = -38.29317724 eV
Bi 9.434643625448496 5.345704588136583 5.7906077132057145
Bi 9.254092772479439 5.160664330540114 8.786497801441072
Bi 6.934467471318676 6.622833636987819 4.829695800335134
Bi 10.520712981921717 7.677956044018494 7.777033608572783
Bi 6.3238232776448875 5.958686785868403 9.494050039316914
Bi 4.996986670060119 5.426421631494717 6.82330326615739
Bi 8.079841830913924 9.021502847642985 6.521653437128275
Bi 8.792685536641445 11.950287224453405 7.530130438597024
Bi 6.53269307560713 8.972682581741589 9.109581689002807
Bi 9.772142893836099 10.370269579227939 9.602081229214901
Bi 3.7903006071856145 7.850573500880678 8.150669748571923
