11
Energy = -38.64555705 eV
Bi 9.42969813583347 8.983959830610429 6.10035636064859
Bi 9.45240535442272 7.217396123111461 8.59166488473003
Bi 6.4996356634255505 9.7430596950823 6.35895619845024
Bi 5.234445172790877 6.6265284062465 5.087871977490471
Bi 4.829648049943341 2.8577831198786834 6.17181545866231
Bi 8.596180506541717 11.256129893469879 7.958187386830178
Bi 7.283871626713052 4.313739729648169 5.013853074902344
Bi 3.17392836489512 4.5463655940155725 4.301650334275579
Bi 8.050534983103772 4.562236318433234 7.965620503378452
Bi 7.0491535969359225 8.974723556008176 9.262594842734405
Bi 5.115124394986617 5.392975065690714 7.908244361786953
