11
Energy = -38.21501931 eV
Bi 4.817808233953327 6.752727475731404 5.742613748735119
Bi 3.1865185225875927 5.950975082393473 8.377502034743786
Bi 6.3485862047467165 6.321264156871137 8.536136329118907
Bi 7.620999422767104 9.449755178511401 7.62087462769665
Bi 6.913721898577016 4.5957795001708694 5.960379723773413
Bi 8.28439399118702 6.756281022942112 4.076392901648844
Bi 10.59598418489582 10.047216694597104 7.81434601870289
Bi 6.442829042844197 8.932202779082013 4.348111018512088
Bi 4.777293135600371 3.567568176948729 8.263121697862276
Bi 9.58189607774424 7.217598323347995 7.295027869944313
Bi 9.346739035942607 8.650203030283715 10.130169130629081
