17
Energy = -41.88239222 eV
Bi 9.834143591482128 8.170360383283791 8.08035285222834
Bi 4.630046639039333 8.964479486385303 7.664891855612943
Bi 6.27022583929815 10.742092859734601 6.447870761192992
Bi 7.919568998842186 8.632112126177311 5.755619413098954
Bi 8.828777377981268 6.33761043622733 6.3981807845767555
Bi 9.897126628230133 6.105104303082526 10.431700195192244
Bi 8.986430241532634 10.372025582749417 10.097593807731835
Bi 7.913950054280574 8.04923274758129 10.901212187968449
Bi 6.010866340089127 6.767988240211671 7.235148913969731
Bi 12.467781229480476 7.3269164873745956 8.937563243891383
Bi 10.715121305480553 5.423665209208606 7.973045410848936
Bi 7.172497432801194 11.738826534551057 8.726367158666722
Bi 9.291230730462832 10.600900383188826 7.247071022195343
Bi 10.875069832847975 8.58280403765529 10.612859238416682
Bi 7.2834263141184685 8.934902680615599 8.457243664864627
Bi 7.749866102839066 5.986179586458346 8.928197812713188
Bi 5.48414726273878 7.547581847732359 10.032268900432273
