10
Energy = -35.67426173 eV
Bi 5.732465289599172 4.435651402059198 9.113880145081163
Bi 7.441690153452016 4.924915231868134 6.621866318014896
Bi 5.342527316602681 7.1013297984218084 6.2120469364288855
Bi 9.603695216932127 6.544600593452408 8.037760865718017
Bi 3.257941486759563 5.300689997589669 7.571525762335165
Bi 4.777608134501058 7.334118469570346 9.19114232743183
Bi 8.131716824301956 9.176120578189332 8.486436282425789
Bi 8.143596407789438 9.919134594338852 5.537779352992811
Bi 10.57077088872004 8.06739245719728 5.569491428388572
Bi 10.538904138529158 10.621472926175093 7.2221962142556455
