17
Energy = -61.70248842 eV
Bi 10.60364448049913 10.874000985615856 8.217140742434795
Bi 11.804661937344095 8.338759222931417 9.408097778811127
Bi 12.346021741345808 9.058282363554655 6.529720395505393
Bi 9.051271413784352 6.976066155249073 9.250265281517215
Bi 8.194937486641626 9.344788532715874 5.100191813772558
Bi 10.444946421105683 7.374302203178313 4.853874914034294
Bi 7.841867261916639 9.495090735010583 8.069318126221102
Bi 9.815866626648958 5.307032642467416 6.914420507289635
Bi 6.155408175121554 7.345205151492293 4.032371334371983
Bi 5.425843954817662 6.688699178471908 8.020448502032648
Bi 3.8499689724299473 8.143035064212325 5.873911570950769
Bi 6.692977722486553 4.948982853084514 5.886202728795514
Bi 3.308206882758076 4.878121929463251 9.269313859968241
Bi 2.1643517652970465 5.891777277695523 4.7716216049741496
Bi 4.108899389401161 3.5706391095785217 4.741593650362484
Bi 0.9483792154093191 4.896548492900813 7.393727322767753
Bi 2.9376676526989556 2.5635892020842306 7.362700965897408
