17
Energy = -60.5684932 eV
Bi 8.718800287303068 12.374405951443144 7.479134122487358
Bi 9.948182593474963 11.231499252365532 5.010502069512427
Bi 10.812322530493711 8.792149068222106 6.8437820983675435
Bi 8.888548800096485 9.613862320227724 9.069830868160619
Bi 9.140696702835132 6.538165741177909 10.263620416471532
Bi 6.408282383861043 10.358136805605982 7.407821131432062
Bi 9.991082785593235 5.605162906884608 7.58758329319805
Bi 7.328423976940061 9.754828572890252 4.536355640668237
Bi 6.111169693202788 6.849178482153707 10.503310482152752
Bi 8.983415188405278 7.219084064122054 4.9389073072424905
Bi 6.663624436369262 6.913603996100378 7.463563067564205
Bi 4.000448979014012 6.933576304826009 5.891698384214958
Bi 5.701323376044202 4.807557641508881 4.559607269474995
Bi 5.322793882852546 4.068911336494596 9.526844496269721
Bi 7.191717585206654 3.734531692793697 7.0698213217902985
Bi 2.8950695109167106 4.814706120258324 7.804924070942116
Bi 4.28794720924852 2.641603462927103 6.199858362233305
