10
Energy = -34.88996091 eV
Bi 3.471026250943438 8.680531573910976 7.366443430378067
Bi 4.78838147071595 6.53808746107523 5.830935007381441
Bi 6.3977475759684195 9.815744183057118 7.101872727501454
Bi 10.087117809774703 6.675799903662638 6.452116792809087
Bi 8.201554149319856 6.009075281351393 4.218529967939066
Bi 5.83119405082441 10.005606126582952 9.96664049882376
Bi 10.717754504919439 4.34645603781737 4.631292449491977
Bi 7.388255679210252 7.672392868206575 9.079351474798395
Bi 8.419108180225455 4.180627496355911 6.583728518826684
Bi 4.646246951770338 6.170832748922727 8.726635381822978
