16
Energy = -58.0640445 eV
Bi 10.138395292703695 7.0680949090057545 3.6806909160180563
Bi 9.536244302903118 4.978662699553523 1.5289990921738303
Bi 7.167347951165811 7.789548292233973 3.8003965554952015
Bi 6.758300267522322 9.221049994718713 7.331768638835018
Bi 9.654259872497896 5.196256974860004 6.032713355650738
Bi 6.780884859842873 6.222425048524765 1.1358114335176954
Bi 9.267495506202811 7.524395972389861 7.9518118425222015
Bi 7.083392325354276 3.6015292929632485 2.6257939937078145
Bi 6.7158163932713935 5.140529634595665 5.266864929259604
Bi 7.042316736645572 9.160586978298948 10.376726301561348
Bi 4.492785899625378 7.244825140132806 7.082942205081806
Bi 7.802478143499923 6.237984428317442 10.31346959193178
Bi 5.364313412538561 5.074296343703146 8.989906447600141
Bi 4.2349334336290765 8.984725800998438 11.50458830136924
Bi 2.4720792668358267 8.30934519590227 9.16558034616442
Bi 3.3666431452886503 6.123430103328137 11.089622858637634
