13
Energy = -46.72964292 eV
Bi 3.4036612285457175 5.271442836387594 4.321917566008891
Bi 7.265997784695993 3.738992650889579 6.662396979139149
Bi 9.244472522003633 5.742898142211583 7.867070055484576
Bi 6.436851471425989 5.374937435608589 4.280417911264998
Bi 9.887725170689196 7.449165302050732 5.44992057331407
Bi 2.8010181852673934 3.5636463656222155 6.688367004706319
Bi 10.632888619582376 10.032629857034234 6.855128133564534
Bi 5.008498666735032 4.182390358066478 8.614499394575974
Bi 7.486602205836575 7.525453825872198 9.524466128624486
Bi 4.92602106610756 7.686420930633693 5.444765693910281
Bi 7.996288106915712 9.797420760238783 5.3358057775287016
Bi 4.693162715791744 7.160665782530514 8.407413770820726
Bi 7.99504758542324 10.252171081873971 8.326066340077164
