11
Energy = -39.35257199 eV
Bi 4.437671703971414 7.912209863851401 5.15064118323665
Bi 3.7207096862581786 5.883024660307561 7.245708163294097
Bi 3.4700410424008745 3.4636556236975182 5.419367610520681
Bi 6.295258961045339 9.615314863199332 6.8546801840615545
Bi 6.5989983765003615 6.516323789287306 3.636535357295557
Bi 7.179428811161339 7.952051064501506 9.23334443471666
Bi 6.395245184703503 5.1392552465927475 8.341333757195779
Bi 8.926693241836023 8.144602667794775 6.764386497274842
Bi 8.101311403144354 5.120726810698417 5.851514579203981
Bi 6.310805483770569 2.5255876451537205 5.031968996742064
Bi 4.927364582868425 4.090776242576627 2.8340477141187823
