10
Energy = -35.54500715 eV
Bi 4.230322795490553 3.2286435770624515 4.330223799982748
Bi 7.059269252542933 3.8510212606181917 3.419291657088462
Bi 3.0412426793257117 6.063627823359636 4.465496503885741
Bi 7.622868611417679 6.339927437046061 5.043340671003807
Bi 5.291898186326095 7.9075673326271225 3.6432655580770086
Bi 5.246770664309817 2.8851861920683173 7.17448119081389
Bi 8.095199524355033 3.179819067542655 6.190434589077691
Bi 3.4612102236563262 6.886762014835813 7.341541803953262
Bi 6.327390758863851 5.663458467605611 7.702387596687507
Bi 4.44391832658142 9.37330789149809 6.068857912987374
