10
Energy = -22.52313628 eV
Bi 7.638009000644389 5.648394395709366 6.926440222546706
Bi 7.336986378055778 6.360645180990442 9.322261715474335
Bi 9.071925774287212 4.987033874154758 4.5882648916565945
Bi 7.182150771232387 6.8748232343991225 4.789590880478436
Bi 7.147563958790308 8.763292865852721 10.13422046589878
Bi 5.064399677409023 6.253375830101877 7.9823389250539325
Bi 9.686830817377215 7.775950185392629 5.65363553643094
Bi 8.57691369571374 8.502041871516623 7.8391782680860125
Bi 4.908345384390003 8.735311115627763 8.890759079378851
Bi 6.316822169468659 8.46526463339409 6.681607280502274
