15
Energy = -54.28588166 eV
Bi 11.225335468698843 6.717275738388708 3.6880873835357795
Bi 12.033215619101473 6.986479570318779 6.631642482222887
Bi 10.4063208992952 9.119865461786807 5.300353318049679
Bi 9.013743632024564 4.721107212346651 4.443061681834297
Bi 9.912594488819602 4.885174663080082 7.35108837783709
Bi 6.775654121670387 6.700923708747882 4.1405113184006455
Bi 7.4161336237383795 8.550684457350101 6.425250756298606
Bi 7.899523278450349 6.661859449862646 8.705653639326588
Bi 4.7066368563493 4.9409872985112715 5.472488326532532
Bi 5.884460863407529 4.4747077572985665 8.211320029597239
Bi 4.416422661345407 9.437872579979675 7.038411056650405
Bi 2.8188091554865204 7.287419017006599 5.647959011241824
Bi 3.66621206057981 5.489825662334484 9.998096457410032
Bi 3.5370588808405268 8.50165796292651 9.799265842046372
Bi 1.4875706085586067 6.7238516784272395 8.346502537383323
