14
Energy = -51.04561717 eV
Bi 9.080174780822595 5.163025108301681 10.451831700032457
Bi 6.1486558404988845 5.082190176842444 11.197847689737854
Bi 6.901936671981016 3.794212826081007 6.916882077994579
Bi 7.562669886047288 7.749710963484271 11.020354809170133
Bi 9.020183252590167 5.837550326104667 7.465282840908482
Bi 4.617603540665454 4.794179890615973 8.60030920190869
Bi 5.90820415256185 4.883532156751247 4.242690554870602
Bi 3.9391979598398468 7.036422387013155 5.022856236879181
Bi 4.575648039118401 7.706458147592863 7.901063862097087
Bi 8.42019043019901 6.431659020673844 3.5818333861212976
Bi 7.500171329338635 8.395472155922649 8.002407594139353
Bi 5.202375206502686 9.495007538518461 3.8056885988670373
Bi 7.197640718863154 8.512014154281877 1.750261953067493
Bi 8.12238329620461 9.290577375007413 4.562039390918131
