16
Energy = -58.57669655 eV
Bi 6.724769317215682 8.934346353348191 8.463252370583254
Bi 4.947293881126168 11.400557114792203 7.962294577767801
Bi 6.978884265755874 4.961628279245394 9.709091395464172
Bi 10.405051375712834 3.338780118526362 7.797070883371751
Bi 9.164753917962168 6.154838553182276 7.953450915112754
Bi 8.17106988035413 2.1533063115615882 9.506639370498455
Bi 4.252335877883297 7.474750918386618 7.552859618506395
Bi 8.362783653239598 9.774295367884838 6.035598221067856
Bi 6.5637720531153665 12.186602903907215 5.494447452537862
Bi 8.170461595571028 1.7024188225949932 6.531281892608691
Bi 8.545109328523791 5.599397515544776 5.058541785845716
Bi 3.8730520244834707 10.881551448429123 5.159788043651901
Bi 4.761231630907681 4.446565127037353 7.793816544821704
Bi 7.241670177330967 8.109400847952507 3.839406717840532
Bi 4.340912124929895 7.936660343206196 4.602074810189455
Bi 6.2509488951109065 3.6989999736230508 5.294485399354712
