11
Energy = -38.62084128 eV
Bi 9.668323986005149 6.044338373254725 7.532181725540717
Bi 9.103665451959698 5.211464703867296 4.676493248799016
Bi 5.249248960020958 6.275673545726164 6.832944148931003
Bi 4.347926981284708 5.213590083836177 4.14737936244648
Bi 7.859151246501472 8.314123721240088 8.355686195280576
Bi 6.818804132512331 6.814449494658542 3.480150743928623
Bi 3.0580857015239244 7.269854425674994 8.7102838326422
Bi 7.415263314494918 9.122799771829726 5.413921019513196
Bi 5.604476896602244 7.3988822797846145 10.333521066521081
Bi 10.283366398621512 7.962910319542907 5.23454212099019
Bi 4.516625211418617 4.746307437818588 9.40230228800995
