12
Energy = -42.49220438 eV
Bi 6.4437643143153505 9.979990999999998 5.835843328358791
Bi 6.950257238834809 6.91696546819812 7.341706606421571
Bi 4.584684116712524 8.851848550990272 7.932847343295792
Bi 7.087002540005061 2.8198381057274515 3.738839313421794
Bi 4.584684116712524 8.851848550990272 3.738839313421794
Bi 4.721429417882776 4.754721188519466 4.329980050296014
Bi 5.227922342402235 1.6916956567175858 5.835843328358791
Bi 7.087002540005061 2.8198381057274515 7.932847343295792
Bi 2.83362133705494 7.600486565561654 5.835843328358791
Bi 4.721429417882776 4.754721188519466 7.341706606421571
Bi 6.950257238834809 6.91696546819812 4.329980050296014
Bi 8.838065319662643 4.071200091155932 5.835843328358791
