14
Energy = -50.65824685 eV
Bi 9.307676501506467 8.577542184572977 6.913516803303501
Bi 6.380740618882697 9.444538511368227 6.684587051794978
Bi 7.42047916600871 9.255750589395374 3.8418574831921677
Bi 9.8391243160579 6.5865189448283346 9.153754540270103
Bi 8.974349550108224 6.745256246810367 4.486074960683606
Bi 7.980293703603398 7.539585113455621 11.372425423298903
Bi 5.0673881739317785 8.151605358128235 2.265507029755357
Bi 7.546275736002577 4.6006015681479075 12.021766570489394
Bi 4.878065702075486 6.848411297088338 6.832786674473349
Bi 4.972701160828643 5.207247389471532 2.908177357463255
Bi 3.1072426465774816 7.149852506110638 4.316225599724434
Bi 5.543951616138262 6.052866046628264 10.275389406743958
Bi 6.750092071016075 4.945697643937074 5.422035582407687
Bi 7.733589480546276 4.392475461494982 8.944829546025648
