19
Energy = -68.20119183 eV
Bi 11.157746694280927 7.643479750050879 9.456436699711833
Bi 3.8588644697037013 7.247751416400203 5.6739467177326475
Bi 5.37551829731642 3.7442691085125586 3.438727771370918
Bi 5.765825231936039 11.357933444539706 6.6324486505583735
Bi 10.608785288077097 4.269974114377508 7.618216445912358
Bi 8.225719537744498 6.037414454988628 6.1501995559028675
Bi 2.911743313887673 11.335762935678034 7.57860721440623
Bi 6.918731409984775 6.440266563857831 9.135399976816911
Bi 4.8283611928725145 6.7137309136110614 2.8109374848254447
Bi 6.053453286776786 3.5666801773272807 8.273817985291823
Bi 4.021080283356023 4.214162235471913 6.116278307429997
Bi 9.484404603074086 5.180760058242649 10.224183858063485
Bi 8.3187008234711 3.821491509886489 4.0135583388528255
Bi 6.535134037330748 8.259981432961235 4.744073639998215
Bi 8.35072074051602 2.382209926636186 6.711256058326314
Bi 4.990953176753239 12.800279472564448 9.192126908712476
Bi 5.005434119757541 9.772646748790402 9.08334126549784
Bi 8.724757237534144 9.053621704296319 8.315191524562996
Bi 10.735466055288368 7.903691295832449 6.449328564160094
