11
Energy = -38.25883403 eV
Bi 2.805019126235494 3.808197691854119 4.837989078377008
Bi 4.983062939750729 3.4496694591226302 7.986533827075185
Bi 8.056816666580977 4.197906917389403 4.011438955460039
Bi 5.439113444729246 2.4585609916979076 5.22641707073797
Bi 9.857571777267438 6.68597095811783 3.433614963040769
Bi 3.483915852053974 6.298296608035974 3.3407539040500476
Bi 6.795251865087329 6.651598273868675 2.8390061103880924
Bi 2.8754466752478693 7.488359174356223 5.98891211693858
Bi 7.81903829744944 6.696511051059921 5.6749081930917304
Bi 4.859958216158947 6.507052817956928 8.104669275353597
Bi 2.2584907657694417 4.99156168287101 7.789441942247741
