18
Energy = -64.39424177 eV
Bi 9.7205369013511 9.243573928175136 5.46261471551973
Bi 6.8806687557347415 10.455740267761099 5.702959440198309
Bi 10.08561239669794 8.73662312136597 8.408062898480882
Bi 6.28000209262593 6.9724245485841285 5.687175307156412
Bi 8.19166419134577 10.689050769680621 9.615805132367791
Bi 9.287666321168285 6.3540848282929465 4.458253918200192
Bi 5.160602784058954 9.011329692179956 3.6578061008271465
Bi 6.469616089637012 3.9924511596046806 4.494044899176813
Bi 5.467377856971037 9.5127951731515 8.286977996306778
Bi 7.536231950825086 8.819583012672423 11.908223764563012
Bi 6.268038342235398 3.7233227990829882 7.438421464502478
Bi 3.181428391790784 9.515957161405332 5.903492327930451
Bi 8.695090864460093 2.610507302491878 6.04432427368775
Bi 10.493757752365543 4.987892665371246 6.755827912258217
Bi 8.157798812176427 6.307611360752714 8.433632177137083
Bi 5.711224346320263 6.847396963668789 10.418143928680886
Bi 8.500257863321869 5.987385058404501 11.470637255864506
Bi 3.6672531021397665 6.950717241032504 7.37277588486855
