13
Energy = -45.22728792 eV
Bi 3.2280872668659715 4.178733818501405 1.9625444311580542
Bi 4.199819674377658 4.104087159192143 5.1137438078295485
Bi 4.140314611880028 4.140551748485952 8.663783418219648
Bi 6.3131518939692155 4.141797379919818 2.7591466919144514
Bi 7.2404788588295474 4.132290430376234 6.352794615379562
Bi 7.007894707298943 4.109019724373784 9.552175502101138
Bi 3.2105182879078273 7.063720981730726 1.9685229866141978
Bi 4.180475760976454 7.131805225923725 5.1197367416771105
Bi 4.124046950127182 7.089167866889109 8.67062119484304
Bi 6.294655547570112 7.132105315242711 2.7652502755921926
Bi 7.221380262716329 7.140955953827252 6.358342884537557
Bi 6.99125374551683 7.147045710257031 9.558271083471046
Bi 9.010800444094185 5.651596949575521 4.317943622298277
