12
Energy = -41.7791371 eV
Bi 10.60893052364441 7.33585373826573 6.90839281911681
Bi 9.074670104462365 9.871580951226198 9.653486343994484
Bi 8.061608707815893 11.39038322430768 7.509887366506164
Bi 9.99179699358579 4.460660880517153 7.426102814901154
Bi 9.645509345901946 6.481975756017708 9.683139090354391
Bi 6.762724244571281 7.555484766814921 10.05149678038557
Bi 5.700154544389904 9.296605078424703 7.73576542235776
Bi 7.121274597356354 5.5369541380153535 6.811276353289264
Bi 7.8610601900140775 8.356246004277748 5.665011095366003
Bi 4.099776029747682 7.296432949558695 5.811724070107058
Bi 4.441174582768169 5.839986684627314 8.385687296504607
Bi 6.31010953544757 6.1354314646783195 3.98080441841659
