19
Energy = -67.8644773 eV
Bi 8.570617680298067 9.771850884820761 2.8977645286945672
Bi 8.960047412444146 9.350414390382102 8.645675459048352
Bi 11.588085688281692 8.643052192167684 6.130193636514119
Bi 10.637901674671076 8.055465500909936 12.796059741255563
Bi 8.56998727240116 10.151315066184393 13.269140967366559
Bi 9.760364511973354 4.902574423245881 6.866852259701102
Bi 10.400858222317433 11.338526305095078 6.732207200428614
Bi 7.696232402176452 11.22095550559176 5.335785189510516
Bi 4.421345326110325 4.8128882010687555 8.156251397123222
Bi 3.8041038223357444 7.589600716467485 7.246539501257842
Bi 9.505029495402537 7.108940549391724 4.603943049358671
Bi 5.76823911438721 8.808171418791064 2.906492359937904
Bi 7.2539036080056105 5.974379227499794 8.114368437192908
Bi 8.493224124644106 6.478209234744851 11.08931827940128
Bi 6.749407186261777 8.261188740117259 5.798155231570697
Bi 10.596458089429332 10.524271335066652 11.050521760295739
Bi 6.776785383996671 8.905819398572902 10.929281860728144
Bi 4.160064338846979 7.104260923891938 10.139854009990088
Bi 10.904948400858922 6.946819404371737 8.85513294004068
