12
Energy = -43.33630871 eV
Bi 9.02306341325576 3.182506465010637 6.4085770616481925
Bi 7.044976820539206 3.3252212799106124 8.677563559426426
Bi 9.496284279627599 4.91378940333012 8.817171653054029
Bi 7.984203436562512 5.163020513794781 4.304037264739084
Bi 5.44303186560738 6.062009504850942 8.110032140912061
Bi 5.105438322212757 5.530062371389894 5.154838005232279
Bi 5.969870512230189 10.286649648838832 8.302429285242129
Bi 3.5433804053206024 8.666907682900092 8.109996837190483
Bi 5.99907802932432 8.1839769620322 4.005819688328124
Bi 7.948636619179323 7.710263559940879 8.248169826810704
Bi 4.462306365524065 10.229765498946174 5.7042012243698546
Bi 8.712562674826351 7.922456760116988 5.333237925972436
