17
Energy = -60.42741042 eV
Bi 5.559563126710018 4.603088534291981 8.466259911009816
Bi 8.542549811067728 4.8161594663425795 8.990684758341706
Bi 8.002250793924622 4.576937537840185 4.190490325979425
Bi 5.67266108822378 6.724339962184353 10.673824080507137
Bi 8.562618345756732 7.847968014150546 9.949686434037138
Bi 11.382790338272509 6.85648170106087 8.987619418507693
Bi 10.23078705845144 5.125662797586829 6.477437488838109
Bi 5.255120415543665 4.8290946126345915 5.398566653640005
Bi 7.143211572349149 8.152204350175612 7.202234217186945
Bi 4.975501206427005 9.678353846188415 10.761172752501627
Bi 6.603627365413277 7.1708374782678215 4.055274638902804
Bi 11.555397939568627 9.481344505059146 7.584424702365308
Bi 7.577556091841486 11.258570864819278 10.998215125661577
Bi 9.664902439724635 8.006495582496584 5.555650553630102
Bi 5.498779592067088 11.941293323698229 8.848859654482773
Bi 9.517281899315998 11.550912845631284 8.55091976597379
Bi 7.329559471114922 11.10974420504082 6.5235973438257755
