11
Energy = -38.30613283 eV
Bi 3.04167930043171 3.22431051151746 7.446698631683182
Bi 2.958154489042532 7.226258828535026 5.444229732056376
Bi 5.531824208607915 7.882894863514766 3.6358798046906817
Bi 5.205508605827169 5.5156752918895595 6.7706702240092955
Bi 4.40775532643102 4.318990447730245 4.031248684747909
Bi 7.667301292388958 5.621253904355712 3.17832312752854
Bi 9.091680523323483 6.681327262910109 5.666813691438363
Bi 6.676286295900305 8.33593631653717 6.38109290779555
Bi 5.116005490176989 1.899402208301609 5.757647170476614
Bi 7.853889135879537 3.8164517753268967 5.6529778444568395
Bi 1.5145683436197286 4.542151853175469 5.099070688415998
