17
Energy = -61.78822058 eV
Bi 10.737749086310831 4.117651704494985 3.9998462531773704
Bi 8.34834502547863 2.7204963949050094 2.7848535691306147
Bi 7.637979150961826 7.1280753596105715 3.3947242239843836
Bi 9.427190114860451 6.353888769019357 5.680912707506456
Bi 9.200816687132003 2.033727153737923 5.603592375148129
Bi 6.009750605714106 4.637298427807671 3.0343904783403963
Bi 7.405334248565612 7.717776505121089 8.389339184800425
Bi 5.247767379416032 8.585687544381045 4.567629092988655
Bi 6.570419054914211 10.168237962770085 6.80060657926962
Bi 7.904089125013375 4.289347810375943 7.264592603802346
Bi 3.7147303149961375 6.482436823407224 6.210479848041235
Bi 5.283159543385394 3.9099562988683307 5.8521347228841085
Bi 7.9216948727921705 9.56783425817155 10.818140035892554
Bi 3.9410570470309048 10.104106940371748 8.319676786024418
Bi 4.480453428672971 7.214146091644571 9.103228426437854
Bi 5.487487720502543 8.586921899664839 12.239389260830022
Bi 5.3617145434610425 11.215173413871826 10.813906824197367
