16
Energy = -57.49626667 eV
Bi 5.870475521500709 5.862230686703321 4.367953429224541
Bi 4.4210206381005035 4.828047930752274 9.539338715372836
Bi 7.437449466581057 5.131196568043466 9.542588779584033
Bi 5.668015843965668 7.590734765201024 9.546654403328258
Bi 5.4966863195622 9.36066769964814 7.13007942493152
Bi 3.3480249874986336 8.6651983366544 5.081239101799779
Bi 3.0125778154584393 3.7786797099608838 7.10782474195872
Bi 4.694250729746779 2.2740649036572265 5.056468904732534
Bi 9.06536130115961 4.430621087700858 7.121701441396988
Bi 9.555500542586596 6.64972107874876 5.088068478800072
Bi 5.591248688442256 8.548538780189274 2.9947939526862575
Bi 3.6842199329271432 4.289543058901357 2.9807349396282516
Bi 8.34090908523384 4.774872364910509 2.9896052115192786
Bi 7.748474270983637 9.145110123504857 5.087687033720942
Bi 7.758738008167709 2.5968714790318055 5.067535769217944
Bi 2.0869014132297083 5.853755993505389 5.077580239211725
