19
Energy = -68.19881458 eV
Bi 8.961287019391236 3.0255841230609106 6.71711477104019
Bi 10.604931845836377 5.247343925417833 8.035148903441028
Bi 7.848298939721343 4.439173409030847 4.248018989686355
Bi 9.212439125791189 5.394474779773547 10.765444829539177
Bi 6.235517544148925 4.7886085998005665 10.629668143013632
Bi 5.252138612722447 3.2154341192289646 4.997943482311924
Bi 6.494927393282895 4.52416254626701 7.592753771946433
Bi 9.950814758599089 7.687133027562649 6.4309600987294395
Bi 8.458835094008881 8.319574516445158 11.049951953376237
Bi 3.2943835007757176 5.36100643918238 3.9168088815002124
Bi 6.8861078187256375 7.190190699453862 5.783952176485742
Bi 5.4835446946293525 7.768435634012811 10.299347561985336
Bi 9.41162964720312 9.729362689703553 8.523638931021104
Bi 6.9570579155597265 8.632397222400558 3.081127897819119
Bi 4.495528754422576 7.318044032596492 1.9310369867401147
Bi 3.6779824074708727 6.6777616861317295 6.575094906737695
Bi 6.274823949624002 9.437828242433854 7.862007783132526
Bi 3.4835100150120626 9.593338432575276 6.231965804554866
Bi 4.294112010035318 10.008227744835695 3.336711754553302
