12
Energy = -42.10554438 eV
Bi 5.600164100422662 8.739177040680394 8.69108821961793
Bi 6.607653414134484 4.100581007563876 9.391478851762537
Bi 4.735221702115808 9.565440730543424 4.695446961727731
Bi 7.107845293963518 10.289365213850392 6.542613904798994
Bi 7.835666648896106 6.910607654797571 9.576121080940114
Bi 3.6115642233029845 7.532504337029311 6.732369287284065
Bi 8.791908749374082 8.314666579635464 4.991228815474216
Bi 9.19159311652236 5.93276523219895 7.039299097410718
Bi 9.353876813320907 3.0998393238311777 8.749686273120583
Bi 4.82122585759551 5.411446268447453 4.964468429956368
Bi 6.43785016212504 7.3906491122636435 3.3103751082252404
Bi 7.109377555548252 3.826506120993327 6.381344556216843
