10
Energy = -35.17481029 eV
Bi 4.18221968227437 3.170099058743754 4.217240865177753
Bi 7.2158450694960035 3.1700604340316274 4.217507971744377
Bi 4.147137198696802 6.443389471703551 4.174253749186936
Bi 7.250609228878312 6.443339818857818 4.1738250349353505
Bi 5.698942587775725 9.268262651311217 4.279838451597842
Bi 4.182100418391369 3.169973560490664 7.180314942272856
Bi 7.215727748154414 3.169975605670744 7.180584800648406
Bi 4.147343926793174 6.44325496587648 7.224130293380592
Bi 7.250815270416363 6.4432627162976415 7.223700196100104
Bi 5.699043182436318 9.268166728081622 7.1183887060206565
