14
Energy = -50.75238704 eV
Bi 7.1774219293636925 4.557388488361384 6.11697839337974
Bi 10.139265947774668 5.180734969068871 6.507747363831156
Bi 10.696777030763252 7.8139725500269215 5.126203089314392
Bi 7.890209547792719 8.96777157270125 4.834808228092826
Bi 7.5121095845592105 8.85733781724447 7.852790197335789
Bi 6.182872373019785 6.224173970047896 8.408336892768633
Bi 6.702563114399561 6.412694512879998 3.801884864293298
Bi 10.319282209555704 7.710808806758496 8.16220021511664
Bi 3.4620245523269118 6.9840703150743675 7.33169999358694
Bi 3.831899910418674 7.191233954973566 4.333814652862718
Bi 2.5937866640929745 4.116854317763463 7.735812820910247
Bi 3.00077325379091 4.456546996189158 3.346229511817551
Bi 0.9666119634925231 3.3616123656455708 5.29988214385272
Bi 3.889350997790084 2.529748442404637 5.506560711977247
