11
Energy = -38.77493875 eV
Bi 8.550523318619046 9.150281680080411 6.545915811124159
Bi 8.78914742492568 6.834866976868152 8.519922504944866
Bi 6.51475726696568 7.652754777183322 10.41123188811858
Bi 10.172164581893643 7.473861820310004 4.562860585582671
Bi 6.395383584387186 5.256813716120542 7.4848563358219335
Bi 5.578657114929089 4.719678981583711 10.456706951755985
Bi 8.227051479975595 8.093793057424923 2.30428092256433
Bi 4.64254954634281 7.7243731034088 7.974354705530176
Bi 6.299606168736988 8.186040647913336 4.6968579895031475
Bi 7.816170450317716 5.623697690559302 3.9836299145838234
Bi 2.9214872921574306 5.836512185092242 9.597158544034048
