17
Energy = -61.7329767 eV
Bi 5.509059896989196 7.1465740046883734 12.006456477291906
Bi 2.715159749246887 7.128047079378216 10.844764395133778
Bi 7.309700252582576 7.236202083768329 9.506638628981563
Bi 4.279258374343401 4.5404297936606355 10.993984933882825
Bi 5.656322250616779 9.459767376480174 8.342472776477285
Bi 11.610756285108131 5.301022583606413 5.074002423978847
Bi 6.087352377833369 4.663701900440847 8.502397642295916
Bi 9.947619556178715 7.153250987244199 6.851958526213497
Bi 2.993468829136399 8.109527469205911 7.992584715110918
Bi 8.772226838089148 4.53086257845926 5.924650973122906
Bi 11.303936927044653 6.431851531780768 2.3353949158103906
Bi 6.006221168290939 9.487359622513305 5.333301977535516
Bi 3.7486551061914954 5.458213212316188 6.792900914199386
Bi 8.99889687644348 9.22139331574493 4.87681128083967
Bi 4.819278040146817 6.851264729457642 4.324033926278339
Bi 7.187685673353976 5.16648036976982 3.44276558342441
Bi 8.560717075474555 7.620366638555527 2.3611951864938527
