13
Energy = -46.69532638 eV
Bi 9.545780258612437 2.7540413908274863 7.777997540820942
Bi 7.631964091908531 3.838647727886446 5.630320630575977
Bi 6.804499388832578 7.511498822268994 3.78574062542066
Bi 9.030908832108333 6.531928828749364 5.6286951262716345
Bi 9.550116384761367 5.121433050837131 9.675497529291032
Bi 7.489904428876324 2.9713917874638662 9.939373256164652
Bi 7.667860785697714 7.144217843680228 8.266922881040939
Bi 4.385270652820436 6.386143013672245 5.1866662873682365
Bi 5.645135081707045 4.967235431857061 7.643220693509184
Bi 6.921237379931653 10.37132223347808 4.752831607652006
Bi 3.385152457189626 8.704133153316679 6.837116000925026
Bi 4.045111548659001 11.18349676832352 5.231323121287732
Bi 5.815105123440078 10.351483886855792 7.568151048089205
