10
Energy = -35.94248776 eV
Bi 10.60156941395987 5.997981949193373 5.412555462973624
Bi 9.153259467386357 8.522573603788201 6.228197711511659
Bi 9.228848755113155 6.164488878078819 8.115984364637747
Bi 6.4278860450540405 8.434554135527206 4.9366122524071185
Bi 8.230851262880137 4.226588114117916 6.021374032315613
Bi 5.841981923069195 5.520193214006367 4.709609859150966
Bi 5.15339911874929 9.21133990773905 7.555935095713574
Bi 5.243714613224496 6.761107015996826 9.32182461535202
Bi 4.184943886129929 4.934367207097267 7.160079708834762
Bi 2.694895716784081 7.476915309934259 7.835067955315676
