17
Energy = -41.50861523 eV
Bi 9.95678495826666 5.398686235411662 10.370514360304737
Bi 7.911576629385793 7.293489269508413 9.522129646287791
Bi 8.816016473421119 9.55366593643307 10.597735152426537
Bi 5.303933183061964 9.514674664332532 6.445092794626669
Bi 10.76893457825127 7.78429193870627 9.723026455659033
Bi 11.27024498702944 10.786222209403029 9.49051107520658
Bi 9.678192870427806 9.301882456249032 7.7178089928760585
Bi 7.543228359923501 10.99932931422571 6.423574827364989
Bi 7.592232992044891 8.041666481739055 6.533603633550265
Bi 11.230081835447752 9.50874100057079 11.879165809555408
Bi 9.776807458831318 6.682946629819365 7.418974426346606
Bi 8.023977735610611 5.369723183390286 5.850357979981939
Bi 8.12758809521874 4.7210261899267545 8.627865924601055
Bi 6.985219535627324 9.740594354777503 8.797255922666578
Bi 6.106235946974051 6.248468864267296 7.810200073080893
Bi 4.7975067980393415 8.250042614203979 8.854023858242986
Bi 9.005631299025696 11.807773058311122 8.533796040978745
