12
Energy = -42.9929811 eV
Bi 8.111515631118882 9.32574717547634 8.748003421443393
Bi 8.497121160041523 9.215823844199308 5.724175690466319
Bi 9.460022391567472 6.453614141210042 5.097722974107038
Bi 7.931225542028943 6.44095103698128 9.718736158555064
Bi 7.129472218776764 5.057530640015762 3.7124982861236524
Bi 9.101636548293317 4.726435099571281 7.562199252628652
Bi 5.489608672436947 9.293866506648094 5.3534623544265445
Bi 4.924250438595652 6.473614148214345 9.34322135281359
Bi 4.597403357110673 6.580973003587363 4.461098040923272
Bi 5.023305491819764 9.360356875086644 8.365447470166307
Bi 6.761530269738305 3.2817944761685673 6.240906847706538
Bi 4.240040673614767 4.850922505463029 6.924297666360916
