13
Energy = -45.73454834 eV
Bi 5.781574235966771 5.1008341977721 8.403120382358377
Bi 9.70725159118051 4.47619907605704 6.686767354273282
Bi 8.595218232969897 5.5473571675174504 9.241935503667698
Bi 7.125414755103622 3.2033326661166703 5.7780683064993354
Bi 4.825687121022536 7.257366728902749 10.312242305439668
Bi 7.026249606803401 9.252472269046242 11.01890855105147
Bi 5.885118412079467 7.073651812337568 5.851381679086749
Bi 8.752812334778879 7.0157525585054135 4.994775527341291
Bi 5.661719577019099 9.585288349790202 8.319584013965258
Bi 8.534289165275101 8.609354995911488 8.416395130265345
Bi 6.742594920945498 5.195646382824745 3.5441638919318272
Bi 7.123839960008632 9.7372339327949 4.30423445683501
Bi 7.8950414177240065 11.24100137812855 6.565267982477053
