18
Energy = -65.64865929 eV
Bi 6.95439473074378 9.715941278472615 9.182818008601664
Bi 4.693855836947321 11.697755273790097 9.485386105650612
Bi 3.2704185520387896 10.49333348369337 11.88092976216052
Bi 5.457837872042463 7.083307485348989 9.063827006486743
Bi 9.043939696100713 7.807748198602366 5.555377052076007
Bi 6.831602366373226 9.82241099806478 6.116779171464881
Bi 2.017874212797103 10.318499828449415 9.146139526248886
Bi 7.381763434701458 6.975780499853577 3.2048347160186705
Bi 2.904731801362315 7.786850867166225 10.565916514577665
Bi 4.346703296389805 8.067659964294993 6.418241163066736
Bi 8.593401415076984 5.656512080512533 7.6149227481468476
Bi 11.374584444025714 4.143279714846151 3.7117940639142426
Bi 11.094750536221124 4.177114576048288 6.714049519952193
Bi 8.632871847075059 4.327132619504351 2.3895045686207257
Bi 4.99348140648822 5.719327456235171 4.552692245621503
Bi 6.351734325724745 3.9359079429778294 6.566002784313715
Bi 10.309657651041135 1.6916845143246024 5.231451021264151
Bi 7.451179696026817 2.2845363389912663 4.304117142991494
