10
Energy = -22.78746788 eV
Bi 8.35306972805072 5.157183974227527 5.400725176740171
Bi 8.180383461616595 10.31625525142348 6.972826623629032
Bi 8.994720457836722 8.443089717782662 8.611328666891549
Bi 8.456886474055693 7.782276031344749 5.9635977465400005
Bi 7.123285222141461 6.2411178557365945 9.059192025662773
Bi 9.380995496032078 5.835774447765986 7.85067013775852
Bi 5.603854670957322 9.988289867806209 6.950754229063016
Bi 6.4986368383982525 8.851363936005688 9.236394398433976
Bi 6.505830795448959 4.583110870832428 7.148207406620428
Bi 6.064116311392732 7.328169029602988 6.727625835309074
