18
Energy = -65.69970996 eV
Bi 12.500048000299405 6.207326196432968 9.64472047327263
Bi 10.500858040393174 5.630653610878057 11.830017344999131
Bi 11.776399115031587 3.3459864385665723 10.230570716570028
Bi 10.859054303589945 6.969397751186577 7.209144012402543
Bi 8.190633409114882 7.593338715894157 8.47617124434021
Bi 9.15343276006565 2.9653676593737934 8.710218029970129
Bi 7.883420919874121 5.226738156696074 10.30949039682481
Bi 9.916166679684192 4.316489672018487 6.140468835902508
Bi 7.485006730070567 8.030513558060417 4.196919083198213
Bi 3.5554315548335853 5.664466650316472 4.705224904072259
Bi 7.1760561708617185 5.791536941665183 6.201286957966415
Bi 5.0133620417067 7.161860249475946 2.548214917410853
Bi 4.0180343861208145 7.406581417314959 7.135313872728412
Bi 5.656252964575552 9.685250781698514 6.028889726687045
Bi 4.383710133749369 10.009556731788907 3.299027143461021
Bi 0.8007986960046997 6.9535259835723515 4.24360021682916
Bi 1.2604258783338016 8.711268471967188 6.7002046940190585
Bi 1.4183246752753158 9.87755747267929 3.9379338889299493
