10
Energy = -35.16038838 eV
Bi 4.758959742515663 4.360923348326822 5.115946923738632
Bi 3.926820835107676 7.313484536695204 5.28493863152449
Bi 5.210398298399881 8.525113356648072 7.767447819526253
Bi 6.426628751537524 7.797955584185287 3.6409655249059916
Bi 6.902107159473296 4.756215327960469 7.113510806590486
Bi 8.658716908981727 6.416578367207897 5.248490941356656
Bi 8.249021244890772 8.388756256329662 7.508926816444551
Bi 6.652875094693931 10.154602797203465 5.634835357016562
Bi 3.9678936831050127 2.121619822005018 7.021633776645434
Bi 6.7665870703863575 1.6847595279396275 7.183311920521203
