14
Energy = -48.58171801 eV
Bi 8.419217009961855 2.9405044849291495 5.094187420108808
Bi 7.6410884532677805 5.549339901722252 3.5931706500383505
Bi 7.602043551272904 9.6629196077608 6.838408907288565
Bi 8.562767840991109 6.257349772540921 6.649861588653475
Bi 8.076336437324223 3.5900643553219815 8.158039353565549
Bi 6.341212341047852 8.640480145417339 4.132238974118575
Bi 9.86671821714376 8.213315839007535 8.91041869054197
Bi 8.834450070558978 5.751321695452123 10.21338573669237
Bi 5.560303922718422 4.021874496977777 5.054415258666169
Bi 6.939195689656771 12.143926474298404 8.60714685453563
Bi 7.8017891810280595 9.935838449796949 10.512341531043235
Bi 5.747796305808977 5.850619836797308 7.663641760770992
Bi 5.287419295930094 9.570192550024398 8.75345518311363
Bi 4.124665649214778 7.942427046752768 5.857567892430807
