15
Energy = -54.15341832 eV
Bi 4.083203380087382 5.512201437490407 4.3543883009586
Bi 7.025127653962248 6.332955510489025 4.176360016951048
Bi 4.157205061433948 3.074741658538433 6.179766291936154
Bi 8.04299836549775 4.408027033026013 6.245450613477098
Bi 10.134303760657753 5.863823640384725 7.881074680661009
Bi 11.470586832893918 7.822666038887449 5.981869905699137
Bi 6.650459582305157 9.088996962425817 5.3109851906898164
Bi 9.531535223411815 9.992638837160612 5.190065821554466
Bi 1.5545390766318818 4.459429957022637 6.881813202440656
Bi 5.940203115749476 4.15122946692905 8.38000138801236
Bi 2.792183923187232 7.193987965390678 6.537388344090826
Bi 10.682112022419048 10.02678518049864 7.97865037904966
Bi 6.378494983125408 9.110978516843195 8.302595565856972
Bi 8.905998939967441 8.081781595346337 9.539379912365828
Bi 4.552082177335204 6.780790298232644 8.961244484922663
