17
Energy = -61.02992499 eV
Bi 11.50720365800387 9.462230614496933 4.49873546829164
Bi 10.82723243550111 7.493275186484369 8.233206030327032
Bi 6.609244881319129 7.82696422625445 7.985329798748107
Bi 5.339307238121347 8.153994455895134 4.789096694127688
Bi 3.459980519057616 5.163323532317911 7.962546643497329
Bi 4.815785720730402 6.684466059256657 10.157557361078
Bi 5.843651367804003 3.9576873417021243 6.509836234536897
Bi 9.52100840027166 7.320300813818033 5.442617969066861
Bi 8.774724590141188 9.229546524354095 9.662338362708036
Bi 6.980194229228965 4.6336122581173855 10.743056003329249
Bi 8.559370509324461 10.144634790380096 5.039362675251208
Bi 9.402208094581388 11.448814826398195 7.685735540116743
Bi 6.5912124848319635 2.241335519056352 8.902519104378865
Bi 8.413411443980303 4.512250954503271 8.041428906968044
Bi 4.55541924721668 9.918299856010831 7.093861758542377
Bi 12.163891468600307 10.138377882902086 7.420108094820185
Bi 2.7494051642089685 7.607936481039258 6.238941470462499
