19
Energy = -68.32435161 eV
Bi 9.441872238132293 9.017508789284031 8.48268871811375
Bi 9.841675690385935 4.436842583948976 9.778906934326287
Bi 7.797247185640203 8.710947929215308 10.994911294352784
Bi 7.656288685485044 5.705124509696009 11.434744937857351
Bi 8.927368564648651 6.11158129785227 7.352910159266924
Bi 7.043078761275471 10.286052515075411 7.172250777096947
Bi 6.947325115998983 4.251730747240958 8.87325025445361
Bi 5.240215895413701 9.585894275542582 9.544679954980205
Bi 10.644953473810702 4.66346472572665 5.151779142364466
Bi 5.207120262377398 7.171874707328995 7.681453870381973
Bi 3.4814723901620472 4.2711485970554595 5.226194516669135
Bi 8.01870379125561 8.616635951169538 4.5022386003895045
Bi 9.97281131418217 6.6448035527381215 3.0084351261826905
Bi 2.5825548762686434 5.500811808684924 7.827781543428281
Bi 3.9046765191619928 8.92784129970049 5.449062991377519
Bi 8.405408689887771 4.09295394254315 3.187231242625354
Bi 6.341819615158246 5.715555533829628 4.848865951499835
Bi 5.451351978260184 7.948565978220699 3.032227075734568
Bi 1.7441159749770674 6.713671607738489 5.190713040317895
