18
Energy = -64.1362571 eV
Bi 3.841270355380958 10.516784880045435 4.517820870739184
Bi 8.410579679327876 8.622985695454796 4.082258931558398
Bi 4.895327888214631 4.287484579356386 9.917485361033243
Bi 3.2441435098614866 7.88613397179935 5.781098785921268
Bi 10.737355337146639 6.802876950983272 10.917943931476387
Bi 7.065901736913755 5.804261235208541 6.097341168680882
Bi 7.806134817121011 4.266504662448903 10.728032680335405
Bi 10.13870971823545 7.932434218020619 8.123214570960103
Bi 3.9233301345645515 7.964926077293062 2.8192986448671364
Bi 8.677489741715679 10.65209426801766 8.822016743221253
Bi 6.629389541908379 6.594415196797759 2.919426890417653
Bi 9.93636069937696 6.349963565205266 5.365379088307805
Bi 10.386718181696725 9.793520242244693 11.27840463611726
Bi 12.696785664437343 8.728533857181036 9.644849495339555
Bi 6.668129682363496 6.669445482337256 9.202362645943676
Bi 6.985422771247 3.1957569283048635 8.013506928909935
Bi 5.942544625544966 9.723041363701347 9.465290849862638
Bi 5.971450838275731 9.209586233164897 6.359453907901428
