13
Energy = -46.71625528 eV
Bi 11.93362746584085 7.44605987449724 7.311928026910545
Bi 10.480916662135023 5.622772847784527 5.386122269558105
Bi 9.947556945090435 8.593226938392432 5.316056672548256
Bi 9.338757075793023 8.697722006177548 8.309093565510214
Bi 7.546674964235227 4.807791997874185 6.413854818443138
Bi 8.194181476766358 6.032743361510946 9.119008500158795
Bi 6.581752920672263 7.280922098670471 4.9909605744828935
Bi 4.84607243800185 4.42418785990567 8.196630408973265
Bi 3.8154975539739784 6.302055066367453 4.004093923489538
Bi 5.325080724485225 7.043445031883428 9.554531377476998
Bi 5.286243451731033 8.909090328865727 7.188429115066396
Bi 2.5003905031033593 5.082021763862616 6.4304346605898095
Bi 2.532068765890912 8.086781771926674 6.107677034511583
