19
Energy = -68.33208976 eV
Bi 5.8933401253775966 4.437045181037436 11.910253780256038
Bi 3.5169930607774513 3.326664071522316 10.314067009161786
Bi 5.823217412368825 6.939360939549081 10.083255745458246
Bi 8.103692469366704 4.986718112988808 9.922867607163427
Bi 3.5999108226731065 5.733922619799192 8.37716904004033
Bi 9.975866744180744 7.5941799543689825 7.854252209467165
Bi 7.486646837048056 2.7594392372199557 8.011389192454734
Bi 4.545205939474735 3.012274461721867 7.514114846246252
Bi 7.026821802685715 8.682318861220887 7.253102581519977
Bi 7.969530406112053 11.156543213630965 5.6467373582970115
Bi 8.221049632055303 3.7611191538890285 5.255433235381192
Bi 10.679457906376797 9.42880201751426 5.561351549603373
Bi 7.072910461351174 6.736233825131913 4.884396895338109
Bi 4.747965117435617 11.495560961492147 5.776149218331732
Bi 10.6987470847495 5.398823117156502 5.835746958695351
Bi 3.9788872592162905 8.60535987327814 5.96433318692913
Bi 9.823053391135419 7.309542661301795 3.6082378705343623
Bi 6.2317558421805 10.944338301800347 3.1888848166037387
Bi 4.961586942310793 8.155743491670066 3.147806853179273
