13
Energy = -44.68230931 eV
Bi 10.756058465177832 5.281469437528956 8.261456978118046
Bi 10.36402380592877 7.586398973562405 5.9802510328060805
Bi 10.255414819072739 7.319103185367374 10.230637320426261
Bi 8.793364400043169 8.685617802770386 3.6920895269616016
Bi 7.778564175500223 4.410057734959105 8.571140495155467
Bi 8.900579864277153 9.423650140369315 8.169174422441149
Bi 6.025089501434939 10.435775415535497 9.57683057812533
Bi 7.002025517717006 7.338546432491934 9.63990726847773
Bi 6.987391200039048 10.044722624676098 5.5689124246830435
Bi 7.319046965191888 6.890095101783462 6.503173925820559
Bi 5.343081410834793 4.41842547656489 6.576364849757386
Bi 4.338376633527717 9.642686197414188 7.3738652289495
Bi 4.180406688137059 6.600890759622315 8.223222778007957
