18
Energy = -63.76188753 eV
Bi 8.919333935291954 10.158743228563518 4.314108207978053
Bi 8.284860635041758 11.490640829428752 7.08720140688249
Bi 8.76675002049469 5.354127410159961 8.27202483711208
Bi 9.936425283162983 7.388154764211444 5.130555949892025
Bi 10.765986486666112 8.491328460907 11.238342426359432
Bi 3.915079559106336 9.384531452294365 6.32476798450506
Bi 5.577613056781753 5.708984735695062 4.575725427991127
Bi 9.571495871902082 5.7530087907310605 11.388715867997712
Bi 6.536568686732647 7.03190437441496 9.403124302299956
Bi 8.144995279630983 8.106772440079087 12.66185226412995
Bi 6.211207090259343 3.5892846739675406 8.242176177297678
Bi 7.607870139558086 3.7182806918516005 5.591060514062286
Bi 5.420062395303315 11.247750580294808 8.13758712328727
Bi 11.694007369986133 9.766006126953805 5.386103569632939
Bi 7.571672353984289 9.875283413391621 10.104470680686038
Bi 9.973270366261326 8.987354449058566 8.013213523812786
Bi 4.251210133214573 6.008895202140113 7.289154265658805
Bi 6.624857045886992 8.01339342631621 6.272169712491417
