14
Energy = -50.57353115 eV
Bi 2.6078420483149967 11.117359454612435 6.682291497240857
Bi 6.192725720144226 5.906146260264806 9.096399379019433
Bi 3.994592035027466 8.537480370356656 7.63003776644308
Bi 5.7847389081880305 4.8847395277991605 6.278900258451306
Bi 2.3342385360756404 8.622163195895018 5.056816988504612
Bi 8.742440416466737 4.644670882613023 10.168303639547949
Bi 8.829149723939896 7.408680759680334 8.95390865016137
Bi 4.454217106260846 10.664647671426653 4.311162858937762
Bi 9.70820744200765 2.6347656813024694 8.126604504895816
Bi 9.849424456394596 7.046764764667124 6.123992704453168
Bi 6.535491063995947 9.459891361548724 6.236393708402492
Bi 7.232350592580364 6.96698507379236 4.634698635660471
Bi 7.83802085527927 2.718697260165575 5.760879723024087
Bi 10.525567899976702 4.138895185401268 5.6491587908681
