11
Energy = -38.95861122 eV
Bi 3.333027706230827 3.8138270981361235 2.98660071952382
Bi 6.123654416219963 6.126432233453559 4.085966927221311
Bi 5.718129793416688 5.44236885870097 8.5787612326211
Bi 3.3823564824694894 6.827816865622212 2.9234106926763785
Bi 9.193218460194629 6.519399617691167 6.085308706259541
Bi 7.5734343327772535 3.9585547433320247 6.793477009275977
Bi 5.348259485887327 2.6213305316891224 4.995792858382
Bi 7.638012216044733 7.820696838018539 8.334557615744831
Bi 4.150119933425968 6.754931920750404 6.215343238870963
Bi 7.172736385319149 8.713216277789249 5.4695344981933784
Bi 2.8310442168090035 3.8654186761958136 5.995239697442205
