18
Energy = -64.19570355 eV
Bi 7.596975738682899 5.7364889072350636 9.98310366962449
Bi 12.952832081033874 6.648387550813331 7.833836761965781
Bi 11.768428917119918 6.529790150347577 5.0226306404987895
Bi 11.951109869739865 9.138960007004664 6.513392783080946
Bi 3.8160826884958112 7.202571312101026 8.269159293671533
Bi 4.60466493620432 9.576797102817928 6.564588160915738
Bi 7.821541539570181 7.84283134627066 12.090008002151967
Bi 6.926842925759961 6.552084222451943 6.716359236540749
Bi 9.40107753445431 9.956579724851697 10.667020101620126
Bi 6.031390442782129 6.825310280930703 3.6509919891802003
Bi 10.43510343764727 5.002439829980764 8.882099399959323
Bi 9.39717588227766 4.810335247996307 6.044137385557383
Bi 3.3062465306130315 7.147406734634955 4.76326224207951
Bi 5.5171521253219815 9.003149222916074 10.194570569748539
Bi 7.3351772815164225 10.551583846824778 8.337691944845295
Bi 2.7697790763214485 10.004752324810891 8.885504630404586
Bi 4.917214558472601 4.629300988758795 5.350433250995293
Bi 9.52607625084386 8.241297206355249 8.191844192888105
