10
Energy = -35.21571852 eV
Bi 9.536332775125757 9.980369637204374 9.919636837288786
Bi 8.427213380423447 7.131932693515862 10.201881802173073
Bi 8.420860532166442 8.21634387580165 6.614879743644872
Bi 8.249682570790354 4.798707102998744 8.139683355925182
Bi 6.595279855054988 9.577407159980142 10.306389016109819
Bi 7.94752138443334 4.711437089859925 5.095331565389153
Bi 7.578304708919797 10.933358384112019 7.765915918849731
Bi 5.454104347490238 7.811876597673406 6.427127942097336
Bi 5.523405799648851 4.740054803152428 6.905688081483085
Bi 7.1635866389545 7.4859958798229425 3.9547987512955696
