16
Energy = -56.28451513 eV
Bi 5.741539200253466 7.556017753647116 5.108522113065305
Bi 3.1380419090273426 7.392927288367835 9.100128050415885
Bi 11.883184509662124 7.919669200191227 6.133585203896928
Bi 9.234571147568259 9.425970477229894 12.23240503605721
Bi 5.68226677962926 5.97156139985659 7.726509027193051
Bi 8.062288694537958 5.254597147645357 4.764263868462742
Bi 6.142283065182311 8.254053704912737 9.91552348634098
Bi 3.5521808428467545 9.079121296569502 6.854960793120893
Bi 10.604736781872472 10.278612851925406 9.343803635809488
Bi 9.632526351779331 7.3594371306911555 8.412687944045096
Bi 8.450023903906555 6.709172968494365 11.21799124309427
Bi 8.425511170579531 4.550235490094496 7.577875617003978
Bi 9.43559807748049 8.004145536426348 4.485950212641785
Bi 10.597765745816542 10.618493975811104 6.241305595258437
Bi 7.502124951324011 9.2425337457855 7.080324352067816
Bi 7.867963698113568 11.15760822833822 10.143827207503335
