18
Energy = -65.77208703 eV
Bi 13.373609327667205 6.590722986437282 7.399734131248629
Bi 12.585370393635449 8.344064111535442 5.0236666551501115
Bi 12.723362666074042 9.50267674102865 7.794191070856768
Bi 9.43794367046395 6.7178803470270765 9.657843325322236
Bi 9.823685731476282 6.9857773596248105 4.949248581722992
Bi 9.85544362758921 9.568335471908517 8.792556827410216
Bi 10.606664978784229 5.2536765555533815 7.314334800935539
Bi 8.264927411798974 9.20648698500935 6.2413619947077015
Bi 6.794143373133204 5.146918842009067 6.327206406640228
Bi 6.749743128269811 7.426867065336926 8.261047234090345
Bi 4.949280686888875 6.674126565692993 4.375455848845824
Bi 3.629070466000801 3.9555632532413894 4.582300099147193
Bi 4.333274943735884 3.6409114282959893 7.489834658054228
Bi 3.4159475977749025 8.174507740730633 6.476677371798061
Bi 3.0260090151086287 6.083413038719118 8.64040580419604
Bi 0.6816935449470474 4.6668723186515475 4.7347091990770105
Bi 0.5928945775165613 7.598687925050566 5.3946173625051195
Bi 0.1976885914900177 5.503264996501978 7.585562360646288
