15
Energy = -54.25683761 eV
Bi 10.521819589352072 9.222512577105746 3.620979121487666
Bi 7.923609815551583 10.790484409520719 3.8065200880363372
Bi 7.222428210971225 6.630356030500713 3.956145873970174
Bi 9.930775834260979 6.7145775626345 5.3226781096423395
Bi 10.102643966954853 11.258002558020292 5.789785211249916
Bi 6.356065640539054 8.94279432298643 5.744069050536854
Bi 5.933124555278171 4.194951150249569 5.338229195182912
Bi 3.5291080840320133 5.700451501995297 6.250166066521757
Bi 8.845354237047701 8.59282804408642 7.461111541667039
Bi 2.684213835425874 3.4141408744358595 8.101699102298262
Bi 7.526649067481699 3.9716746773225475 7.869272425357849
Bi 4.455021154499443 7.366583257927246 8.61150236564145
Bi 7.238442516037971 6.57692611448066 9.304775144032963
Bi 5.274756052720784 2.722443410686929 9.490631669406024
Bi 3.6140971489584484 5.059383217159546 10.49054474408064
