17
Energy = -61.73238831 eV
Bi 6.787580406991875 11.942748810477854 5.447989257905561
Bi 4.513693572461413 11.655360313798509 7.407346011287471
Bi 7.388418849567509 11.998052643519934 8.409015621153278
Bi 7.919190351105758 9.34569907867295 4.381523992306804
Bi 4.570743441470706 8.87383365613587 8.60869666242848
Bi 7.5494949597227 9.00065267028147 9.185913262173392
Bi 9.384733698401806 8.59875819398143 6.87119289754388
Bi 3.699608715288902 7.207818972192442 6.256245960838047
Bi 5.6094390900910405 7.448072179358179 3.915030453406062
Bi 9.079492973392412 5.4173992992156785 6.641907613727246
Bi 5.278859221637004 3.2843378911048164 5.0537979716534815
Bi 7.48661561744155 5.088488233341503 4.099370886712703
Bi 7.114408228894847 5.1955922737735625 8.914212813598208
Bi 4.464632148258363 4.6032428064857625 7.6202330600129216
Bi 9.63688066915682 2.198401108576449 6.767973158761761
Bi 7.728951945475871 2.174589096378613 9.104034796714204
Bi 6.8784576320929425 1.0727526220347134 6.412442149796393
