15
Energy = -52.38424279 eV
Bi 3.4791481737669434 5.100452125169643 7.308382043099326
Bi 5.576734579347319 8.201116704858263 4.204245492743846
Bi 6.522331298823649 5.005132171956756 10.19122885491017
Bi 8.992593751307538 8.498416244840044 5.352523820518399
Bi 10.327160023947195 5.40811419290291 4.864280210241653
Bi 5.67979323523243 4.179172736145165 3.9305637955389665
Bi 9.759462211384218 3.998668546793797 7.303563413404276
Bi 6.143990320916471 8.935014379459426 8.855530214732223
Bi 8.176476551291723 6.76264025219622 7.939053230456319
Bi 6.549561510899171 4.359918940895765 7.03837462034956
Bi 6.907593990273579 10.427244357908933 6.254290908221945
Bi 3.2635428726669087 5.805751092243468 4.1000996811974115
Bi 4.099281043144528 7.987856029940052 6.75971586243853
Bi 7.873536006979077 6.2570241051511735 3.2630895019572774
Bi 4.105743674556521 6.530426795366294 10.092007026017438
