13
Energy = -44.33009291 eV
Bi 5.840757404551136 5.840757404551136 5.840757404551136
Bi 8.576061314851607 7.490655829038513 5.840757404551136
Bi 3.1054534942506624 7.490655829038513 5.840757404551136
Bi 5.840757404551136 7.275009859046928 8.749721941470057
Bi 5.840757404551136 4.406504950055343 2.93179286763247
Bi 8.993614 5.840757404551136 3.2624751030269357
Bi 8.576061314851607 4.190858980063758 5.840757404551136
Bi 3.1054534942506624 4.190858980063758 5.840757404551136
Bi 2.6879008091022696 5.840757404551136 8.419039706075337
Bi 8.993614 5.840757404551136 8.419039706075337
Bi 5.840757404551136 4.406504950055343 8.749721941470057
Bi 5.840757404551136 7.275009859046928 2.93179286763247
Bi 2.6879008091022696 5.840757404551136 3.2624751030269357
