15
Energy = -54.17459113 eV
Bi 6.972866826363841 8.935017340918414 10.065368704755137
Bi 9.160482216875815 7.454262077454216 8.521457347847605
Bi 8.062224414669926 4.67062766045947 8.196069528159518
Bi 8.406518727948773 8.732028747713041 5.901049566129671
Bi 9.132143342244705 4.129577868024224 5.394125736790944
Bi 4.961790267524197 9.774090952955179 7.976889475346382
Bi 5.038907328497352 6.9585295186221074 11.379215625907587
Bi 5.569168187636298 7.748300512741768 5.6586086601228445
Bi 2.877448507560121 8.304844605515868 9.652558074537781
Bi 3.5819046399540113 5.412908576401295 9.254531442412771
Bi 5.412641485059336 4.977311221704266 6.851116361746551
Bi 10.167175294328773 6.780879381085763 4.418291488287613
Bi 5.757671288860081 6.7348921216583815 2.632680561869457
Bi 8.584267017326235 6.2021411779664355 1.8419543071846194
Bi 6.900116952459854 4.027302160062836 3.226338052731896
