15
Energy = -54.23270536 eV
Bi 6.502886169428592 1.8122820544700229 8.77201317716865
Bi 7.079378901692118 3.348133505635896 6.234550794182235
Bi 3.5949998465717696 2.1012717021275735 7.923379716350076
Bi 4.317559536962244 4.570041864639493 6.138881185317906
Bi 8.43580319176748 6.909897142608098 4.476623559002321
Bi 8.847580484874333 5.611962027773852 7.175708603427377
Bi 4.627443987430031 3.55275075459819 10.386176349986398
Bi 4.317338656363279 6.080407312638687 8.759497225918095
Bi 10.34688653709789 9.149658924503738 5.11437239731259
Bi 7.105181782935892 7.1905376115195 9.098399472271767
Bi 5.734595126215419 8.131438170013082 4.9467239064842765
Bi 8.922435398393867 10.870720012705219 7.134511380489337
Bi 6.213350929968015 9.608798798825296 7.51290968985651
Bi 8.830247721482609 11.606949274849681 4.194625694460554
Bi 6.210199325895897 10.541038440170789 3.2175144448513406
