15
Energy = -54.2494983 eV
Bi 11.44314134788936 4.8421509244874485 5.911611740873158
Bi 11.210964833248878 5.741768596076656 8.798796518952928
Bi 7.4054252748713765 3.8418148711090496 7.675120623014172
Bi 8.599584972620791 4.325426831246272 4.956032382731819
Bi 11.436914168777703 7.764860879049664 6.578601888854644
Bi 8.219856610427604 6.340088434009741 9.127613647085779
Bi 4.519509481660547 4.540718052198751 6.912492170090578
Bi 4.9734849385915485 5.917284275388644 4.269115486297164
Bi 3.871565762118714 6.664011602285128 8.957086307844275
Bi 7.732756698800313 7.151081928522055 4.387432613776572
Bi 8.20422943471265 8.506306555337636 7.027630871397088
Bi 2.850133190617732 8.043346869376427 4.465445955118937
Bi 1.6615265579540186 7.911367889680625 7.2383531113971
Bi 5.489600971037115 9.168487745221023 8.46720521892587
Bi 3.5166289452800545 10.233757352523172 6.440391803678191
