13
Energy = -46.83017267 eV
Bi 11.783654385764983 7.092080910725726 6.618192212642646
Bi 9.89264194041294 7.4195387710018865 8.97305824985208
Bi 10.265360998682263 8.272935002737611 4.330056298467196
Bi 7.547748484643188 8.8768742642583 7.75928345462545
Bi 7.378732286142986 7.752945912756488 4.979319611830818
Bi 10.035478224967774 4.784302071807794 7.5339524437675305
Bi 7.773431870552855 4.828155094482889 5.542757194360022
Bi 3.3577519759027097 7.482637205474825 4.804512158898827
Bi 3.3055947487317328 8.51280651728718 7.647836970577798
Bi 5.526512838607045 7.095364181945516 9.131333339206659
Bi 5.718422776303336 4.434145814106432 7.721123407937781
Bi 3.5291762212590623 4.581442781527689 5.640867299845986
Bi 1.3688844790754742 6.35016270293384 6.801098589034209
