12
Energy = -41.08344729 eV
Bi 6.407146317414887 5.247857749764732 10.045609852622693
Bi 7.0105063133432175 7.918294273127504 11.397537904314857
Bi 5.699175865875627 3.288698605712611 6.789703143784583
Bi 4.6493428900177465 7.537024632224231 9.476807978902178
Bi 8.2995483135718 7.5557569719585205 8.588306072121938
Bi 7.635348305107435 5.590560829092148 5.792928283350586
Bi 8.356709400609322 6.946232248473526 3.0779749303331014
Bi 10.347148863581234 7.368426562158958 5.280921077477304
Bi 6.595083686318885 9.506363611042836 6.989569320296747
Bi 4.2332253057551235 5.708363947586537 6.560924080217523
Bi 5.818914909309302 7.775488127415689 4.572474705898014
Bi 9.600493287398342 9.891821466666661 6.686477349610539
