17
Energy = -60.26273364 eV
Bi 11.118469875753581 5.301704038251075 9.422816972868334
Bi 5.53231177986388 9.870877094215386 10.452598046168823
Bi 11.14131223748675 8.70363630596612 6.621758450087281
Bi 9.275635063220431 10.765470183725851 5.684837288346099
Bi 6.92585897528439 9.882188350147556 7.673364170788795
Bi 9.108310208568986 7.6370325125440806 9.11505018615938
Bi 3.2068114788054682 9.715618467947 8.582031769485873
Bi 10.842072074942111 4.239946024490241 6.605469548499928
Bi 4.591228369426432 11.187461994557985 6.238472541256825
Bi 6.3865666325726576 6.753973996392095 10.407725419533726
Bi 9.454843758686385 2.828922173502863 8.873066153416
Bi 7.84852510194027 8.656836596336044 3.9988452651074944
Bi 8.791155808394944 6.54378947101634 6.266658307509778
Bi 6.570835378641491 3.810438729373002 9.020957889382444
Bi 5.1143084685512115 7.314921226001237 7.613135554599248
Bi 4.9345327150922955 8.692015059970819 4.538384451982805
Bi 6.139314961029273 4.693706504680348 6.284351800027515
