18
Energy = -65.64095863 eV
Bi 13.563895027932809 6.547219277897966 5.295615464203043
Bi 11.492538104669336 5.431269630625238 3.3176333396928164
Bi 11.550600471213162 8.36358158741737 4.001329904483587
Bi 12.057419507084612 5.364927517716323 7.678393616548562
Bi 10.457863721151563 3.7597004670980887 5.671430406679796
Bi 10.233813658832874 7.6435487693529485 8.394246836691375
Bi 9.20697989555354 8.86835555104389 5.850132903612568
Bi 7.549544580694178 4.429305740157144 6.343984705913109
Bi 8.0474881893436 5.6663450181253925 9.055599365146394
Bi 7.3488422848735695 6.849309074207238 4.600992676777777
Bi 6.061533783844214 7.957976375875608 9.045073367180898
Bi 5.036552336548822 8.08226946437708 6.1565161910838
Bi 3.6347833709639716 6.1634146563730665 9.60107459038168
Bi 3.5248220595464477 5.495587827833099 6.653985714059918
Bi 1.749034577566086 8.51053204824364 9.81159016394528
Bi 1.0344919296110395 9.492216570100483 7.035892695389938
Bi 0.861144147234087 6.706249963034948 5.851150408308229
Bi 13.56389502793281 7.4034212236392545 8.370588413020386
