11
Energy = -36.56274343 eV
Bi 2.0793785650363814 4.124642705400266 5.671376271788073
Bi 5.408365562126034 6.782491038700904 7.227162560960538
Bi 4.628688988439035 9.385245669009796 5.895980076050098
Bi 8.068037141074845 6.5256259130028464 5.410641834907447
Bi 4.885096998806321 4.959453677448889 4.788569149633391
Bi 9.860876500920629 5.051490122495626 7.170579439261308
Bi 9.392197965777882 9.111557600745154 6.005552531977483
Bi 7.099114734469658 10.848304877610488 5.538167477733622
Bi 5.903494378890393 2.388879215416903 5.875372077730341
Bi 8.45886495455096 2.499418977295159 7.2110573783184515
Bi 2.3028283386643023 6.409834196219749 7.292484788753515
