18
Energy = -44.33150309 eV
Bi 7.933880619627001 5.579112703254478 10.485318345885858
Bi 9.544394156738242 7.63270145436236 9.91830938487345
Bi 8.512937827425386 8.759471204441667 12.25615644992124
Bi 9.666732267754838 12.701062661151765 10.372021335910976
Bi 6.706607255624942 6.687401676430498 12.645001988861589
Bi 7.9623368530228005 10.49409206713233 10.216544945921164
Bi 11.142726111046256 11.24633891872146 6.042846433045334
Bi 7.515652572240892 9.098176150058675 8.011853824804115
Bi 6.996265462135193 7.681321182289241 5.4500417332418705
Bi 6.80676922454874 6.580044955632508 7.9488981960679
Bi 6.594952824346117 8.151264419878203 10.326430205074187
Bi 9.491624201622244 7.403636256056476 6.967573772276467
Bi 10.868266695536931 9.245600869572513 8.278181980296864
Bi 9.476631747564149 5.302997442438713 8.389463043877074
Bi 8.977209398175217 11.276277997038736 7.889492274361701
Bi 8.857326427910955 9.68037503972811 5.678413052738207
Bi 11.61583953077164 11.724085780602827 8.768586059093028
Bi 10.60454157345498 9.99676793872337 10.856026860992623
