15
Energy = -52.90670078 eV
Bi 7.719859599692979 10.877483236198717 6.803827743464305
Bi 3.430489635109301 8.163383324222476 9.242007110242909
Bi 2.831716770867144 5.481075853174637 8.014239550530062
Bi 6.511609471435222 9.162145420478401 8.937192116880112
Bi 5.361649560639592 8.959641962825096 6.0816148321610335
Bi 5.119257999154358 6.468722610365083 3.5672768768967784
Bi 9.702685332356722 8.28425462265089 7.052483287707073
Bi 7.957300725585606 8.076697085649684 4.600273580898926
Bi 4.781516394707812 5.760766959148854 10.258560483298771
Bi 7.98171790369663 6.409665926469479 8.991488398123792
Bi 7.882600983630614 5.021832336637628 4.282376765880144
Bi 7.203481418004579 4.1394648360015855 7.096433998226988
Bi 10.405887965677506 4.719096065040344 7.392951982354988
Bi 4.427407154285125 4.456803374810108 5.562757219231704
Bi 10.886372673963878 6.124226155745105 4.943992681300432
