12
Energy = -43.50956239 eV
Bi 10.379930422745009 6.002944036159662 3.5302088731127443
Bi 8.228174364454182 4.220704027400999 4.691241502033404
Bi 9.493222264205379 8.466195454886886 5.044077626084785
Bi 9.034668992440391 7.617734007987188 7.896577439585911
Bi 7.476382465399818 6.877479464985258 3.4024063981587767
Bi 8.266866079504885 4.7161282494299 7.659551832178963
Bi 6.468892682045844 9.165397217455064 7.549490958551062
Bi 5.273937269717013 4.707783546575852 7.275226385991538
Bi 4.765673035807222 7.327217643390224 5.874547764329839
Bi 4.885421969174974 8.606284534985752 10.074135597456673
Bi 4.12257856774813 5.690293632924368 9.901163667314995
Bi 2.67187510844639 7.734479673624047 8.197080566651868
