12
Energy = -43.12914254 eV
Bi 2.9864338644988164 6.787561451155911 7.796780333491246
Bi 4.593541715095551 5.047152231032047 5.9339159594621895
Bi 8.418151991038089 5.755297052945052 3.418489919497387
Bi 5.795391010923652 7.092499136843633 4.063731188927769
Bi 4.026441903910512 4.866044901007574 9.920402996105853
Bi 6.463997279520298 4.149956010481481 8.13632720314302
Bi 9.520718254317199 8.589652172586554 3.603901624323982
Bi 4.864659747670652 7.798770782367628 9.942590977629568
Bi 7.1575853598477375 9.423429690041289 5.4338333210284375
Bi 7.593916650879485 6.575554380607561 9.517604456600411
Bi 10.376183749471469 6.463449433553121 5.616690962450642
Bi 9.038579202939848 8.372236348349782 7.538535393084149
