12
Energy = -43.2821906 eV
Bi 4.077568898165798 7.993722864967425 5.347030472261298
Bi 3.499903750045823 5.8012745605734155 7.319985904776238
Bi 3.299682625748778 3.4184007310754034 5.468918521796965
Bi 5.943203804269512 9.732610176426725 6.97175505402921
Bi 5.983729748826888 6.876403071840385 3.3081476968066172
Bi 7.201859188992389 7.967528864530992 9.106779364832494
Bi 6.070961324754901 5.185825072608152 8.751388937004059
Bi 8.757216292553528 8.642355492518421 6.579840825170831
Bi 7.978687805390719 4.068407967241257 6.71601474518262
Bi 6.114365376136575 2.3236155467910127 5.096928718606489
Bi 4.871452066663918 4.087314394820093 2.9508480412648668
Bi 8.55407474229275 6.255246880448705 4.735067342110031
