14
Energy = -50.0567734 eV
Bi 4.712633632772591 5.589897817035349 8.06823379198881
Bi 8.383848484010086 6.670468957270789 7.944669592994268
Bi 4.102787525252503 2.985925246944634 9.595531117528825
Bi 6.3447968289854035 3.082398036362153 7.5786287745704355
Bi 2.4108028392286083 4.8045640793008 6.174232147676943
Bi 3.5950765297884604 2.052716457826972 6.73948554773866
Bi 7.87617624957458 5.42960381794535 4.921946538837065
Bi 5.842831989747829 7.719471855249165 5.126779766207119
Bi 9.708710571065003 8.956823768456049 6.405588710725451
Bi 7.036094583427853 9.260915542153928 7.744834095272886
Bi 8.474536941335492 8.126343566833292 3.674786677603853
Bi 4.3982157389949785 7.454850887385583 2.356296464342934
Bi 3.0661319573592762 4.856703522767706 3.202975804563462
Bi 5.991870808704237 4.953830730918059 2.4105258470946587
