15
Energy = -53.83939082 eV
Bi 11.179548167940588 5.268246867083232 8.66036136362534
Bi 9.43063390968118 6.076012118818999 11.023302355119787
Bi 9.90325366890953 9.88087719601549 8.10568967094786
Bi 8.200849204173453 8.706969223348798 10.25386398593022
Bi 10.881792519059738 7.476702790315419 6.638058665833598
Bi 7.613884416373462 10.62147942652439 6.150874448343471
Bi 6.967198623510744 6.1704938999861705 9.154554292251541
Bi 8.71894735249417 5.363256722852162 6.8035891623387075
Bi 5.398202365611196 8.801453139010436 7.12238897712378
Bi 7.125047661216417 7.975499962651525 4.76762099947933
Bi 3.566665976039776 5.350285776266574 7.1473227697557205
Bi 5.405954802818322 4.416241041072432 4.94918265315341
Bi 4.422298015427386 9.2580174762443 4.295801124606619
Bi 3.1104527695226554 6.281273244268273 4.311803340215905
Bi 2.657916822079133 3.1856706258577083 5.241162467970519
