13
Energy = -45.86957978 eV
Bi 5.5423048175526315 11.374115327750449 4.846788740214859
Bi 4.359003980544579 9.078056374177072 6.338990245090021
Bi 4.874258283615639 2.2486488164170626 9.960111353207505
Bi 7.449511108946111 8.272974376930863 3.38542631074425
Bi 7.434542386563886 9.070366104589608 6.296553456461019
Bi 8.876792243972561 5.453497783790115 3.691896360249539
Bi 4.4399376852495545 9.092250995737583 3.2969926407530115
Bi 3.643495781425694 2.622654866779068 7.226777299175195
Bi 4.565616243710038 5.0284197674209645 8.874612194605922
Bi 6.3580320846271166 2.4672152141774903 5.770260962805154
Bi 6.298924633417596 5.497169988937247 5.29237415754081
Bi 7.262298755977496 3.6650159897173507 8.419043277600005
Bi 9.011843076993458 6.118422738893022 6.578872476054376
