19
Energy = -67.55871571 eV
Bi 4.97485890853646 9.93008794581872 3.7219023901844426
Bi 4.530464537374069 3.9339870733395546 5.704210360766148
Bi 7.932124868444968 9.762793126968619 3.9113812821904026
Bi 4.814612026584764 6.380389185763849 7.602061581111464
Bi 11.234092786948048 6.106288946627527 7.604394209004267
Bi 7.420749067751879 3.815331533802155 5.806119662444443
Bi 7.798408655705775 7.561621355355864 7.835109512527999
Bi 8.427568261409027 6.724888863837327 4.82938745924325
Bi 8.958026307428769 11.170334074219788 6.503584513070695
Bi 5.4316152491162635 9.791386259314987 6.758078936636921
Bi 9.717525260405937 8.76221252209652 11.11359504463072
Bi 6.780158806908993 11.804758481061763 8.607965617790782
Bi 5.3354672820389215 6.849831665250781 4.536668993181468
Bi 3.427184795439755 8.867954865517493 8.831115164811404
Bi 10.612423776235959 9.150762688540143 8.161392817877063
Bi 9.238008432163605 5.861356614206713 11.684008073494935
Bi 6.153584753103133 9.2664835640997 10.240431605472152
Bi 11.927257747360139 6.644369282526279 10.587804068664866
Bi 8.722162357661775 4.80071264240213 8.732976445518114
