15
Energy = -52.70332333 eV
Bi 12.212440229326136 6.467033773566037 8.687191075421714
Bi 9.443285413203618 6.777950201668759 9.923569059278389
Bi 10.511000109881603 8.773531065509237 7.958958179048058
Bi 9.3749287455194 7.364644139076854 5.17801470363643
Bi 6.48533073698139 11.767176891412586 9.025927569575275
Bi 9.655755631535671 5.190771471175256 7.282738230762266
Bi 8.15524919913904 4.772957248369912 3.708391572260122
Bi 6.610125368116842 8.767524565134687 8.133953501459583
Bi 6.359476000674558 7.099182837795324 4.775855193732013
Bi 4.762362797457845 11.784334035514211 6.751196801289899
Bi 7.602195698467332 3.0951847695009107 6.08515705881658
Bi 5.918384637612802 5.973769481333334 9.480308336837222
Bi 4.006870054593363 8.34210605226552 9.69140239029773
Bi 5.2682977522305 4.9836566391669255 6.689178893313756
Bi 3.8335221050219057 8.872623866402753 6.711836070012011
