13
Energy = -44.27157866 eV
Bi 7.727016638858372 4.454788121695765 4.13796151027995
Bi 5.466660337788927 6.885795074705044 4.587250821209741
Bi 9.622990414565013 4.980832507032877 6.729044522227088
Bi 3.916632890956964 6.4355739871384365 7.143043630849078
Bi 3.9070483016573267 9.2637340365221 6.042778166548263
Bi 5.704131981431581 6.326416003372802 9.576186672669321
Bi 8.087889134793896 4.492258364230453 9.290486216369684
Bi 10.621778502070429 6.13659860217495 9.608200362682622
Bi 8.493650455594242 7.266874844906913 5.017497662365301
Bi 6.859146657387854 9.934240043234956 6.8085241779084935
Bi 9.552529537180956 8.709224679629154 8.209963939942746
Bi 6.990112653532028 9.217830435325462 9.740489918438664
Bi 8.668011999075812 11.678258120733364 8.704386971732681
