19
Energy = -67.21216822 eV
Bi 10.497349913100047 8.825119632087226 8.384469308835763
Bi 10.25509931611419 5.7096122225766095 6.527013150792542
Bi 6.19477641428169 6.135153935371095 5.3497291157381115
Bi 7.766096922179661 6.436167641572246 8.3051773069544
Bi 7.767744908532268 8.507735844574553 10.835151071117448
Bi 5.459768829131553 9.664235501958277 9.370676040447854
Bi 10.437757912727859 7.542139837038391 4.072291359043119
Bi 8.903010941632976 10.151309804229331 4.268917357813575
Bi 7.957607919415469 4.053844319546624 10.082622470548555
Bi 6.1867476509393216 3.4982528560359807 6.938665926774372
Bi 4.0670297779601 6.962044527602603 9.752493449042923
Bi 9.79883817153159 10.95075544118906 10.505895362443798
Bi 7.775742269233092 9.797139577011539 7.185922679846095
Bi 6.015800654681056 5.59476135425128 11.683054611990299
Bi 8.68607152783536 5.058486267252045 3.9477983314873746
Bi 10.989074293041808 11.096395412985165 6.274668573630593
Bi 3.879515936811286 4.215654099243267 4.965536858087706
Bi 3.562553672138358 4.474621294395937 8.002162079490025
Bi 8.863305812210655 12.506859638542203 8.043369733689804
