14
Energy = -49.97544647 eV
Bi 10.948746844011705 5.614081382973556 6.871043678459072
Bi 8.55873368465349 6.437329967973625 4.966962605526008
Bi 6.116565442468927 8.40410633985366 5.46535269555023
Bi 9.908955333781424 5.023242294386233 9.658142014486808
Bi 10.211403847009866 10.615359500982517 6.875084763378558
Bi 7.245869948691248 11.043550163526305 6.416907069351217
Bi 7.2368913482691095 6.00763851897447 8.11815113200785
Bi 10.99531412574452 8.175022091909518 5.228452617802363
Bi 4.322448168953263 7.3666578981805335 7.6308593124163835
Bi 6.957675671982607 10.899228697194431 9.433119821964068
Bi 8.898064438112439 8.655069749421845 8.886877137753
Bi 6.57171866687972 6.779823460556825 10.990724517150207
Bi 9.48325485075614 7.330299369062565 11.613896584806765
Bi 4.656004480589344 9.079373512210667 10.09231992830246
