14
Energy = -50.66258897 eV
Bi 10.902071978194634 4.5036274095832285 7.162150650550074
Bi 10.460384893357933 1.9900759996251378 5.529407897616929
Bi 10.740201938669074 4.660526971136465 4.149053207031255
Bi 8.164488414339829 5.035568280974037 8.314020173455782
Bi 8.131850827507495 3.142326411569354 3.976409754420836
Bi 8.263920294497764 7.980039658225507 7.513033587579912
Bi 6.095095364457441 8.508319829957717 9.538638060219526
Bi 6.30171149438831 4.463704904216029 5.996613347473403
Bi 6.801117544641414 7.263697754728566 4.926166360194804
Bi 5.108089584090463 11.229361658252843 8.653644146428082
Bi 3.648891655595656 7.0908181638321555 8.459359243465462
Bi 3.689250545542212 10.755096043830937 6.033285618818137
Bi 3.8889222145981908 7.777230506387801 5.523691138827849
Bi 2.359673339697181 9.92293009423605 8.641446709763905
