15
Energy = -54.03686216 eV
Bi 11.874878628387224 6.687707643370816 8.664063870107558
Bi 11.608875416747244 7.593390386404678 5.844431930419302
Bi 10.215591555556513 4.187070096374286 9.01472016483155
Bi 9.159463728395533 6.846626506227088 10.027256459650362
Bi 8.666338440504687 3.769377665686784 6.454998400171752
Bi 9.406284139800999 6.021725107359546 4.5919484995001065
Bi 7.84848251862686 8.427740383060076 5.516794397083917
Bi 6.8065199749199765 7.640205997377924 8.243654421649586
Bi 5.377266578404796 7.5748629616970415 3.9494380070550394
Bi 6.123973505610399 4.75448374061764 7.765637828535172
Bi 3.055197824527013 8.743158075591722 8.056164181385526
Bi 4.418352475651991 5.0384464664602 5.2855251655112845
Bi 2.182242003813454 6.018533972014178 7.068645455291111
Bi 3.7692834384225566 9.74099156603027 5.288008263553635
Bi 1.0443695835674485 8.512799244664102 5.785832768190462
