23
Energy = -82.23966125 eV
Bi 5.536493865251096 7.838480407076198 3.1862562433359494
Bi 9.445751158686459 9.591311081323058 3.9426310568482443
Bi 5.032162149047441 11.166698609447698 4.994752106593411
Bi 3.2983721940903075 8.68396890280621 5.163785815529271
Bi 7.003498161844847 8.900296876453092 5.57761558043898
Bi 9.054263800768029 10.447737312414255 8.657861794603374
Bi 4.099617783511005 11.606430531827407 7.9030072161205105
Bi 7.107426967897578 5.245131501717585 3.0343670668682585
Bi 9.8600784557729 6.60866907315722 3.275836870333848
Bi 5.939785582567304 2.4476934995339397 7.960006381934376
Bi 10.990380908214405 9.27395921312651 6.567356746232011
Bi 9.241713506266194 4.937782123710875 12.356657723755417
Bi 4.945631865508338 5.219502184358062 7.279958178979507
Bi 7.467914046375513 4.267587169289365 5.986215833435053
Bi 11.236921127389875 6.318761801038392 10.525958799679648
Bi 6.1291234034674735 10.057519508905429 9.508148534448745
Bi 9.826045289810104 8.944827488120067 11.216368751683232
Bi 11.300972956991368 6.317089689700678 5.981806435779502
Bi 3.75483823447453 8.559362959310766 8.220266247060023
Bi 7.24689586630837 6.703122671341078 8.898767900120582
Bi 7.337947838951886 7.297548368138516 12.024224673480946
Bi 9.755164086251582 4.932392662339958 8.250606657512108
Bi 6.846080657763707 4.130435678461005 10.500002881050024
