27
Energy = -96.65383635 eV
Bi 9.399745848953012 5.441818990536163 3.4646113110269243
Bi 7.052721526175352 5.363928996358708 1.478414772713908
Bi 8.651455884804975 3.2796272532657773 6.245243408485449
Bi 7.526468269922551 8.923656425936958 3.604331279229074
Bi 8.133351555264937 2.72964072267458 2.4928549665766973
Bi 10.585367860573346 8.985961656307648 3.853771949579651
Bi 8.519013369870102 1.922705059008242 9.09707784442177
Bi 5.3599107388596945 3.6084995195607683 3.299719179209891
Bi 11.359509887812221 4.712178860080833 6.722125578316162
Bi 3.7875065757523783 6.78016681829594 5.0196132560017785
Bi 7.521807962222176 6.537281115148361 5.614719726793773
Bi 5.0456446965464306 2.7891227193841366 6.315676837555447
Bi 5.116841644929071 10.059757643874343 6.194546730999643
Bi 10.308891013195081 7.571920953993166 6.566577610699411
Bi 5.818268985446456 12.44302968663282 7.887996286715507
Bi 2.287762299038259 8.910539022009642 6.644100690877611
Bi 6.872787603978158 8.534440782155599 8.402793810497597
Bi 9.066574724164033 4.860218269856266 8.928733841381252
Bi 2.511078688671075 4.499875249559694 6.55658008925797
Bi 6.00144995783274 3.6083010860297104 9.085915114112492
Bi 8.862195153210548 11.290483439493661 4.962985283846501
Bi 5.2564358406026095 10.278823976138549 10.2936911341729
Bi 3.9015368491707227 6.774127560384854 8.089142027892496
Bi 8.563343072491124 11.152978680393996 7.996538527406838
Bi 6.514980057083378 9.171834897584704 12.876595559242356
Bi 6.6758367386638495 6.689739909612775 11.154873078026927
Bi 4.025029391775716 7.804856902733019 11.876286301971325
