21
Energy = -76.44417677 eV
Bi 8.906955561572333 4.208904212812036 3.6839154093498845
Bi 10.51926561914886 5.353085787866363 6.009865863033437
Bi 7.500003175576144 0.8122045770065149 9.449288314011161
Bi 8.754758698247503 0.8996083047889112 6.632360635242308
Bi 6.798936088151519 2.6404382820174725 5.16440100437774
Bi 8.285545368069236 6.826647390611302 7.416990000642122
Bi 7.078315769183923 6.598390944172162 2.9250953499252783
Bi 8.632789843333821 8.37121873426888 4.802413680886102
Bi 9.183462785920083 3.2158691701114592 10.350713826894674
Bi 6.2476941956400855 3.4982717394226386 9.819488582078074
Bi 5.969726347608012 4.893269948056189 6.994946761256828
Bi 10.762603498414718 2.869545948363522 7.733190748299487
Bi 4.53707132728548 5.851372061664578 4.350262823503651
Bi 7.15025903616921 11.034645973421854 5.034660768942709
Bi 7.166302837864907 10.635399172466483 7.9875827459712205
Bi 5.0157903045386325 8.525309118872542 8.433664861088548
Bi 3.4078713014127158 8.2179821299036 5.90684425181281
Bi 4.262276256352762 10.606633961889818 4.338949568729786
Bi 5.188780802447812 12.909163025922687 8.563224728212225
Bi 3.0356551524174913 10.810617976643893 9.042717570233094
Bi 3.0784588507976443 12.425103974998631 6.467865772728937
