28
Energy = -101.36288498 eV
Bi 4.2878985732830674 3.936995746965031 5.482482033111914
Bi 1.780030076374195 4.423842156866256 3.828375730012829
Bi 2.601495433426369 7.009858300173539 2.2512021179805255
Bi 3.751755976299444 4.501762185145718 0.5396265279267998
Bi 6.847289647106334 5.757986112051366 3.688459322336166
Bi 2.7452951596610484 2.060862037034333 1.959119241455351
Bi 7.817572768335527 8.176150687029606 2.1385077920309943
Bi 10.936000982551702 6.700661539191805 5.898245636897218
Bi 4.918779317654066 9.117366461460477 1.954559413262637
Bi 6.57959087555842 3.726705436650537 1.439450437873774
Bi 5.406758092275484 1.7850438048473871 3.4979375779102666
Bi 9.74650679276296 4.680973427580024 3.9278019006341665
Bi 6.958749239703873 1.724058991732303 7.112116616854598
Bi 1.0486896898806846 5.5230746674998885 6.738610535519721
Bi 3.935937162368643 1.2958421449078374 6.915716497110605
Bi 9.022113406660768 8.76186826967838 7.059974363841601
Bi 10.084454382174307 3.9621948789321233 6.849295460477332
Bi 7.176152259893761 4.868638937933991 7.065571576985028
Bi 6.064426300188362 5.215568766813027 9.89330789550485
Bi 7.171604956375439 8.161665757531118 9.45280351473711
Bi 2.9864563265114366 5.513426442280714 9.20038684371765
Bi 6.5002497027894695 2.0719903240735573 10.153289361868232
Bi 4.768040122625231 7.66746772206535 5.932459106104361
Bi 8.095405686624696 10.126944592159488 4.479897195960978
Bi 3.5610066871248107 2.3484557904126 9.765171185133926
Bi 4.268917276136349 8.449171190691455 8.802845819771417
Bi 1.8472848654703728 7.971352590353244 5.233073460572534
Bi 5.0573161427882924 10.425848940544855 4.705490460083636
