20
Energy = -73.32989212 eV
Bi 7.195251550203001 12.372931706244369 11.791163267760702
Bi 6.201652875674643 9.734953314549696 12.8991852506463
Bi 8.475177955980046 9.254572820000083 9.110907008541714
Bi 6.430724411958483 7.692845119113367 10.641871699575187
Bi 7.089616956478172 11.888834365093633 8.781283126987022
Bi 4.194713853403646 11.795293216778777 12.004508870424907
Bi 7.757979768749617 8.030200930494125 6.413964911678074
Bi 4.10165720857011 11.322898734914293 8.989388767574392
Bi 4.7233016548443425 8.427833085458115 6.256488922587726
Bi 3.8796121574578804 8.34496080283399 9.17732124366312
Bi 9.084899103031495 3.73271214681505 5.892768315906697
Bi 7.078305461238295 5.302266918352066 7.572861165271605
Bi 8.916734394555105 5.571816560772013 3.5403973204677537
Bi 4.661333404312077 5.410532597748303 5.700882592713782
Bi 9.836944386455778 3.426391864542252 1.5727635086675926
Bi 5.956857842994218 5.604824471850564 2.951020181842082
Bi 7.245826045980711 1.5232567906969294 5.043508146776219
Bi 9.204150395053686 0.7418277625795545 2.83862491720644
Bi 5.390098541791175 2.668908625596172 2.911159287188475
Bi 7.366498746334104 1.9434748806341078 0.7012682095869642
