21
Energy = -75.0830278 eV
Bi 6.733189682037208 3.3652729217983937 6.450402855713672
Bi 3.793136532050976 4.728250058201776 9.159376292444401
Bi 2.0131547745782106 8.414653241114827 8.439451614560472
Bi 9.867276437718257 8.364229276789608 10.056870105202826
Bi 9.026309759169932 6.423421843254342 2.193577535847737
Bi 10.126189968605225 10.034341624989693 7.462371436896558
Bi 9.102072669276744 5.425246030939288 10.514718595293742
Bi 6.034199080539714 9.389356119886505 9.738761189317092
Bi 7.649466135941877 11.651952993355712 8.18130302551829
Bi 6.334299460681057 5.981212629801058 8.037059299151837
Bi 11.891919976068165 6.1844901757338455 9.597683612097244
Bi 9.323047720761684 3.619740431854026 8.030355288794208
Bi 3.5289035927583514 7.306267643659483 10.76264519736601
Bi 3.7022853982460115 11.004102116878405 8.590093995968038
Bi 3.5740748524096198 6.440880498515146 6.646028271007093
Bi 9.049594561336857 9.240719962924569 4.646813266651458
Bi 7.151475864722419 6.758320371668291 4.706765217424584
Bi 10.18952146567846 6.4413419536414835 6.865163653138302
Bi 5.730814040045556 9.7615014283587 6.761482649405544
Bi 9.071692480113706 4.406649551095452 4.559870118659978
Bi 11.30471199404616 7.42929517611866 3.936056806301484
