23
Energy = -81.23455474 eV
Bi 7.485918959635083 11.55487226482595 8.2126870480048
Bi 5.674732979210208 5.288409791178714 6.883853424736191
Bi 10.187193132607232 9.401634373616984 5.1273573979222515
Bi 7.41548126910361 7.405171914612273 5.133019498093218
Bi 6.6964678942716205 10.651529513421002 4.6799294666610844
Bi 12.879198343258132 8.639749424516468 6.50995683762359
Bi 8.977038609278711 9.63145495238596 2.035140192976456
Bi 8.588789361000376 12.424216795596257 3.004151089637637
Bi 6.1896311233150705 5.313484495282017 13.372015161337474
Bi 4.33965887265311 2.517667925874155 7.5579189805096005
Bi 4.602570326156513 3.222719234566698 11.745872450884868
Bi 5.221795899875499 5.858427259638708 10.169470424896257
Bi 9.693179004727215 12.330770266006292 6.111150301477041
Bi 6.181627736612798 8.790167888812597 7.7344849166953304
Bi 6.846448419827915 3.258801124028747 9.564047949392457
Bi 8.594708070668833 4.028237537652004 12.268511992643386
Bi 10.284124252172735 8.2966723790013 8.069944270645873
Bi 2.5941286097696516 3.931839587296639 9.4050708939355
Bi 4.727106280864447 11.362166393216526 6.989109362218888
Bi 6.12603566641492 8.616155298889565 2.489805331791932
Bi 8.68342693520687 5.106983285069652 7.368870035694432
Bi 11.827216033904051 10.93773262715625 8.08370667782037
Bi 8.49972824807503 6.303261848614919 10.241852504259754
