25
Energy = -89.67236587 eV
Bi 11.670680535462232 6.1844562958401355 4.519630933983787
Bi 7.823722726435451 3.5364617165723167 3.011743525802808
Bi 7.89440186575339 6.207155450851021 1.4956584145933765
Bi 9.557226068560555 7.963433090947462 3.2715970817555196
Bi 10.399512147029078 4.525604840791443 6.724851195418461
Bi 11.152389402594737 7.308636847346421 7.337119221279576
Bi 7.396856890559405 4.750240334097944 5.767407953102303
Bi 4.897344189151969 3.0459025317261044 3.5011036382127383
Bi 6.069981164989308 2.0051088453195196 5.971184215215956
Bi 5.181217455513324 7.357734398838907 2.2056337520768943
Bi 4.576045263509039 6.180051959608242 5.007357651489233
Bi 8.251111400118678 8.15964105935512 6.203000588433694
Bi 5.511608012498799 9.010503558004718 4.7146104348240705
Bi 3.213299553957311 2.1319724796985042 7.860103339339268
Bi 1.2335151800094233 3.667716163538955 6.2055294242069365
Bi 8.944780398160214 7.800243843182712 10.338342827857618
Bi 6.439594039762523 7.37183100404452 8.736204847346722
Bi 2.9841621658057953 5.119438621648855 8.19923686175756
Bi 10.065515473645414 10.425905935014079 9.251500178275611
Bi 8.121076087402493 11.141044832309033 7.07928462630147
Bi 0.6914330298851652 3.387564053156669 9.15855685011779
Bi 5.530028330730541 10.23734579807679 8.351254278741216
Bi 7.666644398717042 9.420777864851434 12.641431635427923
Bi 8.767297418287384 12.037575365402851 11.51934476459086
Bi 5.858560025055154 11.338377317183198 11.182068009026386
