21
Energy = -75.52016493 eV
Bi 8.5612708609982 6.624638130435327 11.591768481199116
Bi 8.309178508904658 10.921953452647603 11.43387271747861
Bi 8.867900520091585 5.45084974047176 7.073204137724815
Bi 5.106348410197561 4.7016395110380325 8.702407699192792
Bi 8.71905273171842 8.12332328095082 3.0350939372771912
Bi 4.306603029923776 9.281328061876634 11.025744206996121
Bi 7.8531319465807385 4.216707878357472 9.839406651885056
Bi 5.817986233335025 10.958913743749525 6.760837859366072
Bi 7.999404685109622 5.164407916918495 3.0887344887406787
Bi 5.55367261961914 7.691618804757463 8.77983578323932
Bi 5.783923549087784 11.658324535877885 9.766468309319707
Bi 6.040031937567992 4.635689407369832 5.65856320807258
Bi 11.575023444411865 7.250812405181956 3.68790738425388
Bi 7.800996624711945 8.45434232200657 6.046870810056299
Bi 5.231892205247465 7.302211953256008 4.621285051415004
Bi 3.6250997221064147 8.862407029270646 6.76406939772389
Bi 10.528321330094174 4.521990901358666 4.581402505106013
Bi 6.703231930797178 8.79069145894969 12.877523828660193
Bi 8.817592527229834 8.647453204192368 9.410155935157439
Bi 11.273043106272663 7.250347461272951 8.161850109097205
Bi 10.979741999415578 9.181706931141278 5.956425923103837
