20
Energy = -71.01205761 eV
Bi 2.0978871320070094 9.87812291784641 5.273951430687942
Bi 4.605128118791111 5.327596076248644 2.3056394583560964
Bi 5.054983508497083 10.609166594520913 5.370402204365008
Bi 7.607077199601727 8.166552168101921 6.796294577982347
Bi 4.525627348320048 6.045585706337974 6.641349174178156
Bi 4.156413670873286 7.84572555909167 4.21639257200394
Bi 7.764040219488447 5.505675102800187 8.56888726145485
Bi 6.8172460038936995 9.151400368755063 9.755425907102532
Bi 7.299576328195725 6.554112069601682 11.513437833786096
Bi 9.81977492373511 9.242942838312796 10.52946111459094
Bi 9.647739179270065 5.971228350785349 5.212981525993547
Bi 6.381919174846553 4.448086676327777 4.591372573653515
Bi 3.7516941482571005 9.183739479479812 7.656776730922514
Bi 10.900005509911512 11.443513206393925 8.49894749207986
Bi 9.480876588747698 3.551570724114379 6.733663554274401
Bi 10.216419159025211 6.48389521527386 11.952715375142343
Bi 8.14225697171106 11.34585463799794 7.748842820890618
Bi 10.771044087552676 5.483319380953891 9.001048073629029
Bi 3.325153398526959 3.9746596599977684 4.619882908149152
Bi 10.57764148336683 8.330268682789967 7.609308108575204
