20
Energy = -71.12380698 eV
Bi 5.983706696680496 12.212881646307139 6.6764195238075255
Bi 9.657325918103055 6.018501918202526 12.033589992863309
Bi 4.193205646621039 6.380547043655505 7.760259370941571
Bi 6.974134698624415 6.091384499794773 10.447706125459865
Bi 7.275910807800839 3.1831873292273043 9.605407638261132
Bi 7.49112365463351 5.26921453000293 7.149583510884878
Bi 7.885028598147392 8.442157941673274 8.019484432454364
Bi 4.74020048528731 9.134124488712624 9.168382285210393
Bi 10.474963934174866 5.436292364369386 7.982137149281652
Bi 10.096104212477135 3.3917888637884075 10.57693394895708
Bi 2.757080720198056 8.931017378472808 6.851512294108519
Bi 10.524665097145666 7.884444012620572 9.744712904071513
Bi 8.153856194100639 12.333693527177083 4.548127331694334
Bi 7.083624924557053 9.992747205139562 2.908371394353574
Bi 8.817633317697458 11.419404779847909 7.388859938516533
Bi 3.887072196796847 6.654060603723874 10.75627868550917
Bi 5.5807949364713965 9.373955399348505 5.574847906012165
Bi 8.62564409912494 5.3236570035758035 4.183108579437075
Bi 8.87269079262066 8.277161750236454 4.846004008577306
Bi 11.309706912342598 6.287131667133028 5.09045615054843
