22
Energy = -79.67567267 eV
Bi 0.7896300858976592 7.5164699351848165 9.98450406195207
Bi 0.644024982477084 6.850470594205055 7.006894259377831
Bi 2.3235575463868026 4.3455321474212605 7.022525019491352
Bi 2.560480593565495 5.483010036161051 11.317121538051671
Bi 3.5873235508954804 5.098672165290949 4.362318094904077
Bi 3.8223973024750206 7.9624709876299 9.993725941635137
Bi 5.182425366144785 2.535655773302438 4.934398843711445
Bi 2.8433843508566357 8.908352453661392 6.930457808018493
Bi 7.196052969346254 2.9362836924017968 7.173457914325029
Bi 4.489738997296331 5.10882289145602 8.969510823544855
Bi 4.8075324166950475 7.83778184029664 5.049140110601786
Bi 8.13020723075837 2.767541281326675 4.278905196077647
Bi 7.89567934194442 5.755895630221345 3.7658621529374754
Bi 6.82775444316621 6.005574172187426 6.663642263671015
Bi 8.924347195479147 7.480094522166453 8.326575976329517
Bi 10.810072276309132 6.504102947609375 4.127861764444572
Bi 8.737782735757905 9.978755033293691 6.705375169044359
Bi 10.070181698083154 9.39662720417583 4.031629489833577
Bi 11.247819922299406 6.083297651545865 7.070715183715451
Bi 11.44152120111848 10.88668363225039 7.827232663556906
Bi 13.157714208191264 8.414797615052665 7.471245174391617
Bi 12.771492167163212 10.293386726140039 5.138963122607188
