25
Energy = -89.66347975 eV
Bi 11.166818007516172 5.280015212217971 8.34917543370229
Bi 12.36427268111631 8.61071971444881 3.501143702449441
Bi 9.361884027806905 4.164392750938279 10.562911735642356
Bi 8.044504916672935 6.644140784469991 11.737659913247658
Bi 12.15984886756006 5.690821054037068 4.359146133154455
Bi 9.943369358567248 2.9325709891569387 6.812182903393923
Bi 10.07234626054654 9.261005440228022 6.283544461944307
Bi 9.461028364241361 10.3207577001718 3.430329441088045
Bi 7.375064137664188 3.09592763950148 8.531798366166322
Bi 5.290474310693708 5.558420125557412 12.201415739497035
Bi 11.206600559568896 6.675495377423256 1.7091584150495776
Bi 8.54911837520087 11.860424190923885 5.887613854898916
Bi 3.2887191509083946 9.131090370298834 4.931569863408998
Bi 6.274784284760717 5.7576296828610225 7.491833889599214
Bi 9.462385490158233 5.759636699124773 5.854632556830168
Bi 4.059373580382291 5.05868073865891 9.425164798952409
Bi 4.053203812978076 8.361775423412876 12.311362133177175
Bi 7.728203443357664 8.053747390960442 9.044482102164494
Bi 6.192930048882884 10.052912534883573 10.95519237748127
Bi 7.229572076340914 9.196676308074892 5.202807684601476
Bi 4.957586881577456 9.4460547047549 8.212694875945722
Bi 4.393856765190665 6.437708411176333 4.132482660541446
Bi 2.744175671612163 7.840339740163948 9.53210454964085
Bi 2.1658824702626887 6.581637709426006 6.14185215122171
Bi 1.6091337663654743 7.2648476363323775 3.2349802047134406
