20
Energy = -73.15088102 eV
Bi 12.018439138282615 4.974157466617388 2.374577178105087
Bi 12.197099011355958 4.434818556417735 5.3782841343464645
Bi 9.67001474023714 3.014745231467851 2.1847988190336878
Bi 9.191128956352715 5.997468688924104 2.114277937542042
Bi 10.994736152911926 7.0630687157713625 6.168667337229073
Bi 9.861284173880096 2.499417325378013 5.189539575587492
Bi 10.584000252961935 5.908602251643528 8.928939499753834
Bi 8.273091973449393 6.842938608857298 4.917639617716844
Bi 7.391179457940145 4.114476507445812 5.78871051264065
Bi 8.208667952076429 4.022139831539528 8.690100435985114
Bi 7.827777544008675 6.772762117685383 9.91847394803136
Bi 4.550700274547164 6.767681476583271 6.869637767963666
Bi 3.8128582298569094 7.053152244516961 9.791967041190787
Bi 6.838233317241682 8.615684295319578 7.722120669958047
Bi 3.0145099124486365 9.088298282175401 5.7101095624427565
Bi 0.8202667300772355 7.566557962604279 9.656296163207788
Bi 4.976397052292588 9.82685551260266 9.921568161001387
Bi 0.2586925683768728 8.33751726409466 6.796123397227825
Bi 3.291105760411302 11.2163242706312 7.863889487800738
Bi 0.5339863036142877 10.482504454436178 8.966596485171063
