27
Energy = -96.79685187 eV
Bi 10.758009911369005 11.999311900053593 4.201419162296401
Bi 11.779009240646774 9.164253157477981 4.846407589770793
Bi 9.280682384613518 8.685506821874617 3.1013977383524267
Bi 7.736484035422247 11.176864058329754 4.011267913461371
Bi 10.459112916585218 12.174626416377428 7.213475175717058
Bi 10.631356949015425 8.965206648991071 7.653988113226789
Bi 10.293855069038589 5.289523753656646 5.603829800950198
Bi 8.194495254839305 7.676564974871774 5.87353097234429
Bi 4.907409251700113 8.851127874706208 3.9250515233898655
Bi 12.47347481935986 6.343847592212819 7.414065162087218
Bi 7.738207762575084 10.93338342503426 7.054842406498937
Bi 6.787415704221587 6.623990647134873 2.82492276520497
Bi 7.2973554678906485 9.718305200255491 10.30947751786118
Bi 8.586681780730862 6.823756124481858 9.674641545950683
Bi 10.406987375861037 4.434577075232509 8.485877883318357
Bi 6.691406482274048 4.7552327420768705 5.236180040742387
Bi 3.650328736477108 8.08742054040816 6.56461166440542
Bi 3.9128041180542055 5.909657675136772 4.487554226945271
Bi 5.895668651119611 8.435188980513395 12.677413298081671
Bi 5.885471474092337 6.154062305113405 8.221292099291608
Bi 4.3961475094463545 9.104397446433083 9.921624745528748
Bi 6.539314237866139 3.096358637246844 8.62450076104949
Bi 6.880856571610061 5.6459620915110476 11.902677100626446
Bi 4.114570750856904 2.5766712013923225 6.820818980165533
Bi 2.4580075676699567 4.602623003419195 8.417629916350906
Bi 4.004799275573136 6.134703909797433 10.731883538171493
Bi 3.828275312897751 2.2250644080673214 9.787806970016916
