26
Energy = -94.47679268 eV
Bi 7.787373982004302 5.179296584544838 6.803158313818105
Bi 4.151379499143562 0.28950305840332485 8.859698946623269
Bi 7.178120154879263 2.7798799496510824 10.576590515508025
Bi 3.191337263914104 1.7013055083311994 4.343037626596654
Bi 9.186618216806169 7.698597736755415 10.072033687148267
Bi 10.2554749740562 6.90884034849774 7.354978368851775
Bi 2.0912770604068656 1.8380531470916048 7.178360021312286
Bi 4.005798665480863 4.061175233723444 8.065223491089263
Bi 5.386485093767075 6.979526523361313 6.419141817533362
Bi 5.327904555433663 6.3191785420613575 3.410042305370851
Bi 6.846208199404517 5.708241285206663 9.703948109516523
Bi 7.150942754248654 9.835843474968096 9.383683536368036
Bi 4.114997378405291 2.631591875899824 10.832903545794961
Bi 5.386167799485653 2.9622580427535206 1.383950353691107
Bi 10.015240702674946 13.207624698118334 4.839527251721152
Bi 6.684314832364273 9.784327066720978 6.401977485636282
Bi 7.062518322430376 13.493321413809335 5.438275351931739
Bi 9.401626451544452 11.861922301396055 9.345917800441532
Bi 6.357852089386929 2.112996177181936 7.647126009368601
Bi 3.0690602029851233 4.356697452081435 2.853902535095249
Bi 9.449480107082806 9.074062616258038 5.44348201531306
Bi 11.022551408190997 11.212453096170217 6.877221622456853
Bi 7.494381812963166 14.003015162212522 8.385286090440077
Bi 6.196734561982792 1.513961285515482 3.9959126312906994
Bi 9.038554296007796 15.634009727744377 6.358323687344768
Bi 7.447939610199287 4.18972878451678 3.316224241314945
