23
Energy = -83.6932558 eV
Bi 10.061841600355399 7.619438002306873 3.1110370656767343
Bi 10.743132663075448 10.300299410115485 4.3344003846155275
Bi 10.465302213731144 9.970476346563357 7.353076797146937
Bi 8.781405608662865 6.27226847613014 5.544771943588018
Bi 8.024637033449531 9.939275841628744 3.058567249018879
Bi 10.04345892877102 3.545645326830627 4.971579340334054
Bi 10.970507937622617 6.990201566688461 7.464547907900162
Bi 7.472518419230731 10.36817007735909 7.4855160717388545
Bi 6.283407479589468 8.687374546867131 5.236622087026881
Bi 6.950791903230226 8.544644113889099 9.857840044807524
Bi 9.982136741020192 2.352739906408171 7.769574926492605
Bi 9.283244680553217 6.543144528107741 9.931942790419646
Bi 7.740249678842951 1.7106878839349733 5.810326708218353
Bi 3.9915428889564555 10.719624924025183 5.396330150536785
Bi 3.339248427292682 6.157650820035655 5.321885515288003
Bi 6.192476313112614 4.193709968862539 6.760301629190036
Bi 7.863030063833043 3.906416737952192 9.314046593258553
Bi 4.723894353721887 7.206137973720014 8.18956961268728
Bi 1.7102455466335054 8.711536169210754 5.612636864156011
Bi 3.039348497215196 9.753421686705947 8.141093677695558
Bi 1.6557698017935352 4.571304213483243 7.307455855039396
Bi 3.9472120524923056 2.8775116410166905 8.394879233678441
Bi 3.029578850040074 5.352602606708913 9.917597240401104
