21
Energy = -76.19420186 eV
Bi 13.745515298198486 9.04978984880284 5.860862216849142
Bi 0.7411297696353506 7.542979156723598 4.069079102050815
Bi 1.150811393053276 10.166962192894449 7.583664444944573
Bi 2.700791235866377 9.62079962909904 5.052233809463702
Bi 14.568658039493773 6.200269621520244 6.533276027230485
Bi 1.0555360258446818 7.432019477711845 8.893518400460495
Bi 4.98460111155431 7.924724674950639 6.1829539664163695
Bi 7.667807931173389 5.060368596604308 5.557950734635375
Bi 12.240888777577736 3.7895871303476 3.742577973425021
Bi 9.711520910125499 2.812365814352497 5.1745711095447655
Bi 9.49388136007519 7.269760489105169 4.693958241685169
Bi 4.972986001261109 9.117054684180962 8.974403274575437
Bi 13.701489191713659 5.847558473441406 5.3927977701286745
Bi 13.745515298198486 2.9834673607784454 6.301282199747775
Bi 7.7831915443123245 5.2762078969921395 8.574772994893769
Bi 3.882521255274268 6.339595801221551 8.677602622169893
Bi 11.122014720953779 2.6707224360334867 7.842350883515
Bi 7.921206046991836 9.372419466301785 6.187045842142574
Bi 11.572732099968626 7.42147008241758 6.869883037361875
Bi 7.959100753412825 8.285339084824725 9.014631014707486
Bi 10.789819241305555 5.431792871787444 8.984662837964464
