20
Energy = -71.3338079 eV
Bi 5.493792576761367 11.05932312982094 9.445300844185455
Bi 6.763434694255646 7.1223814425595275 4.9862416558080636
Bi 9.791057874558176 6.433396595990472 12.700992189795311
Bi 10.194862079081366 10.315999050726468 4.514573777383691
Bi 8.18321422232243 9.43561062636201 6.7728052866537904
Bi 7.641225268027497 12.517140756186421 7.90446813745461
Bi 9.52743363459535 7.639952834281126 9.893011021477534
Bi 4.01319045271417 7.217627277100182 6.217407842215069
Bi 9.235232107998412 4.644860381412391 10.243221629687133
Bi 5.122464950252492 10.182646336521671 6.542147171255305
Bi 6.200736215780392 4.328746640773204 9.872683814502434
Bi 7.301099895898957 4.487340691012136 6.533073718901911
Bi 10.126356277735344 3.940533666345643 6.839278496093993
Bi 11.178559267209728 7.747223428921824 3.211278343076216
Bi 10.210208794466226 6.848439877108067 5.937640306861272
Bi 5.88934690713131 7.200341405604275 8.679450787257007
Bi 7.5068519066967605 8.307734828690357 12.084179100815131
Bi 12.579072439528323 8.85018123508135 5.634951861313088
Bi 4.804964502064619 13.20383511354123 7.415660955863298
Bi 5.093462661015808 6.556663529335132 11.576855410704006
