29
Energy = -104.09692127 eV
Bi 11.326367637423617 5.544861194272553 3.5708013340655422
Bi 10.050303609307422 4.35487378693102 6.175756287887496
Bi 10.028469215291006 6.124674704491273 8.678150435392242
Bi 7.726578776503654 2.095288988634908 7.352537293650078
Bi 9.381761407893126 10.704542674889256 8.994020038952842
Bi 10.162584208891895 8.124500311297695 4.6015891149734065
Bi 8.508027850664044 4.649482454813319 2.0492168306118845
Bi 8.547027927410683 9.206285876467247 2.1137677451783494
Bi 8.448626175936797 11.206051151424754 5.404970024586302
Bi 7.595681690269707 2.36045147261022 10.374289300143264
Bi 7.217205155820206 4.827171440770034 8.642469083572895
Bi 7.533340292866974 12.78471672224474 7.886332704727648
Bi 8.312700927080886 8.382101158765009 7.48893782637832
Bi 8.02643344893973 12.173366100993805 2.494166851280212
Bi 4.850061743462068 11.573914798930327 8.75504509087487
Bi 5.9790594133897015 9.196978570301987 10.226237224578217
Bi 7.898201002487354 5.98460034033951 4.66664206770836
Bi 5.614041264418268 3.3518828079665375 2.5177444728268976
Bi 4.691749269841147 1.3976658986145853 9.944899319034334
Bi 5.795064362257569 5.991554360657044 1.1540903280945813
Bi 6.148754015812648 10.136922265184806 3.671827068042377
Bi 2.9921005599033457 8.370789895756225 10.020497012928827
Bi 4.6856759611114756 8.826997497985708 7.492747921541687
Bi 4.359611807153599 2.27519409673439 7.036559837684361
Bi 4.377790424876906 5.646595706192383 10.43986837338276
Bi 3.614239530150518 5.192739683419586 7.504953660232197
Bi 4.757751960952718 5.803077759925153 3.998459843541333
Bi 2.555500695094671 3.25872069773046 11.129853004733528
Bi 1.4956670391088576 3.134374955975466 8.293947277716084
