25
Energy = -89.8448152 eV
Bi 11.156087189018177 6.185822964650534 4.120837776806452
Bi 8.725875532910527 7.766161929229765 3.4449750190928303
Bi 8.80577361130436 3.985912328839565 4.149095268114377
Bi 6.186760948530583 10.322064320101337 2.5764611816874705
Bi 9.47487137347673 3.9724646406995903 7.120118775350733
Bi 10.82677000220857 6.696032605858461 7.136987933017577
Bi 5.452313932325808 2.408642978748701 2.6207080902998294
Bi 6.353192699437243 5.491033744862987 2.980440264665706
Bi 7.451688454077155 1.1661173259505764 4.380900116700724
Bi 5.954326355493718 6.928422839988593 7.586795732838657
Bi 9.249003283957961 10.494817457239002 9.258525681711559
Bi 8.48089960155825 8.519164052734746 6.365638422089562
Bi 7.2416164615019865 8.705922437403409 10.644437009479844
Bi 4.198691458881963 8.679372182337413 4.1617072349943385
Bi 8.286320857241117 11.175884024362562 12.06497273963743
Bi 6.431113588153976 11.459445970368858 9.705618367080408
Bi 3.627515755513522 11.600836500466789 3.5716027287642356
Bi 5.824625201434367 10.840570630844969 5.534825275566577
Bi 4.900684240170443 2.1805205784835593 5.679983088338903
Bi 5.286192718957819 2.696431805004417 9.214648902078794
Bi 4.58710784460692 5.206531952017385 5.446872408558091
Bi 7.433963777096817 4.850944255049413 9.177737063499775
Bi 2.6237386065576933 4.074867743273753 8.499218937587944
Bi 3.6397325601305734 4.162714275697007 11.336186496320966
Bi 3.5352479879923786 6.705812216276038 9.68064361363654
