28
Energy = -101.15316588 eV
Bi 9.285436312771685 6.033906738063205 2.575997645973592
Bi 6.918822340436735 4.294046608382352 3.288951466848462
Bi 5.894897424225869 1.3667933846457188 6.338705025037957
Bi 10.23124378709359 8.503139929121902 9.994085146616868
Bi 12.694016972948857 6.486088832562447 8.114408664596446
Bi 4.461540040858835 11.270762008883183 7.4355056863473985
Bi 13.286613166924864 8.434853708897926 10.325162771042796
Bi 9.912892859411713 5.46541686114904 9.532762226883913
Bi 3.7046217016328344 9.603632455519607 3.7913852889041104
Bi 4.291488834510439 2.922011700581806 8.428134838791596
Bi 7.120253269886441 8.569630050783545 5.492209182730985
Bi 3.4833288745801143 8.711721700613571 10.4744324605386
Bi 4.992795952762102 7.862830642755845 1.6349738976583374
Bi 8.405815048790839 2.9168970386950908 5.499485052477605
Bi 8.024175568041569 5.49586619986446 7.071932464369114
Bi 3.248396701234836 8.569010250807882 7.364057790911594
Bi 7.783464122825823 8.704679172276933 2.45084654658563
Bi 12.204963196681222 9.367807503133509 7.673033134909748
Bi 5.181751036407083 6.593662637873615 9.116930976700656
Bi 4.950632118042495 6.512957168339573 4.405167856125003
Bi 1.8522620393891105 1.8560075329232324 6.939866873246662
Bi 2.7676135456909363 4.714092432298281 6.456528080448917
Bi 7.442749071477625 6.382312685500166 11.462855065012375
Bi 6.236401485147025 9.484597039232192 9.453460488533128
Bi 7.944230930365259 9.162962536746798 12.09636182690733
Bi 3.68187404305124 2.4789243202907434 4.5455008418006235
Bi 9.946115741092376 7.1057970084098026 5.372051269365703
Bi 5.895818368842692 11.35583965697428 4.7152478029758855
