27
Energy = -96.67599045 eV
Bi 11.012828307348013 9.931495494382414 7.93885987474072
Bi 11.445136252793386 5.779890807251227 10.40288029129931
Bi 12.00013514105831 8.791243214548087 10.55663355935129
Bi 8.49025809335283 6.5767765700150935 10.331918550379426
Bi 9.04030493795332 9.583126838974767 10.21161147212373
Bi 10.749744652188602 7.4608499077002275 6.136749517946479
Bi 12.11397232779622 5.1016263108378 7.518181194904065
Bi 8.43448412040303 11.193024129071716 5.4884938215519234
Bi 4.440418233079131 10.253613280020424 9.501593343387535
Bi 8.137187529718524 6.45193667574977 7.313351007370482
Bi 4.891161172135443 7.280948295616394 9.78883212283081
Bi 5.782771568091127 3.7376054680132724 8.871552794663208
Bi 6.071865353308498 9.290092745873158 7.021942656532113
Bi 4.913176458221387 1.3715204125042721 7.199323560708604
Bi 9.426095310433302 3.66949976417826 6.953670256025483
Bi 4.856545984350396 5.87829605788679 6.745070567532275
Bi 7.855156051389777 11.822621417057613 2.6174451630522753
Bi 8.843412353143439 5.014886370414327 4.278307534896457
Bi 6.062823724642831 9.45827521817026 3.640025597771458
Bi 2.3108039218573584 8.319694284583404 8.514873215658541
Bi 3.291686413499936 9.151436637130562 5.690983030917557
Bi 2.886495718107641 2.8099676355219225 8.952328248150668
Bi 9.099743219915261 9.16361867670728 3.3680413362438055
Bi 3.7045325140356393 2.85179794192204 4.807566227708383
Bi 5.822620129986276 4.805789513128585 3.6550191678075232
Bi 2.0474505029763503 4.6577638336017 6.584159357070711
Bi 3.7889947135684334 7.112407204493091 3.4303912347291816
