23
Energy = -82.58455929 eV
Bi 7.775537006735156 3.078038881359088 3.1714138613533907
Bi 7.52032440218935 0.7441940200542054 5.4207276037536944
Bi 6.918986662097219 10.60910785124617 8.451362530436588
Bi 6.638233849071505 5.127031377585678 5.087230182950675
Bi 5.606504164029728 2.175445846258345 7.302262619261406
Bi 9.679087281699184 4.719789328910319 4.809226076528794
Bi 8.570885502310109 2.167869902261165 7.854365677864685
Bi 8.326728866043979 6.952765880507849 3.2109780971636432
Bi 5.166926805377101 8.79398797525119 3.7110990906586743
Bi 6.494262520928672 8.31351880455228 7.122823017624932
Bi 2.8892598492050174 5.726262349117648 7.043277620188461
Bi 4.969280840728961 5.486617329747825 9.301602604962833
Bi 3.491291572795277 6.265202910210151 4.07023473470116
Bi 8.727972859443613 9.345405492535583 5.124139179670382
Bi 10.328819448330766 7.748577580546863 7.004583318468724
Bi 8.030621843507099 6.002628447602006 8.560244957184901
Bi 10.228158061606557 9.70500408086864 9.335425090618479
Bi 3.7236023745687783 8.123376718602703 8.667376557339328
Bi 2.798594829521456 10.31750132153012 2.4238843583618
Bi 3.3049308768786583 10.60910785124617 5.372856697085356
Bi 7.254003769162896 10.276342133316543 9.34857063025223
Bi 1.362390459492057 8.510274202437847 4.386150027368007
Bi 8.327674724794592 7.9454711753052 10.968759884117881
