28
Energy = -101.46954217 eV
Bi 9.031974471007825 3.158715047703633 4.129770620474273
Bi 8.845204060413076 6.205419776801635 4.501815781107624
Bi 6.131862343143316 2.8741101243794906 5.088370327081115
Bi 7.294530865368415 1.9736158962622625 7.789111769965652
Bi 10.201212718255041 10.356457572024437 4.201760812610526
Bi 10.140792252437974 2.7670863466467583 6.973525091381539
Bi 11.546033502606374 7.6919994029110565 4.682711354441578
Bi 5.759430749614303 6.906994586006393 3.181372237193003
Bi 7.056080509046012 9.601307826700502 4.0529097876022515
Bi 3.1664159002769505 8.673009188009827 3.3855052967819357
Bi 5.566804607644117 5.821928322266693 5.996722726517819
Bi 9.522183034644401 3.910798387373972 10.793092986736433
Bi 7.06430447311259 4.708453573892275 9.211013100966818
Bi 9.479642007657901 5.760168846024808 7.582568870539025
Bi 2.646159209606285 7.050777570487112 5.9007896208512935
Bi 6.325521762359645 7.86238587789238 10.461919985856559
Bi 11.156002516726172 6.538085061313004 10.635395006117221
Bi 7.401431998911322 8.731601279952567 6.984534319774655
Bi 10.619863641771923 9.40322134875573 6.98843188806517
Bi 7.529068273389951 11.78081366321571 7.31817189302005
Bi 9.739026771399027 5.758584375292145 13.191257653781378
Bi 4.336400668094733 10.903188390791438 5.113396602784898
Bi 7.777317525203054 8.154871462220681 13.122554355739908
Bi 4.119362624286122 9.153039166296171 7.534875267394793
Bi 9.15264781950118 9.003076064327816 10.543847502478627
Bi 7.878518417445691 12.394104811655282 10.298123038605532
Bi 5.656296903216284 10.675825584185947 11.50802288196534
Bi 5.084887693605153 12.409337767354659 9.057406540909518
