21
Energy = -75.24067678 eV
Bi 6.2076669032865475 12.506249531985453 8.52842317397906
Bi 7.3595285974884765 6.916260814631527 4.036299670052283
Bi 6.019176761730997 9.057573982672631 9.784838511073128
Bi 7.482414744821119 12.387561424189267 11.286818823044811
Bi 4.535203333709963 6.640027382541103 2.8891791523306924
Bi 9.89247143445155 11.073378474395904 9.967449716932938
Bi 6.712925336414463 4.620892987572067 2.1867332153255545
Bi 12.72978772859444 4.909340098344922 8.244270412137954
Bi 11.903203582963066 7.066358556075245 6.351077517248794
Bi 7.882322722805605 10.10439151597435 7.551967878121418
Bi 11.934492325332346 7.616021475062842 9.400075198201199
Bi 4.90426425168682 9.317731262227321 6.1634126133072895
Bi 10.114391732769679 4.63011427428294 6.659081776276813
Bi 8.448356478585463 9.41113129154867 11.933761491083354
Bi 9.339168807163587 6.637116665805407 10.582128430112148
Bi 5.496039561948196 6.032043940094986 9.253989089387003
Bi 3.643282103489976 4.818001236960691 5.160727970433335
Bi 8.128377119874283 6.7092542299138005 7.830769022555694
Bi 3.6781867954514054 10.677853406505873 8.52226149692225
Bi 6.641495631247053 4.209676011341048 5.230612727372062
Bi 3.3610262339469346 6.974503971900768 7.334270659727024
