25
Energy = -88.73415736 eV
Bi 11.717841019831008 2.0928685978887795 8.049117330324094
Bi 11.057540714479712 4.719612336704569 7.2029832722300124
Bi 9.032230582765637 8.525608254014553 5.950710891648812
Bi 11.303047826320588 9.266649409626993 8.691355363776513
Bi 8.775270209255018 2.8124495602563657 7.939510333547703
Bi 7.503061190350922 5.084432889306081 5.172767086167392
Bi 8.426673563725933 7.944180667924669 2.920424729324347
Bi 9.367557796795065 11.484775137159529 7.8990070792789995
Bi 10.503508326892673 11.278141687303924 10.717689495502633
Bi 9.109642139525535 6.955393151688287 8.763158746402656
Bi 8.042101022655817 2.081619963986297 5.074883130762063
Bi 8.31466540693328 8.966875002596046 11.08065128503244
Bi 6.2231847658417285 5.720606542497987 2.4595271919211887
Bi 6.682346124052289 11.04813233538919 9.432726820034304
Bi 3.9531144688784448 3.5096710712114785 3.442018957440773
Bi 6.7190434874849165 9.898940773884261 4.569437808882408
Bi 5.979768721288479 7.547744951415425 12.488551958625829
Bi 6.195330943313117 6.126730892137482 9.86677453199111
Bi 5.3380513326578765 3.0000265094485887 6.087420463858874
Bi 4.721131007613574 11.014992585333731 6.865604424204307
Bi 2.2361900491591356 5.587701349745946 4.672466815308544
Bi 4.634910187656231 8.711077282343133 9.877183325353865
Bi 4.367198248584217 7.769043823845192 3.786795156057817
Bi 4.388372519831192 6.59111830631253 6.59108415731991
Bi 2.6300713929120336 9.00496677142872 7.365365190360804
