22
Energy = -79.93601917 eV
Bi 5.04756955628376 9.060517300438503 0.8996302679341274
Bi 7.872450417348083 7.960966246126934 0.9157609649547204
Bi 5.4746708682670375 6.118296731868365 0.5855635302793881
Bi 8.08218526025391 10.479318399505287 4.166731228127242
Bi 5.565999081745521 11.621979488676786 5.373205547491038
Bi 8.171147476844865 11.849574317232776 6.893302416113323
Bi 4.860157343716221 7.247326474299602 3.3784424776794704
Bi 7.848659287697292 7.432077998973702 3.97598023518705
Bi 8.491669631195242 7.393880491800918 7.7740742184322205
Bi 7.969121233585544 9.942663888336092 9.265615178498246
Bi 4.1057549832764435 9.352843553668427 6.768068084626798
Bi 8.835203874751295 3.4970954728124877 6.622390719488568
Bi 5.680388474789456 6.693916383026103 6.864130983121932
Bi 4.957730001427818 9.891791595429153 9.633858658443138
Bi 5.858992647244473 3.088882766667235 6.9518033555603065
Bi 7.785303094006622 0.7269595230167197 7.38742169703113
Bi 8.754498661135695 6.162572977955327 10.54227943969747
Bi 4.1588223257485035 6.950026916600415 9.509382419051644
Bi 9.889626736845846 3.5637242368283455 9.454338509320204
Bi 5.334818782729625 2.820766035716358 9.93203567280874
Bi 5.960339844384171 5.403410799465776 11.378646041288658
Bi 7.968399574474014 1.4149175593059504 10.400847512617208
