27
Energy = -96.98736672 eV
Bi 11.69960204291975 8.1262603874934 9.586848315464614
Bi 11.1910717142298 8.886473075491677 6.679006363231925
Bi 5.1671969407450575 8.099440992247118 3.4513364979886965
Bi 6.394410352163249 2.001944987709629 5.344248778039011
Bi 3.446861552386751 2.3086081122800484 6.134446022529532
Bi 1.7127883885064508 7.015780228135575 3.87021053859686
Bi 4.512986898198791 10.692774965269269 7.545902562067623
Bi 8.418391040664906 10.052912924403389 7.382445515876096
Bi 3.911256164964873 2.0393652066184607 9.318783284017128
Bi 6.419748284424607 10.639746487316074 9.809659875546508
Bi 4.537499265200067 5.075005945481574 6.571299752912993
Bi 9.320667557925741 6.15238635464279 9.55544972635993
Bi 6.0835934891701 0.3848207284207875 8.021646551886326
Bi 8.66719170139237 5.5030032407528315 5.17119081749334
Bi 5.757889764810356 4.427783735683837 9.457198204727346
Bi 9.289709714784385 9.79482538897117 3.5070776526821965
Bi 1.9989586775524846 6.824658370681586 6.893331591329892
Bi 2.3651973939334763 4.033513863774751 3.63498306408321
Bi 7.322450722310899 7.20963207843832 7.494658370335266
Bi 7.481270587858062 8.414306305673117 1.4493554264415642
Bi 9.792096578395839 6.935542541601216 2.7327872905247945
Bi 6.503231279501461 10.413446954645556 4.955286577261381
Bi 7.872147003605226 2.87335389066936 7.879687883008895
Bi 0.027531683159829345 5.017254274629277 5.358138375035736
Bi 11.55549912827128 5.950609954463043 7.516971034948142
Bi 6.031283324915693 5.179663253701417 3.7227576346865487
Bi 4.764614283812171 8.192031286608547 9.200437828728266
