26
Energy = -93.45169724 eV
Bi 7.461008235537145 4.622953560461978 5.707238087541669
Bi 8.537639554535792 6.3564703715224775 9.193763888876346
Bi 10.319375081934608 7.646449881645325 4.459659435695755
Bi 7.06808789856491 3.7566075198698345 9.714104047990055
Bi 7.011928784447833 8.876262499482054 8.198823520879202
Bi 9.918264422235584 9.934967669682031 2.6648897231819877
Bi 6.348095516352999 2.17309660828857 4.252161896566371
Bi 9.465251398332553 3.820479591243959 7.8104856897093535
Bi 2.586315519073014 11.927827630679205 8.982812567457984
Bi 10.116225758431058 7.160292119606629 1.469509169464805
Bi 7.985849638234132 11.033993019017773 6.2553724893040625
Bi 7.082886441302633 7.600696860058541 4.178992845247125
Bi 5.088840707107703 11.927827630679205 6.90509151045834
Bi 4.909632667061988 3.0989976856483823 7.5916946803981915
Bi 8.587429964181238 3.823433245241421 2.9741225955814787
Bi 1.313472552786009 1.0072809354328514 6.43326268759469
Bi 4.08329814461019 9.052904896391855 7.445589307522366
Bi 6.842379633022216 10.607637957486016 3.4957710782872082
Bi 3.261461929134343 2.5552516440454442 10.128965120559831
Bi 3.9056946100687453 10.214592580937722 4.66775175310314
Bi 0.4145013660362079 1.8754013064695254 9.179813985792956
Bi 4.065281916579515 3.761629660520353 3.0507636774727676
Bi 7.208959716668195 6.127482784427657 1.5152798134363865
Bi 1.8246403939948819 3.743243150985593 5.174689221522093
Bi 3.3427016630380613 5.638794561628229 7.096380074873416
Bi 4.087568507649006 6.585901194000694 4.289803152403282
