26
Energy = -93.57980085 eV
Bi 11.016153724831133 6.538987816224422 6.144100949836379
Bi 7.702775730560236 1.7075123004372859 8.895390958233323
Bi 10.194551388202674 5.052362245004635 10.309401676527237
Bi 10.292701663348103 2.998372070891193 8.009144455469126
Bi 9.902454248522005 3.9266053642906327 5.106163963287361
Bi 8.561732261614148 7.900689856742075 7.409306311944708
Bi 10.371778219243508 8.40092834518137 3.8008530031410075
Bi 5.488991334094798 4.581942646777216 10.593698013932615
Bi 8.06192058863814 3.2335870267341584 11.551077301042064
Bi 9.828496342377965 10.394557021014752 6.039549763164095
Bi 7.388413445563694 4.564910054281006 3.3978270973039746
Bi 8.93665147911565 7.832343722216486 10.410417089170098
Bi 6.738114721192666 4.474884719952497 7.837822687352767
Bi 7.449210120526994 7.525402686192343 4.035464704593886
Bi 5.359961276186757 7.379729505222761 6.512061820369629
Bi 7.248540544067279 11.860284960783343 5.520901028421748
Bi 4.415071475308385 4.552596720980173 4.0770809940908235
Bi 6.030180552202434 7.4656803528513835 11.295746951522133
Bi 3.886498418975756 3.880221084417251 6.981679125282757
Bi 5.297725657238159 10.263955593286058 7.596819892502194
Bi 5.506472545958074 8.522448563811478 1.9515028207656406
Bi 3.3373133314750794 7.591894895955693 3.9527852660391085
Bi 5.208208859640697 11.249219319816152 3.389956522283104
Bi 2.542429509504431 6.712403465273781 7.458378561402091
Bi 3.593857846050947 8.484264258698929 9.663710325594835
Bi 3.0835338768820053 10.347954564284057 5.502897878048432
