26
Energy = -94.54617947 eV
Bi 8.25618859893857 12.917612646711014 9.383255510561558
Bi 9.551957327409722 10.58784829945632 7.745232173169075
Bi 11.384924248059349 7.262773185413176 7.065839287447179
Bi 11.611563656375296 9.117545514231987 9.456862158025881
Bi 5.508502925474773 11.685541252697902 9.611294507799935
Bi 6.938474119437872 10.249874017331926 5.4896764416747885
Bi 7.710894384254274 10.963871706200988 11.612583119588308
Bi 8.997787568941652 7.941714011823279 5.071627850496276
Bi 8.567813903110759 5.998892340925183 7.3521328529941545
Bi 9.889192683666495 2.3616156508767725 8.616972441813834
Bi 5.7474033851969235 9.073584070101596 7.989345665774315
Bi 8.680014726808746 8.565336422124433 9.907465876907933
Bi 9.55613817979622 3.530733673771319 5.825549406373352
Bi 6.177992686862612 6.2051225066025975 4.172409165042914
Bi 7.5445843310290766 3.7048658774776597 10.039159711208494
Bi 7.024635550770908 1.9239919876568559 5.486000345430175
Bi 6.053089888804382 3.4526612056813355 2.992325820212302
Bi 7.41493938617117 0.763358267475594 9.412215388344805
Bi 4.501604076259508 7.626345227377454 2.149658219946959
Bi 4.115249670769092 9.858363375747478 4.178046356362296
Bi 5.512255549504249 2.7379469572084965 7.99054631485876
Bi 4.210944151475111 5.793384267024096 6.447009646328153
Bi 2.9802628719043898 8.568047517210696 6.662742965365337
Bi 3.0351846735831667 3.112617484501301 2.804562018502084
Bi 2.0000446540023553 5.924174390101045 2.2255195767966853
Bi 1.7773754288262087 4.74817809614091 4.999150285572412
