28
Energy = -100.76595533 eV
Bi 7.050478992618463 9.955828910995594 11.501213398311293
Bi 3.5703878141678143 7.523237324885768 11.095399080309232
Bi 5.422493330631228 10.835866902211471 9.143190489620656
Bi 6.145717132064634 7.8397763904387965 9.448864954243298
Bi 8.423198323176921 11.162689434035205 9.07917155095369
Bi 3.09462426961628 4.767205048775728 12.29883431846869
Bi 1.6347094207610673 5.556555881144004 9.807542202610598
Bi 4.208996888224683 6.589715194722403 3.3990998427770993
Bi 6.8482436336983685 9.443073418785731 5.438686083128447
Bi 9.02425903537959 8.574229879912519 7.410681457752065
Bi 8.965730643949081 11.582168599598614 4.732801078428545
Bi 6.207967423421325 4.424609710196862 9.0118946124893
Bi 5.791622736081143 6.122280493076427 6.206069831075146
Bi 3.541532995657894 3.1566879104554486 9.727211814069635
Bi 3.1451441517409418 3.4635463251841445 6.111496651329687
Bi 5.446471982976494 8.787012849385635 1.6641662010265559
Bi 9.387449596064718 5.181563229796898 7.509033972849641
Bi 8.328412462403675 9.279257088609318 2.7731676600111843
Bi 11.279623096507235 9.892231286744488 5.809608657311231
Bi 4.461060757244385 1.1216623346234014 4.612983798205659
Bi 6.581593524074655 5.992022641912671 1.7062447647654413
Bi 8.565447858124548 6.262203380572367 4.3037686688919115
Bi 6.7595131724579485 3.2495663034951274 6.239359650586687
Bi 11.386608133281278 7.525726843986671 3.85344111297878
Bi 12.045412268523293 5.4366765278368945 5.984213712323762
Bi 1.4563109636144713 1.240870804742702 4.841177309897972
Bi 2.9644428241893492 3.2166850616990277 3.0612886879994283
Bi 9.902597340863371 3.4695076388390937 4.984661558933753
