25
Energy = -89.09984376 eV
Bi 10.572074268197388 2.4694427197627444 3.7105812890259955
Bi 6.823090956262364 7.037618374165239 9.705348257423102
Bi 6.274141372806812 4.911702407726958 11.757127018101121
Bi 12.076613752209335 4.6882383614891765 5.08236905581648
Bi 8.236440773128443 2.947004564608169 5.68364228376063
Bi 6.995373173040636 4.1354324178356245 8.98156412154423
Bi 9.94556478497996 4.942384486845708 7.303365824894406
Bi 10.69741528801212 8.863021170785602 8.238544126041601
Bi 8.317731532177158 10.298269286207253 6.0416426106876315
Bi 10.800691815859564 11.693327379860026 7.305476157511263
Bi 10.26509628999085 5.332156906704835 2.6761993851719525
Bi 9.313163377913392 7.352833500370926 5.510258441598098
Bi 7.318530237399114 4.815279855869112 3.4574934238240536
Bi 3.664630274911745 4.0594229239779605 9.496539185121605
Bi 8.790168161306239 10.820606519440156 9.404165123128738
Bi 5.575377263183268 10.24710206815322 8.14280886050931
Bi 4.477672559208057 3.3589192983610543 6.596980399640598
Bi 6.604158897818741 9.45317475631842 3.4293397481664236
Bi 6.268821894664919 7.0784222071408704 5.292671352380725
Bi 3.811652169628146 7.643664470826912 8.184174348544616
Bi 4.996574270991169 11.277884329802824 5.2663419109276655
Bi 2.3107770669705365 1.752965811707105 7.986390237036325
Bi 2.5859574530432057 9.499838063260496 5.9566509814640165
Bi 2.4679685368257682 10.259604588415856 8.863594986395775
Bi 1.7453445486718004 4.5547602012490636 7.042421810029102
