28
Energy = -102.20375337 eV
Bi 7.31418738449235 2.016679296149983 10.070910591248365
Bi 5.68558068110772 2.712252773762921 6.176151782418932
Bi 4.708661757035413 3.2667312199028764 3.3185465138230037
Bi 9.676890395929675 2.2386796063696264 8.148317134035707
Bi 5.711284364405315 4.581460753948403 10.079520161604297
Bi 2.6289709040870908 5.658240628426845 6.9544304023161025
Bi 8.589508762739634 2.5519927639831907 5.310766269377477
Bi 2.5193831413528955 5.355610126004773 3.9120860091464045
Bi 5.719869540918057 5.639656581269868 7.171767326317885
Bi 10.739570371035153 4.768994330925906 9.489940794409804
Bi 7.194687238674743 4.652171045878193 2.0718428517809833
Bi 1.9269504374441335 8.659984533649265 6.80948190837796
Bi 8.405332989565032 4.542944482233593 11.460841699000248
Bi 8.187955027823161 5.539556323242974 4.784423060121391
Bi 4.82512028596361 7.289392859988921 4.049804615698406
Bi 3.7616572974101548 10.593904399620019 8.378095034764302
Bi 10.491466953110912 7.328555003932763 3.8848329636591306
Bi 8.969744712016155 6.941749940882818 8.34206288545982
Bi 6.020104568822563 8.725626046674059 9.198781616467357
Bi 6.188433335245775 7.452318800567836 1.3616616575406508
Bi 7.2664910320209355 9.011451383675913 5.777908732537944
Bi 10.303782789693496 9.011601931803241 6.467799086347157
Bi 3.215993107228112 9.853271455521362 4.29149539585908
Bi 7.048668356468192 9.530631125567858 11.973936461722182
Bi 8.287410029861439 9.18962528718485 2.854026202597987
Bi 7.973936479227343 11.052117385534117 9.551423428493155
Bi 9.716524246571208 8.837812362226703 10.67354461610679
Bi 5.365264223629048 11.440417964950775 5.87903121264743
