21
Energy = -74.96878204 eV
Bi 11.437839604694492 4.397803744926785 10.746699537811818
Bi 4.018480522100029 8.338494356157055 4.295482772399159
Bi 5.704587000597581 10.152158281050378 6.494899825546181
Bi 10.27382708361476 11.79593627693691 8.375044471516395
Bi 10.504813674040687 8.029546031612899 12.300857433158155
Bi 8.964539448079288 9.65281745832153 10.22360590887539
Bi 9.09174407005675 3.504693830213032 9.096512708950707
Bi 7.333826054417689 5.809516444106716 5.522371370374943
Bi 8.472911859206357 10.291900214889784 4.327729544794682
Bi 7.313659945793772 12.415926097550077 8.186599639669687
Bi 4.315740502342411 8.03009536597543 8.726520416184533
Bi 7.055530510530608 12.80065257184909 5.2482206234425375
Bi 4.354559998194405 6.115826632165153 6.340778785710553
Bi 10.459799458222006 9.482404965879137 6.4196096243508185
Bi 7.8132966094835545 8.111395327841178 7.4410275800032375
Bi 10.817017015570062 5.791031502661981 8.139920272555058
Bi 11.902889357034692 2.965825358373126 8.130043886309185
Bi 6.620421070513641 6.484905039541739 9.862437974606763
Bi 8.466181876982654 10.097383829385187 13.192787397876208
Bi 7.62567017273816 7.237083743090877 12.72125274922178
Bi 6.708073108857496 7.712232694184735 3.2363652366989726
