28
Energy = -102.33848692 eV
Bi 7.018247931812283 10.908597515653623 6.9912311061207815
Bi 7.829198160546715 8.328059143949583 5.484984262213203
Bi 10.8934701440747 8.537814896599507 5.277558320330118
Bi 8.23785171488421 9.78249858070413 9.55692410497408
Bi 4.531319087243829 10.393370267595248 2.568422557393797
Bi 7.3058056865971155 9.13202393786024 2.5853438470498875
Bi 3.346532695861817 8.889045181701364 9.821424665246376
Bi 4.66922898617389 8.96426038561427 7.047562097213126
Bi 5.831412533333795 9.562087415149692 11.433309352628202
Bi 6.31559673076589 6.651624468066494 1.0764184489605428
Bi 3.4731284525300463 7.774980777255391 1.2738234927694574
Bi 2.6463970430783856 9.652458855298581 4.85880813892509
Bi 11.485514551807013 7.295435588665473 7.983184020517403
Bi 11.408038448025266 5.541957638435096 5.5013661984942726
Bi 2.488234936485634 6.70625689573948 3.997550465776269
Bi 5.07615714199519 6.365992155722758 9.324531990288584
Bi 5.154389258558409 5.754248828239473 5.212032706096586
Bi 8.49692965127486 6.8814816512685155 8.663747989085136
Bi 5.455074510022903 4.181780267817953 2.6513312391936714
Bi 5.955869314533398 6.57807967026354 12.191288971931911
Bi 8.469863708978659 4.723935729732428 5.8470344186552925
Bi 7.987894340381659 2.7241105545866606 3.5923585712670985
Bi 8.654698208423866 5.433731324960676 11.326927302952456
Bi 4.331354834663483 3.4193071976016483 9.378979236141468
Bi 4.086424807237589 3.107086292786903 6.350041080391777
Bi 6.478081572236406 1.2778627822726947 5.854609489092857
Bi 8.751790249389261 2.2706700793432733 7.630603045019971
Bi 7.252748617185952 2.8940779337590476 10.193370874188956
