21
Energy = -74.78666186 eV
Bi 10.958428303559755 11.663078442221765 5.204156408459294
Bi 11.502589777901827 5.825865246288379 8.683706329594827
Bi 10.430372541906939 8.640576457077131 5.28749189439097
Bi 9.842756939645867 7.184944316329042 11.515998748698333
Bi 7.381214403763713 10.79485834097649 9.553754073701512
Bi 3.17415462728653 8.315538041233994 10.04970860913474
Bi 4.299649853720243 9.802490226856829 12.440847709806304
Bi 5.466511542997025 6.384886476436061 9.28454689451967
Bi 8.124488045111042 10.861952444762892 5.745148037931522
Bi 3.765050577493282 6.103852391726014 6.696628714310125
Bi 5.709294272953371 4.2130966172518605 5.278325437578011
Bi 7.453542161004244 6.72508800655471 4.95464446020004
Bi 9.874438077521788 4.564069903832616 4.775258070225407
Bi 5.808475926002342 8.493954988745653 7.196362195558151
Bi 9.29465944999225 8.025642207324676 8.522510117090361
Bi 9.359877257170506 10.37734392340411 3.0058475677803878
Bi 7.009525419509856 8.490499805227705 11.382147086444192
Bi 11.954863823344093 8.607653933638959 9.894080363856771
Bi 8.042662837600812 4.765733881516179 7.191485087095978
Bi 4.343245190581396 11.156290151554979 9.76174119247466
Bi 12.301307486796407 5.923459311542826 5.742433809187388
