20
Energy = -70.35536496 eV
Bi 12.815211906748726 6.736163421331819 3.962336827614852
Bi 4.710097906665176 10.364137522298865 9.489522483985514
Bi 8.894734564827491 6.198472719938624 10.53446371459461
Bi 8.433892221191394 3.179817269041763 7.514929649628782
Bi 10.695916086634734 4.128268700952841 9.230945151743267
Bi 6.843085133671116 10.375205772514695 3.1932643966929612
Bi 7.472173426252023 11.601062794473087 5.870375278221486
Bi 8.915957159734136 9.02785818207609 5.033698545289215
Bi 8.456080411978196 5.607045091042799 5.555440905898926
Bi 6.4985229532877 8.716176953552282 11.394958297630428
Bi 10.063480531455285 9.976183109206065 11.77385057026327
Bi 5.412124331637142 9.420465365247503 5.692104458337996
Bi 10.022301452612975 8.856052445609414 8.944185788711895
Bi 4.074445324470963 7.43063356659191 9.899508566435927
Bi 12.027735722563003 9.086161411679994 5.5593136759619295
Bi 8.204098933901493 11.152446509891941 9.878645813503745
Bi 6.493458951595581 4.800139921040425 9.299450295431523
Bi 11.312208172104455 6.219515801616546 6.545367130449143
Bi 7.2054907928581 7.409193724262742 7.647863949809313
Bi 3.611955632830924 9.441451232418006 12.146449503422161
