28
Energy = -100.93167271 eV
Bi 5.13860162525053 10.781932980476512 6.3313639490555325
Bi 6.63509201780355 10.52814459790769 3.660897334593483
Bi 3.2193281722773746 8.763926385447045 4.970809176160065
Bi 5.267129937389285 7.960302658616384 2.8294023656984515
Bi 9.2415801255677 12.941882113759299 10.149392356798497
Bi 4.526700738909577 8.058818762147945 7.64926576230854
Bi 6.97811823593724 6.3225556764224935 4.754001763815602
Bi 8.417152139979299 10.980047786370996 7.835341788707791
Bi 7.717973390676636 7.785747113547768 7.403412726430388
Bi 10.11873028357362 10.958775347994777 12.165632596568415
Bi 4.033393899370415 5.098815954679295 5.886915600221783
Bi 6.786451245732906 8.97601106823109 10.766592850232106
Bi 9.592525728138712 9.837566412215804 3.543109695295832
Bi 12.035265494876509 11.8186611645743 9.99653338594469
Bi 5.146777017304672 2.276035507198137 5.219226629860575
Bi 9.99804382937596 6.8731374476571085 4.062041298542785
Bi 8.08644456336964 8.128956385060292 13.407455663647584
Bi 10.444392886875313 11.79636881602325 5.7231857220812445
Bi 10.512473762328677 6.205003786459091 6.959022646618041
Bi 7.835045827722882 3.3759511204495896 4.329229786050856
Bi 4.759067143523525 3.2014355528775456 8.048307003995427
Bi 7.028837442218317 5.218044700123329 13.021089141121221
Bi 7.118989784939609 5.074369614436558 8.863950888577575
Bi 11.243548750667951 9.761629096659956 7.804133694493106
Bi 9.67018924888854 7.879022355512734 10.863209170941944
Bi 5.127768587220126 6.395467752103636 10.947839591016438
Bi 9.205840084631438 4.662356332156304 10.980325237199452
Bi 9.224863913480078 3.44935938892164 6.938638052053292
