22
Energy = -79.97937018 eV
Bi 9.223518034970597 8.004147946509537 1.756462542845697
Bi 7.04766448760434 6.13651714603408 0.8913844610474535
Bi 7.055742771010318 7.177808129651323 3.7829946121380815
Bi 9.69186102912932 5.015028194700418 1.8507624635944808
Bi 8.597560973610708 4.7027000966174795 4.741238224194031
Bi 10.898911149002195 6.235287352045709 6.047111110991444
Bi 3.6119905560410066 8.996886054073919 6.375631610896008
Bi 9.561224117552447 8.891118631695612 6.661440977033309
Bi 3.33834265543314 6.409365866992609 4.787524591893555
Bi 0.43601154533616804 6.084715078320443 5.763908814959109
Bi 4.866343112840435 8.128890027630526 8.968098314337237
Bi 11.345778420816952 9.538596828676981 9.013810900985035
Bi 0.7254825318706914 8.682901698484683 7.35004853552053
Bi 6.840172189283764 6.475890825177353 7.268001390404771
Bi 10.817154829588157 4.691473399578901 8.622139593190184
Bi 8.253024534952122 9.482411238036343 9.358953866237496
Bi 0.7427060218252136 6.013516028408703 8.74801204530053
Bi 4.629809313696432 4.368008885369215 6.5680388824941325
Bi 7.876608785741296 4.767899810081331 9.533885851755537
Bi 11.510950914484312 6.924080927209231 10.597092522876764
Bi 8.529401377976384 7.163990660433074 11.316599606790636
Bi 3.6736282681983745 5.352272439402612 9.244241392090064
