25
Energy = -89.74984217 eV
Bi 8.080637613103017 3.611072322712004 6.494608020726538
Bi 2.263965904032269 8.258905454663717 8.26134062909755
Bi 7.984790493010335 6.120725082807437 8.953536843212724
Bi 4.718105725516124 5.9818423245278245 10.630555234497338
Bi 10.195031283536578 8.192109811500837 8.819454881780242
Bi 7.9996498275642685 8.596358074687846 5.9285490930015685
Bi 8.367636436527198 6.994056757444643 11.877447716324864
Bi 10.927408027968422 7.8429860886209655 5.817111462397971
Bi 9.431855026283042 5.2445017398150515 2.301323288008784
Bi 7.003279698595956 6.414475085413695 3.667269249129518
Bi 6.908533762679596 10.548930167850116 3.820033950496916
Bi 4.592224066526412 11.086991399687513 5.769411208752318
Bi 6.13066491660841 1.696140550795459 3.136729076956576
Bi 8.659148991326784 1.1045151270140268 4.742499682876943
Bi 5.448930978267675 9.948555900837215 8.582504165356623
Bi 5.518091564119764 4.137674152676438 4.898884124031942
Bi 8.833961268216296 2.2853607461838332 1.9704240443819652
Bi 3.382624670314888 8.410302806788804 4.878810569040601
Bi 5.084778547768689 7.204519563323847 7.268771367938023
Bi 5.990992004574969 5.8666925846388445 13.405654382047206
Bi 8.421193773494853 10.658080157065747 8.130270063774864
Bi 5.737942450094587 8.518272124947861 11.949457902905962
Bi 10.489224830735767 4.865226221200662 5.100359189243845
Bi 5.158169830448343 8.466345796699171 2.371484499273467
Bi 1.8764819868915514 7.031449121060772 10.79256271150788
