20
Energy = -73.02356825 eV
Bi 7.802800095821906 11.027296149415521 11.976710560651593
Bi 7.536131492413679 8.002824610664103 11.852287846183382
Bi 5.046688200616752 9.702665688362032 11.771961624546156
Bi 7.683867258113387 11.780004963795166 9.024385551630823
Bi 9.675012047425541 9.634337377076934 8.372429731788491
Bi 8.10240565064472 7.163876326961699 8.974316983524666
Bi 4.92082231258241 10.505869269408125 8.829477358094483
Bi 5.4161646332086555 7.7359907647354476 7.717585396762328
Bi 9.090377864232435 9.668503488276645 5.40424647876332
Bi 6.041100642106822 9.4128968625231 5.262117835782648
Bi 9.524477713098054 6.808434364002107 4.413603758413822
Bi 7.05418920868647 7.765881246666421 2.885077804910579
Bi 3.8667398281002288 4.889213242882708 4.9910936816528535
Bi 5.853004455588847 4.201261935385928 7.181849727140163
Bi 5.4836400543669885 5.172048859195479 2.4913868843765936
Bi 8.584061209674163 4.3235350034160955 5.922006474551909
Bi 7.890871771191729 3.4947638162753787 3.0965505467700263
Bi 3.504428488782922 1.9032915461276818 4.398396742034267
Bi 5.53018081053688 1.1950238012448058 6.5765660533573564
Bi 6.295810550886984 0.9799594641448314 3.6621338785334645
