29
Energy = -105.47422532 eV
Bi 9.526740161729883 4.221793978161977 3.014287013570336
Bi 9.800936783852691 3.287434057638213 5.906331598393856
Bi 8.446247710976792 7.071320603289927 2.7982834261598932
Bi 6.937533158781885 2.633509430361276 2.710450548152478
Bi 8.301538475350464 0.8652898882008966 4.791820066820048
Bi 11.00107098549444 8.305601825443294 3.9015067516423088
Bi 9.054142368375643 10.588903834376016 4.64881168688952
Bi 7.383444053867069 4.867075940598838 6.8451786541573805
Bi 5.4000854708736465 4.46925014167583 4.568436735613423
Bi 7.191725555100002 8.22775117944729 5.377068129457085
Bi 6.014298349567875 0.46707038615704793 6.816809293074715
Bi 10.54477513842918 7.489384818346181 6.841812596112039
Bi 4.6899783481336215 9.268377970945 3.881084306411441
Bi 11.12807495243806 10.440378496825156 6.950653990305507
Bi 7.11640007500997 11.393001437409309 7.583203977739688
Bi 3.0008836078856955 10.803123586395015 5.891761052908791
Bi 6.826765466813351 2.5827065931437625 8.77972855031299
Bi 3.9050932402642573 1.9306056437758847 5.26717317962238
Bi 8.146626255400546 12.744816018601636 10.131171960064922
Bi 7.797924097992294 8.64210166674096 8.789485498443414
Bi 10.920004831676748 11.55750981646731 9.821932350341468
Bi 4.253009843839969 11.095968326630397 8.641552859103722
Bi 4.320007804523289 6.474491947270887 7.425998565905572
Bi 2.4739018357686313 7.8749915051251405 5.433334863862268
Bi 8.801500108214327 10.047665242860297 11.351068626632816
Bi 4.844644585451058 8.351931410150339 9.764288023855407
Bi 4.050549745694452 2.656163964529487 10.025153497630958
Bi 2.1365649146134253 2.191751657204072 7.7315664425785195
Bi 2.2799104482669397 4.937740811910411 9.0333451143879
