22
Energy = -78.85889098 eV
Bi 3.8719605138872226 9.225395869594474 8.598278830599382
Bi 5.529755655465445 8.934767825425773 11.299128815547535
Bi 5.3357761442432 3.4883754913800495 7.073624053557954
Bi 5.382967848679268 6.690732800502724 7.219118169795284
Bi 4.480212476537787 6.170331911852695 10.141371128640591
Bi 1.3057275577861147 9.680041664950087 6.848904682763073
Bi 10.084321405646943 8.245396294787502 2.9696098660678536
Bi 10.222175781472592 8.804167117712646 11.4027686869454
Bi 9.621554362099678 7.120524296628859 7.2503388103105495
Bi 5.772269531549994 3.231076305462159 10.006039979009447
Bi 12.582402224850574 8.9372021534327 9.560079914414683
Bi 3.9895294634997254 10.806461812580883 5.926214460473019
Bi 7.352093024936925 7.075554501733253 3.662517120273124
Bi 7.7167575893353195 6.520342586910929 10.174666467894678
Bi 12.045908063026522 8.717642669779085 6.518864081731913
Bi 9.846109508233013 5.633480370655757 4.531982146688728
Bi 7.890200988106687 9.451502688814417 9.388566069436246
Bi 10.0072150913218 10.451898044006924 5.11138711981881
Bi 11.245448917193643 6.256574361926351 10.063165289397412
Bi 8.055147003100288 3.9439004549886043 8.165138383971906
Bi 3.1610162866494282 8.036390855441656 5.202662445141467
Bi 7.295494407350895 9.187464267480845 5.976549400106592
