22
Energy = -79.45892129 eV
Bi 5.286250620001815 5.110138285799296 9.634879115474906
Bi 5.478742753226074 7.69474581769532 5.407802737573797
Bi 3.6756120389753617 3.0729677358264555 6.322257013814636
Bi 3.1782939126643317 6.985433675864119 1.0241846653321947
Bi 1.0856405720254867 1.6837128537397539 5.50594963109534
Bi 7.414015899119278 3.413089759106659 8.260405305474814
Bi 5.710765674137134 8.103324798956775 2.1740465474872304
Bi 9.920742841598232 4.443625131322341 4.75688225501502
Bi 4.599037439634461 8.928005866874113 9.02589050746275
Bi 5.947146548205159 10.848443752974207 6.927213394601876
Bi 3.0603300167978964 11.11304469943436 7.663428171453428
Bi 9.215462222111833 3.3899286592712516 1.9972571533342112
Bi 6.900089523945583 4.468959507929723 5.446669186425751
Bi 9.953744108148797 1.4713261399930344 4.169765174196856
Bi 5.606922993891671 5.1904434859108495 1.3503652033832219
Bi 2.0046596667009045 2.620023581944782 2.77490004004383
Bi 4.7468466659832975 2.1824012627676757 9.030980686954372
Bi 6.974932096764746 2.016197922275722 3.6258408941189737
Bi 3.6895920583229493 0.6736066901824325 4.359951438235195
Bi 3.8533508846051863 10.16393041321507 4.827298097670069
Bi 3.524546396156678 6.518285730566209 7.528010363837751
Bi 3.5302311711643397 5.265320126578946 3.5429779033395525
