20
Energy = -71.41316259 eV
Bi 5.742129439631256 9.052785727139133 13.557854396026519
Bi 4.914568445641703 10.136519173835788 10.825252720487837
Bi 10.080988853358344 9.438790718482515 8.099703529934663
Bi 7.1314113470500065 4.670512356283432 4.154455574096647
Bi 7.633111537938588 7.454477265024398 7.365993444808124
Bi 7.821810068275645 9.795587432605016 11.48893611381473
Bi 5.3561073762935045 8.846317893891985 3.0926956111900226
Bi 7.89341045564452 9.385951534206555 4.792627525997562
Bi 6.096195393071934 10.378874795096538 7.433215815011043
Bi 10.494068199220582 10.964363339064276 5.568592575493708
Bi 9.909104010541297 2.77571701165574 10.09299699842425
Bi 3.835032822613741 9.913098053100429 5.458794010186903
Bi 8.016228675686321 2.9357623057433995 6.507346842991103
Bi 6.076883342089618 7.357691701805182 11.06720467016352
Bi 10.58689077270901 4.2858990200043925 7.471731420170249
Bi 7.127354520643656 3.7199381702457748 9.372377937442353
Bi 9.272114284292671 6.570160504337658 4.878925774067959
Bi 9.363159076267864 5.752455078254995 9.907532208834839
Bi 5.07319244415624 6.977688163928191 5.379689337316263
Bi 8.724920879813162 12.096356091071563 7.69835000366044
