24
Energy = -85.03307416 eV
Bi 9.927916063911134 6.474313112075993 6.59694233117797
Bi 9.586110517917575 9.560798965009468 7.901374551591489
Bi 11.876878429035198 5.783886952949882 4.130201027777328
Bi 10.663933862385477 6.882085976049048 10.04348317468805
Bi 8.915542512213786 11.87171061032045 9.923036156394742
Bi 9.952019680035994 8.022755110769667 3.3974634484012243
Bi 9.527548719139402 10.645310231621236 4.916013581439354
Bi 9.258935561912569 3.4734888001925137 5.936687301850014
Bi 8.666346461692573 5.661890085177913 11.901001179686599
Bi 8.927677441850376 8.967309241913455 11.47405663281198
Bi 9.43166025337303 4.357404753923522 3.066105276775648
Bi 7.552511667287231 5.822187345350355 9.078874988961438
Bi 7.002724650048935 11.093441689573556 7.432280967375559
Bi 6.700911140522637 9.665178722523292 4.254283452975123
Bi 5.918201378814549 7.901889578882786 10.777052240673994
Bi 6.261456644648051 2.8881656643575013 6.163939413378956
Bi 7.405547895088817 6.613424352402973 4.608157311241463
Bi 5.915077844140212 11.004232916175198 10.233275545048595
Bi 4.707628141696155 5.570161416957679 6.2124411605465015
Bi 6.333917572394086 2.959504272860372 9.193742130237096
Bi 4.099672938235148 9.180453496449692 6.140789530159874
Bi 3.4661584392955986 11.437502493304374 8.09880983629195
Bi 4.2508051844037436 5.158992062651552 9.129283549159089
Bi 3.2377784755622017 8.590873624111858 8.977666686960447
