25
Energy = -89.80123144 eV
Bi 5.2336987187527475 3.525371172442158 4.018363888056575
Bi 8.894625036469213 8.511478622984852 3.8711049247982836
Bi 5.022500396845019 6.827339685618007 2.030119016367241
Bi 7.5059333053177895 5.2798089215631485 2.9484617717546833
Bi 5.032370687169846 9.820584471091397 1.6397046744332286
Bi 7.03032052497618 2.6918682065241404 6.313424495049571
Bi 6.418174101239038 5.725025580740097 5.7608427047667945
Bi 7.381253425182373 11.021898891447517 3.1804097575573773
Bi 10.035558503529256 7.372482747216423 7.380363515019278
Bi 4.160437352950442 8.578091953126542 4.34574095087227
Bi 10.53021883828583 10.777030523643376 5.157658724151613
Bi 8.058337715889131 4.880442038262205 9.237916675064804
Bi 3.6132629273915837 4.956283820974256 7.593230362312205
Bi 4.683326069878615 2.011169159449066 8.155124798466654
Bi 1.9531162185463709 7.6995733996342794 7.038830705106547
Bi 12.437981345347808 9.19144768482091 6.942314821725408
Bi 10.465543882176654 4.065459262621736 10.908344242362105
Bi 6.752834006335806 9.52386374094412 5.839912277274835
Bi 1.6448548574172999 5.971702564485093 9.648242080336434
Bi 5.779035593066863 3.356741392471222 10.565692400274589
Bi 4.2962576347579 8.96377181980782 8.226383934650707
Bi 11.302325693858478 6.898007905977658 10.158576759136928
Bi 4.638347859042756 6.411492079645464 10.10555999033605
Bi 8.807346644980063 6.386572332893283 11.806643642913956
Bi 9.922268326659573 10.309014615036254 8.12860010065559
