29
Energy = -106.08167404 eV
Bi 11.483624795375047 10.609574548090304 7.005700330068145
Bi 9.237973080722172 12.316164642760487 8.12044938175748
Bi 10.528133716803197 10.183499988770679 9.849783703707757
Bi 9.347691653221391 9.38313248708545 5.153295675675465
Bi 9.864704068246192 5.81094212243727 11.342179719280402
Bi 11.015513831375786 4.496583480672006 6.411827053631943
Bi 8.86137607600214 7.70146248882984 9.177023058072644
Bi 7.207399020429001 10.186643227544069 7.170772937383264
Bi 8.914442411959456 5.331035428654068 2.828767966675995
Bi 10.281699525652787 3.582354935378293 9.283317654784423
Bi 8.674625309162465 6.42629262109346 5.705251870067105
Bi 5.555532594914145 11.246493375793044 4.839731116358298
Bi 9.088013684926686 2.141736918140665 6.030498550164797
Bi 6.893183607056931 5.310155592774621 12.012158185568957
Bi 7.597513450465336 3.9995781209134265 8.009885083840299
Bi 6.221974526647467 7.999983522025791 10.666697206536833
Bi 7.347182480092996 2.855156688893534 3.6103750005952215
Bi 5.657569475091953 8.190267930308032 4.290664298826564
Bi 5.743925593491297 3.077544226066282 10.225110031554005
Bi 6.576371657604551 6.915141758583113 1.6029167696620807
Bi 2.7191713555589176 10.422773239193873 5.522489105661543
Bi 5.29952297955881 7.074716319984883 7.901280364637368
Bi 5.43218270158048 4.7814551428391905 5.077321750085943
Bi 3.5229072144410947 4.914128548327234 9.176774691245775
Bi 2.6174728121118482 8.526773344591362 7.887350328217921
Bi 4.199257971449661 5.160444009402092 2.3386010889239537
Bi 2.7647721082114014 7.7992414101637 3.3796785759618984
Bi 2.803853761118704 3.8654534559465787 6.402482269711211
Bi 1.410390418629412 6.559252306636679 5.8455981132424
