24
Energy = -87.75748536 eV
Bi 0.3058263584685174 8.0598891075963 7.258419583773617
Bi 0.692042778750671 8.990095202926742 4.420175534930821
Bi 0.8711964041809921 6.012116478702342 5.079771801846735
Bi 2.9142919487034398 8.428556551020126 8.772237543076887
Bi 4.2312401756645475 10.381432233519599 6.87045983140068
Bi 3.7501619063216713 5.698845444277276 7.879586270530189
Bi 3.744625407136018 9.07150424289994 4.23393174841043
Bi 3.953726911285344 6.108948491540571 4.900211585593697
Bi 7.20160060377987 9.652638049097256 6.809383499735356
Bi 6.673694141374344 7.6116082090852055 2.429664878374365
Bi 10.163466411026455 7.444032836530412 4.209653203867885
Bi 7.347673512244135 6.936587188958531 5.394817982230748
Bi 6.33281678297304 5.7781497055996445 9.562832030896573
Bi 6.787871724404383 8.76827658606089 9.690111765745057
Bi 9.19420413668566 9.234581282675245 1.9279768314394952
Bi 10.37854112250961 7.154704841099905 7.742253332622325
Bi 9.767695117626179 8.600159133396216 10.294639755851108
Bi 9.25845030916127 6.279278824068506 1.5042049099671453
Bi 8.632942641814488 4.682935880466096 7.911123678347448
Bi 13.06712985122457 6.0913205489524875 8.678279183863292
Bi 9.88393587962308 6.286241432812215 12.209936321314865
Bi 9.507784733547435 3.703007289989567 10.637744687299719
Bi 12.893269811573354 6.084680362869633 11.712334426480057
Bi 12.501911606312225 3.4983380837495033 10.121649469323321
