23
Energy = -83.31238591 eV
Bi 11.854238946196984 8.608973546161847 6.016963162098717
Bi 11.431933903653944 5.784888590053492 4.9559009858175935
Bi 11.085868076810494 8.377719267407997 9.002903760418066
Bi 9.501860317187454 9.773577223629225 4.414499267616581
Bi 9.637490668039495 7.146502595696268 2.8071208336975784
Bi 8.892762768373561 10.419492997259857 8.651246742126588
Bi 9.67345993764095 5.729510304047539 9.396174344786328
Bi 8.83734184822534 5.404732081126391 6.467958251338992
Bi 7.624766571002249 8.65935537036974 6.545360867180926
Bi 8.088098650803973 2.455449594511979 6.048046225573652
Bi 6.400610288601153 9.482256196326489 10.137854218561436
Bi 6.76105206359006 3.415167026728699 3.435782337741806
Bi 6.848314031895198 6.4523807767111405 10.33661428806224
Bi 6.859509197413922 6.418677102711432 3.8434866911594625
Bi 5.41054555285565 5.939000790419745 7.681570412895644
Bi 5.459119194603388 2.8854480994189755 7.572630182264627
Bi 5.279309766275042 10.441838232432628 7.433492773000689
Bi 4.06686885570152 3.3848124911224255 4.9101942232447024
Bi 2.907449243848501 5.496251667320184 9.303985730648678
Bi 2.985714059446919 6.259245325237639 4.669506998807171
Bi 2.9534872321172907 9.004095396248786 6.123343946323271
Bi 1.3186406303741087 7.917066575092808 8.411053402738512
Bi 1.06944400834229 5.302240443305885 6.842406059490639
