23
Energy = -83.39548295 eV
Bi 12.28641750742939 4.649464117581721 7.122035908857013
Bi 8.816113086051018 3.3595385242157954 4.046271993847159
Bi 11.20016450623274 5.263547354506728 9.885954763316946
Bi 12.468778849346036 7.453854146605639 8.206495414719301
Bi 7.284750880337768 5.073960071479756 2.1229434901630957
Bi 9.517414180579705 5.646596876850785 6.158206331697202
Bi 7.261957152008526 7.3775757547688805 4.212611710508516
Bi 8.31511137325719 4.764375863554778 8.846613274794603
Bi 5.825470174661396 3.319965949789456 4.123885660374008
Bi 9.749960075131122 8.661208647541287 7.2709069766436745
Bi 9.373570780862751 9.64164943259985 4.429989179760203
Bi 5.4253136011183765 5.352387521203511 6.466100787496634
Bi 7.061061381536472 11.090372310653985 5.805424194519187
Bi 5.3975258896872385 9.801748005656103 3.624006947306027
Bi 6.231925737371389 8.43743248748827 7.374081324865774
Bi 7.098199982873095 7.272115306842035 10.090088273325579
Bi 3.7528833386395153 3.8045739140662738 8.536583092521768
Bi 2.797989532180998 6.133520972589133 5.108276732724495
Bi 2.793784396539259 9.164706316052591 5.156354434630007
Bi 4.43766529335135 5.875265462405586 10.685057523746018
Bi 3.621068152335157 9.893254076483286 7.97336056541944
Bi 1.3384648635811043 5.567503011210081 7.721320383320062
Bi 2.265040834132555 7.776503770951996 9.645090852932677
