29
Energy = -104.89413308 eV
Bi 9.106960941296464 10.897915357083066 8.001756170824876
Bi 13.447739205208713 9.471551888077895 6.444817899170067
Bi 10.63299412060974 9.670459590190639 10.259162301224336
Bi 11.263906247674903 7.777177878773536 7.847533200270564
Bi 13.692586325366555 6.988674785536642 4.710337344042142
Bi 11.712026677128405 9.195314480145132 3.9976773303494837
Bi 6.39469953082399 10.105331236791573 11.192230754749305
Bi 4.1195167710638225 10.531855906635789 7.830178104414617
Bi 9.196098361330163 8.556760318891353 5.681804341799108
Bi 8.667710178900716 8.312014641323833 12.180866034502063
Bi 12.114461817261168 5.014922502235219 6.467593712017463
Bi 6.2265964416414885 9.057718075340333 3.408154103959118
Bi 9.840816580984958 5.543464752580426 4.679020276138512
Bi 6.692704558783847 9.0147954572643 8.363669890926099
Bi 4.0381428703219076 7.4458099607181545 1.9678455704726834
Bi 3.7642557111094788 10.279725855456137 4.798431967174133
Bi 7.959762988665004 5.414577130533504 11.47022613964007
Bi 3.9439935874027303 8.346354634864618 11.846996806834225
Bi 2.2977024193807436 8.490072584631417 9.256524624732235
Bi 8.909868293109147 5.338503603653641 8.584756497220651
Bi 6.091666628957666 6.018317239038275 3.7264212403759696
Bi 5.382828893791639 6.387631047067362 10.042440763582517
Bi 8.8598433596681 2.318662031309832 8.136873406973498
Bi 8.072603634228443 3.0900101589917646 5.313100356449615
Bi 2.1777094727316424 7.727573548705557 4.398487853687299
Bi 6.255752907254536 3.8812549348943657 7.653095864289973
Bi 2.4773356135047755 5.3832529293361855 9.420540620367584
Bi 4.362221653676179 6.556403870001528 6.188715920840044
Bi 3.0416186177552538 3.9280180095596138 6.874865312603768
