24
Energy = -60.98746161 eV
Bi 12.473285808321652 6.947072214196945 11.938047441663393
Bi 13.24648759447502 9.229077246772219 10.536319056559776
Bi 11.346333292153075 5.663350086964426 9.153083350952032
Bi 9.43361965568983 12.825258478783613 6.743725719325862
Bi 7.723392756163246 11.534905872735603 11.29258935948862
Bi 7.693179786200115 10.902852173605888 5.753842488355714
Bi 6.109065531792105 6.547687627120778 8.835453469425987
Bi 11.242750981450842 8.409588858239285 9.049410818530308
Bi 8.878450773755961 8.534878127426866 5.982584161090772
Bi 8.892591642799749 6.813420058286213 8.622822991352114
Bi 10.289038332578556 12.106086478458737 12.223184715101658
Bi 7.405658046799804 11.362909583361779 8.391679018110807
Bi 10.032526360666697 10.225409181962481 7.552743625835143
Bi 7.320065887317253 6.295340003654357 6.354126902489111
Bi 10.99803346547819 7.059006322349225 6.739001555664942
Bi 9.513463678112005 12.679751514743973 9.400749000218148
Bi 7.218322831678186 7.7169844662074025 10.878931159837775
Bi 10.795933692052524 9.454520501641788 11.822434628088823
Bi 9.787822269534345 6.960006063493882 11.226702548608579
Bi 8.8804751102237 9.563071105038233 9.912530909703761
Bi 6.899790422739882 8.862725757705507 7.832829474810591
Bi 11.660871449508198 11.128338195184996 9.601918124064628
Bi 8.272706210449957 9.202682709162225 12.863471295525162
Bi 5.776807562272786 9.980312038443543 10.24780301627388
