23
Energy = -83.25759341 eV
Bi 7.836550452864613 11.527605857690418 3.8450749961154003
Bi 8.358422665339361 8.940562849016024 2.3439685212690455
Bi 5.5377698331086425 9.963345504458298 2.6807888708774072
Bi 8.014481717899367 10.815372968654678 6.816407342763045
Bi 7.307666453485635 3.437846796125993 2.724713482931558
Bi 4.8350479709261 4.938572698698048 1.9085421006130803
Bi 9.925109924765588 8.606425441868206 6.095953869511326
Bi 8.140817594877193 6.7354450116475695 4.51021343503104
Bi 5.008090450701296 1.9618522162085514 1.4256068402593367
Bi 5.211350202346653 9.76235047866836 6.774868909128166
Bi 5.200021837642093 7.537394630294861 4.770294575847267
Bi 4.736767256300338 3.0106699062935705 4.255568370076705
Bi 5.365211474556745 3.0521855288327178 7.864811653495877
Bi 3.6032356311359974 5.232680960776272 6.866624011314806
Bi 5.972801337656211 7.789285724456962 8.979342778005757
Bi 7.7430828726498495 5.4758399201463765 8.00704630737849
Bi 10.508739241133995 6.7609184805196465 8.5005757447451
Bi 3.353865512521364 6.4221341501759515 9.666302141974958
Bi 10.15008105895354 8.423978099355285 11.00606978130375
Bi 7.274949171527909 9.26874938019 11.303778179520398
Bi 4.645166468961104 3.8618758661828303 10.722466105671513
Bi 7.6506939355467845 4.384102347655392 10.842517906757143
Bi 8.233165798850878 6.752751585605618 12.67963673218015
