27
Energy = -97.40434636 eV
Bi 4.0287537524088695 1.9683727400717805 8.655767490548149
Bi 2.119718993195817 3.650814247379011 6.982086554411624
Bi 3.073609988414405 4.669387769402717 9.673929186631923
Bi 5.785735263182056 5.857832726208188 8.725426183999822
Bi 3.442025132986128 8.873645635596965 8.623285302050347
Bi 3.6652669332407752 5.978937611137575 2.822393104990656
Bi 6.8467710139193 3.028332801389455 8.075418221346506
Bi 5.71934739286768 3.632373544904562 5.318261541864522
Bi 5.071263842252542 11.226794815179073 9.631057301476964
Bi 3.8689411576837944 5.965809841339569 5.931980107324966
Bi 5.484914353283988 8.546512337348947 10.832146052060871
Bi 9.428805549051992 5.634483736050348 9.984388903931311
Bi 7.724418238578653 7.811877763947167 6.692457597528111
Bi 10.670009950337795 3.1453370308603112 8.812314724121764
Bi 8.157954239912451 5.110624789590705 4.189844272307284
Bi 6.397682339712812 5.065750470038104 1.711534637616971
Bi 4.81412628999755 8.768440077692864 3.1680348368852
Bi 5.284492559400955 9.590605207170029 6.167019472923372
Bi 7.806496534507876 11.899303133171088 7.798928592048159
Bi 12.449772533327918 5.421788379193551 9.75303421476808
Bi 8.394645091929256 9.289609607001935 9.316956350253397
Bi 10.760135055982484 5.740526497528793 7.262065425352983
Bi 7.627602992980864 7.715419102963908 2.665394113742827
Bi 8.503145438330536 10.39383146444162 5.168999865991174
Bi 10.974329320940292 12.253645518190556 8.414017568437359
Bi 11.50744736029747 10.5512789571441 5.995933782861781
Bi 11.513925450984033 9.330000964765661 8.748661364231586
