29
Energy = -105.74257173 eV
Bi 11.06862266769779 5.442994506782497 10.785077342244653
Bi 8.648941088486177 5.3898137122451235 12.555135621658922
Bi 10.217619802995092 6.7996046401893935 8.192471369401993
Bi 9.186248005875996 2.1262157343814425 8.384578523178115
Bi 7.240310648054024 3.477211742361448 10.417136165442544
Bi 7.45507799937683 8.10784708512443 12.108909735999982
Bi 6.5381299811616085 1.808322415508712 6.869116673154642
Bi 11.724020879918518 8.3788974498848 10.328688006800013
Bi 4.500441383319777 3.010402895995796 8.82152258506485
Bi 8.83310489337733 9.09565735073283 9.603950467705824
Bi 4.859540270086106 6.7432963585316 11.240207825380885
Bi 8.4019680758247 4.173152052479624 6.294420184227962
Bi 2.8444257359696126 8.64401345719779 9.873869242075836
Bi 3.3202209198498416 7.595789801135817 7.013242696823837
Bi 6.010998150325379 4.115854559881697 2.744041079745056
Bi 8.845107494783798 3.1818155633536085 3.4390669286233173
Bi 5.986801378877492 5.637140200333802 8.643588921773086
Bi 5.766137446634007 6.308161004457994 4.853199912606076
Bi 4.061571610060309 11.129929844864117 8.532852526894175
Bi 2.0687773742368627 10.304938987877515 6.338893159623346
Bi 6.0327420391237805 9.093319573163999 7.341245220503224
Bi 9.909185683620771 5.9456884612866014 2.626823656409572
Bi 7.544018941309412 5.783657385233842 0.7101040924397966
Bi 3.989745178635675 7.712455113293309 2.814157081600896
Bi 8.523861019071953 7.621610955766242 4.748201056444171
Bi 3.647400146956538 10.605271710213037 3.7142203555146716
Bi 6.2921011201024735 11.109998254097233 5.0287149462521645
Bi 6.183986142118545 8.532728047204545 0.9183590196723355
Bi 8.079913114978226 9.905230329250129 2.8392247955683954
