22
Energy = -80.37650386 eV
Bi 5.93486164058607 11.991884464515019 11.071385816142042
Bi 3.9807738209939343 12.579898474528276 8.788957447873523
Bi 6.714056437370748 9.362534541078883 9.703051766526901
Bi 4.770446937546346 9.940990460795456 7.445119596214132
Bi 2.966371987986347 11.694709498709189 11.485119481991939
Bi 11.77529161364437 7.556318266434755 3.931559120861993
Bi 9.594173231609437 6.587646664115648 5.879315840337987
Bi 5.145456271687132 7.504823396411834 11.449692838575746
Bi 2.3547387443334964 8.351600986477811 8.227122245859043
Bi 6.194295496328021 5.917926838616817 7.089006624529675
Bi 2.3935641094392808 8.730022886804647 11.222328015211415
Bi 3.918109683800381 5.860678290483454 9.146481790788947
Bi 6.5453803524091985 3.2074282555655804 8.37991421760966
Bi 11.629540515070756 5.573631808740362 1.662760157574218
Bi 9.659750470014002 7.860845242595217 1.745620760068479
Bi 10.618590523375211 3.7725888632225555 5.664595932945907
Bi 7.502983809246642 6.88519979512611 3.7132942693153
Bi 4.45550809279596 3.612402030235799 6.177375120082084
Bi 8.400504873846483 1.8225085513983583 6.364975289190274
Bi 10.150875807840942 3.162599173605185 2.767257770804514
Bi 7.3986258706937695 4.249093601844464 2.28472799962873
Bi 6.282213408705737 2.1607816080180235 4.186451597191276
