21
Energy = -74.55617538 eV
Bi 2.085443138305234 7.735292707813396 3.7344149307552503
Bi 9.379967538007353 10.366286750830207 8.721693715074734
Bi 9.319780524852225 8.174338403517998 6.092880254093559
Bi 6.362892949116577 5.774085384937896 11.679714325400752
Bi 6.482373183735113 6.44390237245806 8.023565289660999
Bi 2.862819034720258 5.969784119063514 6.109035881978271
Bi 2.7701944703881325 7.99862432601884 8.365225310377964
Bi 4.67085905278543 6.577011017543809 2.514234035594608
Bi 7.728084409207831 3.806444116692179 7.195432402178313
Bi 11.67902714721635 8.696165398082284 8.374096421348506
Bi 1.013719796644689 5.445041525930399 1.917253597934792
Bi 8.38358959156116 7.83280900040342 10.187269904451286
Bi 3.5192854794276123 3.7665206051497915 2.290509746854612
Bi 4.878365720964295 8.199668998206622 6.091326855973953
Bi 10.332838358392843 5.454332454838556 6.896114924864286
Bi 8.346566486025605 3.977355938980823 10.331345608740163
Bi 3.275058824593836 5.596146290907566 11.679714325400756
Bi 10.765139965688702 6.001398139555456 10.061609187393875
Bi 10.253886159442404 6.253086452380063 3.7420209297343314
Bi 7.466292233372304 5.801419520554132 4.467644424602684
Bi 4.066725557620508 5.497140889514152 9.63399225171895
