26
Energy = -94.33205085 eV
Bi 1.0458274970671153 6.9753603474072 9.914526537092001
Bi 3.6774792727136623 6.052385869661324 11.227842161725034
Bi 4.359102336312126 8.905766555761305 10.386526240500052
Bi 7.813906972291398 2.1143904067482637 8.704963290532392
Bi 3.5715144376984926 4.0682961877185475 8.940285269235455
Bi 9.374475661707708 8.44183412995969 9.316585793722366
Bi 9.543511049586064 3.942116222400611 10.405769549377464
Bi 2.6064943033162686 8.813555179288326 7.934053088004537
Bi 1.9630400023701133 5.935960573812861 7.208174923333859
Bi 7.603821990443775 6.279541464035379 10.076965884538849
Bi 6.265840278194886 4.578697483745244 7.5912287836700845
Bi 7.003783093489707 10.333975917992307 9.59834620145236
Bi 10.579843884904614 2.9419818905529898 7.736233082038501
Bi 5.335377508080951 3.155399858245427 4.902471928411731
Bi 9.618640276473107 8.4885003283039 6.011837801150921
Bi 9.076284265223377 4.661883189878989 5.742949653767367
Bi 5.651476181895206 10.408918359292556 6.894806677187924
Bi 6.683930162617662 7.734248724056834 5.943843153510529
Bi 7.200862838111328 12.449744938461405 5.212581651414046
Bi 9.788710510976737 11.123296880951306 4.4737251323075755
Bi 10.688917362041774 6.439681313798157 3.927792310966237
Bi 8.10450408279907 2.267144631603039 4.093863578997757
Bi 6.5709148829162425 4.1063499235338305 2.273146316814278
Bi 6.144049855869096 8.288161676127807 3.036723062536322
Bi 7.464871559780304 10.989718519872401 2.572858283544242
Bi 8.37283445222722 6.568038934767558 1.948630334111597
