29
Energy = -104.06186185 eV
Bi 2.0790687673122026 5.530739033737836 7.236358711805826
Bi 11.41495520108368 3.300515958179023 4.402873019113233
Bi 9.623558210858853 8.408981593305153 1.5645895936834027
Bi 5.555228919120034 10.746692052718304 7.725957160486581
Bi 3.2020616158013917 6.322375371242853 3.5854842110297804
Bi 6.484206519483456 10.656353397746784 10.741960704039473
Bi 8.888942681497573 2.056486224338034 3.5982903217031526
Bi 8.906755860484894 3.986785291728772 6.056546835940073
Bi 6.943955651154462 4.782793069260305 9.056156545195835
Bi 5.868843700264485 10.609551170732994 3.692759534482848
Bi 6.023244087048542 7.512294626510275 3.3815773663566833
Bi 8.82889186486622 9.496214099626101 9.344487187558492
Bi 2.2693638876099445 4.7104393167596434 10.192733187678291
Bi 3.2677804608732592 8.220604941230487 5.97103143888904
Bi 9.520110893294984 7.0366963262673075 4.338587493155036
Bi 7.133700716117133 7.159499339188805 0.5422327848478609
Bi 10.73588743154936 5.387989797410385 8.640644319043325
Bi 4.54157641809215 4.7376271978058355 5.803615247428089
Bi 6.095200970567968 7.578945262293162 7.099024298066745
Bi 8.752577282904594 4.9188373726808265 2.1817917408253216
Bi 2.468657745650529 7.36204630213132 11.651010690925126
Bi 8.781345566692762 6.687726785008423 10.582967033184625
Bi 5.019833420652641 3.806037381908309 11.241208822329186
Bi 9.281481037752977 2.7768646346508694 8.886417841980837
Bi 11.618338183390655 5.958231087015365 2.4216612967549027
Bi 5.26724635226495 7.853738773686925 10.501194688039831
Bi 4.928030913463133 6.2444687179214275 13.08950579186934
Bi 7.9355294151353615 9.853219970540932 6.072263734269855
Bi 3.559134244807261 11.292752924168843 5.3925764191123475
