23
Energy = -81.79092321 eV
Bi 13.750530722235881 4.346041668547509 5.02204960864543
Bi 4.196087824810456 7.21229144690307 5.020939347513058
Bi 0.4466480077076186 8.180017134035886 8.747114251654219
Bi 8.17022204408288 2.8341436381490293 9.123897489904214
Bi 6.273448995791145 10.58631190638007 6.387645863673155
Bi 7.49319567280345 3.2162430266653277 5.940351185184836
Bi 5.44293667653688 2.0317213189687786 10.072522535614768
Bi 2.7438314828786163 4.560996713750227 5.452030703835217
Bi 9.668520957725024 9.362267023040005 6.705199432702606
Bi 7.908176199580811 7.685274771915577 4.910792447295418
Bi 10.236861334526479 9.272404103063906 3.80068270756936
Bi 11.200084872760488 3.0040272281181237 5.827220949003555
Bi 2.505248146558363 6.3167014145080245 8.852625169501945
Bi 4.389588504076567 12.636068268554016 7.59618102768434
Bi 6.354823928720545 4.887246232416779 10.30506900024492
Bi 2.8989354546716455 9.913249794384377 7.740466463934915
Bi 5.317664603831087 4.552092944159368 3.9695643241112193
Bi 5.242334941988992 7.833550046740143 7.820414761663204
Bi 4.978227024235822 3.8985004517960173 7.648805805640615
Bi 3.6026883939534833 11.28219522161185 5.05985629919518
Bi 11.445921669665596 6.460557914774164 4.654009661019707
Bi 11.582263850121636 3.887504007472077 2.988032569584523
Bi 9.358394516320848 5.5416805814404055 6.796160481171535
