28
Energy = -102.08207144 eV
Bi 10.634197154017162 5.004108937782142 3.9674018415635257
Bi 11.13425841940435 3.9604081910372897 6.766058402034884
Bi 7.315532971360953 7.198563969240321 1.6566330007521308
Bi 11.63289400041761 6.895013911417214 6.158101180722494
Bi 7.725614302306289 5.858726209941468 4.396265055681722
Bi 5.778057419325303 3.7834174593139824 3.2480258995545146
Bi 4.434132779492865 6.320940665742575 2.1730970672872214
Bi 8.29698219501246 4.383745418324912 7.8268789542543615
Bi 9.373041795295359 10.865767865427088 6.5093118033263435
Bi 7.207160534106903 1.7732534022306654 6.708721044889233
Bi 8.679713112735959 2.9471335331038273 10.48685762381867
Bi 6.20735370060234 9.993121920684336 2.3666647921773474
Bi 8.835217335855091 7.901382452608252 6.941324290108166
Bi 6.434535067236216 1.0328896170831257 9.564845892956768
Bi 7.3835949250084125 11.891756798971844 4.4718057340507915
Bi 4.452878470177318 2.63167595575962 5.770503711210194
Bi 8.959188297800152 8.417905053550479 9.98811421757774
Bi 5.000158685058684 8.297445677922427 4.506576071272874
Bi 6.500392349386774 4.629849710055299 11.81701525508429
Bi 7.992525982453687 11.240091652993845 9.194558664040446
Bi 4.292805819531168 3.091416397592647 10.360948824439696
Bi 5.601130529768215 6.734235678848562 7.580291834796615
Bi 6.149958488566677 7.38695953412414 10.533653228776426
Bi 4.729760571587438 12.323534983497485 5.937829819338763
Bi 2.7225352781459935 10.017721137576972 5.464988415636962
Bi 3.459367358956433 4.604744824606064 7.86317735424341
Bi 4.977228576967737 11.340143804174582 8.805672471747291
Bi 3.394438048104547 8.778699405072263 8.239331717340377
