25
Energy = -90.17079288 eV
Bi 12.114748718757228 10.909829572589892 7.963515182602135
Bi 11.51028434004864 9.090036626885833 10.290276295863928
Bi 12.613607122501257 7.888312919580824 7.745958036351519
Bi 9.619084964734322 10.69016881497195 6.170920217421354
Bi 10.50244665428932 7.876057409228344 5.509178602106774
Bi 8.58316744893751 8.270920796956068 10.333576495364808
Bi 7.780391711573977 10.583124512272951 8.542051331741414
Bi 9.35816696855825 5.654278368866036 8.975185974827536
Bi 7.962917067366851 6.377379789201373 6.378846235139486
Bi 5.722370145237014 8.900660012403373 7.007470271852549
Bi 8.719671602680231 4.012782739654764 4.602289474155588
Bi 7.615485665970542 3.6507372133086844 10.532581186520227
Bi 6.013021941635045 9.921254125196947 4.161190385414871
Bi 7.512915611836143 5.160751377829028 2.068191494391102
Bi 5.430969547026785 7.456082305377827 2.357538759078154
Bi 5.014026268317267 5.7833846680772165 8.499824015082371
Bi 4.838713954156015 4.628418721086032 11.290931730505115
Bi 3.356077661567895 10.328354579740852 5.712357030039327
Bi 5.080173483905259 2.7388111659666023 8.948749366271715
Bi 4.4897129096901445 6.200086267646921 4.876186287706939
Bi 6.251272778551326 2.7145141964249384 3.4269489323715305
Bi 1.90405099537234 7.654044772257376 5.2895819410180955
Bi 3.3314538143234182 3.601378914899609 4.036447402955483
Bi 1.959622311971611 6.1039907649660865 7.964991790447337
Bi 2.4028349170854018 3.2669215848698774 6.933345569451877
