28
Energy = -102.04901353 eV
Bi 8.38515314286028 11.090133404694964 5.797257608435954
Bi 8.76124982984138 8.421343315721746 11.032085853012116
Bi 6.186681940714543 9.960733157905022 11.422208913520414
Bi 11.051339923414353 7.602503817855899 7.087748858269824
Bi 10.45538187808318 9.97144925715541 3.927006214411725
Bi 7.816724445556188 10.871740428810133 2.791290919770692
Bi 4.8413180734110615 10.28296900950131 8.70028015832045
Bi 8.62579380774663 6.564013049060193 8.540342868759149
Bi 6.417386709121487 7.120430479419292 12.491210310131143
Bi 6.72569163502203 8.714890651199699 6.854569447094572
Bi 12.111403371038872 4.699626134065426 7.589236295867189
Bi 4.6142315044958435 9.766886523628404 4.7700068679301
Bi 10.521257909166135 6.83856056910852 4.2217760413375
Bi 11.268490038541206 3.5218339068819797 4.978827184255058
Bi 5.311122842982763 6.310813296189475 9.790044563717267
Bi 2.134814473066801 8.859822415406052 8.391601389551857
Bi 6.0558938915168765 8.397190229116806 2.490622812828891
Bi 7.49592048119901 6.47818743853127 4.4227048562760825
Bi 2.285897515217346 6.242977631927555 9.988023413240521
Bi 9.901377189760256 2.5929637855517593 7.434909862671088
Bi 2.2281271980216113 7.975352083626396 5.4542868407983685
Bi 7.180933066129712 3.9717883599004202 6.953549906727715
Bi 4.302148708147258 5.907274980528802 6.155988981530139
Bi 5.325300865435964 3.2566300617982673 9.349460672385066
Bi 2.7093662354138695 3.996101879916882 7.926223654834474
Bi 6.767278830537444 4.140884796725026 2.5716684916951693
Bi 6.1719681099574695 2.1012888036710584 4.740555243653797
Bi 3.9917217226289754 3.985585871130464 3.770487108000621
