23
Energy = -82.14349881 eV
Bi 10.902091669703431 11.132540490920956 6.755915705895834
Bi 11.778385821845191 8.350888676721407 9.436173238256398
Bi 8.101697949687736 11.643473079667594 7.655870670963626
Bi 10.225011145519286 10.956244012879486 9.750987220708483
Bi 11.06639793885926 8.06992925827044 6.413058263372324
Bi 10.269721987661532 4.282443979399022 6.882958053025877
Bi 8.006886768699433 7.787741150527713 12.374393178466672
Bi 7.589441511964428 10.065565621438823 3.1994045248537373
Bi 6.701299547995495 8.957662071789409 9.873092976282098
Bi 10.110787370361871 6.177401290112679 10.815566098894669
Bi 7.7707433617467006 7.438252583444872 4.791976988763284
Bi 8.759942609618632 6.776442021799405 8.10182301469654
Bi 6.200039609351199 9.817236528645898 5.891493075503314
Bi 8.20962989427577 2.1288518295103036 7.401638585059891
Bi 5.974832869749782 6.07239608774106 10.906340003246813
Bi 8.281658948299288 3.525587119872998 4.736775938056239
Bi 5.030733300816338 6.524255332299224 3.5319081199364284
Bi 4.63014259668846 9.472540635676935 3.002905547443859
Bi 3.844500178375961 8.177157656754549 10.817705595473964
Bi 2.5951514004430813 6.484412134177926 5.380791766059642
Bi 4.284219003063129 7.1785055093386685 7.873690591620934
Bi 6.409890825779383 4.575424755934553 7.011681515747875
Bi 3.319498070538622 4.3253157581727475 7.364847430585608
