22
Energy = -78.85307614 eV
Bi 9.146508890678543 11.74119737058686 10.815756276041117
Bi 9.670154088703404 7.985217315125487 5.767181361354131
Bi 8.423612437194794 4.339665843005616 7.027787757841458
Bi 11.869377479598214 6.794754513049528 7.47860609073596
Bi 5.018120129026954 5.915335593457731 5.612143208221055
Bi 6.761599072884128 5.243499520799268 3.192959908844438
Bi 9.966970369887227 11.452034227996737 7.847897016671106
Bi 5.749039938016439 8.07298706068045 2.5076017070484697
Bi 3.0449674533406528 7.186795801617108 3.5181851227901983
Bi 4.721192422215548 9.073622811420616 5.183012848200868
Bi 6.212935435628126 11.287829242800525 9.953304530475782
Bi 4.3480854319940185 7.245276292064738 9.013855715254046
Bi 10.337841191340003 4.943031679671607 9.305639441952183
Bi 5.632653012114537 3.2486232972623577 7.4260420223973265
Bi 11.928415950531914 9.439487188207801 9.074994454206863
Bi 9.577609372906272 5.360615810690283 4.327288090479346
Bi 8.269738128050788 6.774781869985357 10.953214973165329
Bi 7.333689858990563 7.246623592932636 8.052069350253888
Bi 10.305156311460767 9.02534991628575 11.55762931874892
Bi 5.6643439212029865 4.692573504282218 10.024015207113187
Bi 5.64986423939602 8.663794584944103 11.315375839190896
Bi 7.194378510690087 10.277212521652167 7.2194598292742365
