28
Energy = -100.69137606 eV
Bi 3.728558812515854 4.983130780513906 9.917766798865973
Bi 4.506863543615432 12.215060267160833 9.458763352660695
Bi 3.5055395471609545 12.495648814552725 6.632197573930455
Bi 10.559600192119394 3.7370727676976054 8.536490121179915
Bi 12.298549168689233 6.247297050321232 8.699802187897374
Bi 4.676419862215967 8.695474738831988 4.479003784965614
Bi 7.167385382852161 2.1035767495800846 8.436865694189258
Bi 3.7784153883371348 7.874535818749692 10.88454077642866
Bi 8.950817770197874 2.8107657514112523 6.0770629512884735
Bi 5.4827038145390805 5.636717893742689 12.275162006524305
Bi 8.584682444017613 5.654032846769606 2.3423557411368887
Bi 2.632126132562864 10.160919902697845 8.275483648994923
Bi 5.089082636629598 2.4156071998500126 6.215044791769274
Bi 8.294845416551258 6.51018142804441 11.382017821171447
Bi 8.352128652029041 7.7714588954835655 6.296679681174237
Bi 6.619696236015707 9.007012842861117 11.053015985192276
Bi 11.722366551651497 7.8974199494547 6.223741833928263
Bi 4.196137270804127 5.191371833723698 6.911315137508294
Bi 5.248871475477966 8.417523279395935 7.572111869594503
Bi 7.165163251054709 10.750138945110573 8.51732096317159
Bi 10.895647574724356 5.544672317394552 4.33720744055862
Bi 9.15565755034779 9.761024996440591 4.055492400155018
Bi 7.902423331652075 5.144373344488958 8.651127875844347
Bi 6.104202359961494 11.080870465826766 5.526152992805903
Bi 10.15465299914728 8.416096534479406 8.81160009797751
Bi 7.026134651012161 8.340794908421062 2.5036194523461788
Bi 6.839924871220917 4.90908038177482 5.167510141247271
Bi 10.850788891171591 7.7175250734952 2.2499326557672745
