26
Energy = -94.49033662 eV
Bi 12.1614527726896 8.953713360097685 7.240890683806824
Bi 10.113470867816522 9.409707178118065 3.488454608465613
Bi 7.0993977911700625 9.943685250322375 3.1951316932971765
Bi 10.686612937494818 11.251184465685244 5.8437061437451945
Bi 11.640661730456255 7.127825946567305 4.858558817788996
Bi 6.134318579657516 10.840843285174525 5.9076096436807966
Bi 7.102564218013246 8.275133317381217 7.162180095006079
Bi 9.47324774303707 9.878852716352602 8.268040314749072
Bi 5.660356702768204 7.343847483583669 2.521651514017771
Bi 9.389689752774709 5.749714694636156 6.353141120225175
Bi 3.2355073457176298 9.959245947734416 5.692433547554998
Bi 3.2017636823369653 7.228514720772678 4.282528489060244
Bi 5.770651706945425 8.94646156976875 9.830172970417511
Bi 2.9572988508960205 9.513106871972276 8.731270803177635
Bi 10.062815025974835 4.224944998690652 9.004991359929381
Bi 5.647764485869185 6.171053354686964 11.106082399756325
Bi 7.586141370394432 5.261534625732827 3.648727939167564
Bi 7.032075450018217 4.7623771204034515 8.754233777246995
Bi 4.417153434439282 5.959101176486745 6.812306113401
Bi 9.927733961265485 2.7363732545722312 6.38137250261712
Bi 1.8029798349133097 6.783735668099601 8.234116997614244
Bi 2.8703397550339624 5.031887727695051 10.466563710017402
Bi 5.373491451624741 3.6736661414740066 4.6581006870073836
Bi 5.906641691951544 1.9825644102079283 8.934424896365039
Bi 7.07229808482971 1.6041271711984184 6.120032657557993
Bi 3.2931720721098157 3.253937008183664 8.006642735778223
