25
Energy = -90.17049135 eV
Bi 11.234473844501354 5.917917666329681 8.36028170546633
Bi 8.734254344639323 7.591558728708533 10.908714720796029
Bi 10.969558865571509 8.943844833378764 7.694226004985547
Bi 11.776051753382047 5.174904626415185 5.415537460635772
Bi 8.58453591680626 10.04978146072621 9.115568005509374
Bi 8.23948489377323 5.575156707790317 8.761619349278064
Bi 9.20690032688526 10.317832438538106 5.02634554581927
Bi 7.717453991881324 3.8061536083951752 11.274055290298428
Bi 6.279085333903404 6.284831715596582 12.165493773847407
Bi 9.833421385391478 7.27329187443518 4.399364513885826
Bi 6.908442393511345 9.245169954825986 6.564322458575732
Bi 9.302539233356555 5.643584092347336 1.8484247519959978
Bi 4.89264026891208 2.830740700854428 10.444330426161596
Bi 9.196835676207128 3.883805369878081 4.3549830282306985
Bi 7.134862912853756 6.12344984547793 5.419499591984261
Bi 4.877398823345749 4.088566082797972 7.681990756620526
Bi 7.295080308973612 9.854541590432987 2.538534653251647
Bi 3.771172657096706 5.646285737147769 10.011612965812471
Bi 5.251604230578503 10.916113904543367 4.479929092736421
Bi 3.5505515486220216 6.408693191796352 4.704343845749984
Bi 6.510341782413403 6.8935299530344745 2.479846280492115
Bi 3.3184936175260167 8.134955501556423 7.178224584978604
Bi 1.8908224540380079 3.9033510798257787 8.218167972852351
Bi 2.6476936101684476 9.311768028134686 4.462229260409752
Bi 1.042889076329093 6.268971891946414 6.436332444705183
