29
Energy = -103.35626512 eV
Bi 10.366987740844406 9.205826381796387 13.059962488211806
Bi 7.505694906243683 7.958688834073554 12.67869252901029
Bi 10.302216123501546 9.516678316929438 9.995137581142874
Bi 10.951430123600566 6.773446553135319 11.155634632760982
Bi 7.488165134256584 10.428334983132432 10.828493752080774
Bi 4.4516511589374925 8.188549339816298 13.113386958377657
Bi 8.438651601178238 4.995359472932292 11.504779483493717
Bi 9.978492221340087 11.36415379377356 6.5859542095441075
Bi 4.535308424075725 9.549945533315894 10.261153090109538
Bi 6.621955043852702 11.902225738652621 8.025892918978794
Bi 11.68190087523442 7.521983465068161 5.559769857385242
Bi 12.42392286322823 5.123412110892394 8.687954667156545
Bi 4.204067012932707 6.513907352650652 10.658245842143595
Bi 8.938259174716837 8.485835919674319 6.551095682137331
Bi 12.678196265060965 10.215885966320036 5.745384492551001
Bi 6.998396875289925 6.388414951450144 9.24130302363777
Bi 9.572748240376185 5.006604588952591 7.552960533581641
Bi 3.6906711861194954 11.502144598899598 7.840592275355052
Bi 5.533985014878514 9.60796968134392 6.315735829854877
Bi 9.111643243578259 10.096833637179268 3.9478481769171996
Bi 6.15764948072704 10.95896650864951 3.6563154772680897
Bi 10.388305162920098 3.1582813451886853 9.770506038081939
Bi 5.871783045165228 3.8746464314955134 7.686666943079297
Bi 4.984095431561073 6.058161683420676 5.543913845034873
Bi 7.988543710820665 3.1924242820075936 5.697260126153691
Bi 6.1458717183077605 8.311883460765339 2.1410756778559645
Bi 7.467776472835025 5.773740418189631 3.7957671247950775
Bi 4.830867954472186 4.426515519924511 3.001180331544452
Bi 3.541725844118366 7.202147205366392 2.851848457992745
