23
Energy = -83.46198141 eV
Bi 9.523792058596719 2.658323774200077 5.682258165483902
Bi 7.720871626218455 2.8507695509415383 8.161383157639687
Bi 10.390639765660756 5.44415654977891 4.976321010251714
Bi 9.551112873090393 4.796701787935321 9.54813882967985
Bi 9.019532826253174 6.8431707066029 7.366116641955132
Bi 5.994549954124175 5.223753021465459 7.184052870102018
Bi 8.048109225122412 6.139552682644808 2.8156561674839304
Bi 7.417187608238311 6.0643312390477355 11.365650171338935
Bi 6.901234830947494 3.794083700118835 4.3518967185645625
Bi 10.35788731194418 9.065686008249362 9.015704137476085
Bi 6.829426674464918 8.01024784994854 5.032757042811803
Bi 4.741039062022955 5.306318508748122 10.039216669161924
Bi 3.8695085195829706 3.6472243090724086 3.402935720995029
Bi 7.862085433375507 9.058523489048648 10.763605293905913
Bi 4.733992180750429 6.230921132610706 2.2424363620885313
Bi 3.931455290907044 8.4326144725477 4.133334966792045
Bi 6.202076826548847 8.802921818948356 8.236250638361938
Bi 3.241746653040079 4.173160967256468 6.337316197605093
Bi 9.494192003589093 11.49956840207586 7.338166440174178
Bi 7.853025754234452 10.945583275411423 4.85017898261532
Bi 3.439252504906982 7.940217798288199 9.188918355579954
Bi 2.365148894707785 7.074202757519597 6.390686499734402
Bi 6.47801426954956 11.764392354772827 7.458973315317435
