21
Energy = -75.01034526 eV
Bi 12.569427036461828 5.3664743841824265 6.2123954687788405
Bi 10.994675939259306 10.69818126833987 8.902201971565068
Bi 11.82231824875456 8.076837227259203 5.143389074271234
Bi 5.680378090798016 10.022891559806006 4.927021530053759
Bi 8.839981879423485 9.502145171884049 10.500557890461703
Bi 6.847270302783448 12.184916043841609 6.691809294206455
Bi 2.9948245054920544 7.0797226843711 9.269005111307932
Bi 4.984060283684692 2.9062277830227963 7.533223520427289
Bi 6.515064243587626 3.630070702172373 10.071350435063572
Bi 9.465756925357605 3.94387265935814 9.114311685158118
Bi 9.742631790209481 7.071382788006552 8.723944681284951
Bi 6.728221355390484 9.526945342613084 8.197858318143759
Bi 3.603304544808878 6.229207766709442 5.183181999347175
Bi 9.701924032340301 11.111043834452376 6.150834964981
Bi 3.314357850773506 8.865113497900508 6.666911343333239
Bi 9.604981282728543 4.902691377432195 6.237515882926014
Bi 5.944185350941999 6.59360809097578 9.485054576222595
Bi 8.404074440950914 8.353494457774081 5.761588000083084
Bi 12.646196231597353 7.9616522375936265 8.041469001739538
Bi 2.419656978301421 4.641714496925157 7.53918387169192
Bi 6.220165312112708 5.527898971409589 6.624003788009493
