22
Energy = -80.16645239 eV
Bi 7.44064624925167 0.06572452526591516 7.1337686619964495
Bi 5.044618241536299 0.9365260189805893 8.767424224931561
Bi 7.82697448161427 0.9104074897630802 10.010209555081923
Bi 8.388406381989945 2.428539631807564 5.4625178821089655
Bi 5.2216248468178685 3.990465220533192 8.48887771438372
Bi 7.988362250855701 3.960412520097915 9.761719215097553
Bi 5.620179104542793 3.6625011292036627 5.54894820684705
Bi 10.038201460430905 3.777003102360547 7.581394547287075
Bi 5.197525343391436 6.733275001550398 5.241388508775798
Bi 9.03565267893901 6.151994368801705 5.920921843790014
Bi 11.4047190696286 6.48784695832165 4.045032014955088
Bi 3.1617619381484094 8.568636142988197 7.801174818032072
Bi 6.894561948277263 8.241457922913618 3.200559043776075
Bi 6.041821594580413 7.691638817479605 8.019111674376468
Bi 10.984433282323568 8.472238094489892 6.27819592360033
Bi 3.2480442396408535 10.185562882278482 5.213169525839447
Bi 6.130820950347901 10.845144144509545 4.597832639657147
Bi 9.83858146340299 9.030791074598318 3.5330436497799305
Bi 7.410854616564276 10.294362293593377 7.260240666136854
Bi 3.1229053774730486 11.101048053196662 9.504319451340859
Bi 3.1878282567588387 12.732134535502436 6.92043664353653
Bi 5.690531214222817 12.404741501073318 8.620158941762616
