22
Energy = -54.59513806 eV
Bi 12.580720033899608 5.565118998645063 9.187546531862843
Bi 11.174802966180012 5.736772632259127 6.886532359826957
Bi 10.86062073615192 7.273300043515475 10.203636661199749
Bi 10.620939946621418 8.144982618322521 7.615937218612306
Bi 9.54154766527813 5.12057495137086 9.069660892494475
Bi 8.55192947387475 6.464252138152151 6.763070759820784
Bi 8.239450089573454 7.391433930058937 9.812195909576584
Bi 6.875867026172427 5.258832489388084 10.4888911093204
Bi 9.66989022096465 9.786146384622068 9.601762744232753
Bi 6.952096589957083 7.926459148794682 5.284607099144677
Bi 8.123333846190265 9.331416135970667 7.122960534906206
Bi 9.3233201364145 11.695735502033243 7.785305137765128
Bi 4.642175344171962 9.265007762518218 4.444780303204985
Bi 8.091052982848787 11.751352130290753 10.862454589174678
Bi 7.054975078739926 4.523935270192551 7.992967441730744
Bi 6.798754475896813 9.543603348800557 9.880519865935776
Bi 6.176186107401921 5.316920954111811 5.696346554069138
Bi 5.353253323247848 9.724835001171733 7.0936029310018665
Bi 6.6975118997604906 11.597774027762531 8.307905743958754
Bi 4.968345360751119 6.563068380379358 3.7529770208970628
Bi 6.115828256289857 7.2514678820394325 8.20461806859202
Bi 4.181471923534115 7.384379800701806 6.47986042332369
