23
Energy = -82.78877825 eV
Bi 10.543107349805682 8.970261192898384 9.587168826523977
Bi 11.213972199756258 8.316777887967174 4.930548939346393
Bi 10.768876373256658 10.56363153804667 6.917887804052497
Bi 3.8040923534427082 10.973707248657801 9.628006739283926
Bi 8.074563318389126 9.217213591630237 6.808861768815892
Bi 10.115574697596571 6.439128639843963 7.8165549275152495
Bi 7.701006262072969 10.244166267727692 9.6376992547814
Bi 8.904319886505506 8.613259158309978 2.9423082552863584
Bi 10.527846881050023 4.114844484793686 9.783657972414458
Bi 6.72471746899079 10.299343613578653 4.307675142299899
Bi 3.175929806785006 10.503872784803379 6.688577844755522
Bi 9.7728725960598 3.9738654120131263 4.926780841065596
Bi 4.423629429376348 8.33633161402623 4.973861971727385
Bi 1.7017832777139545 8.914628657797731 8.796418868148507
Bi 7.859323300010925 5.669966626933282 9.734983178870145
Bi 9.52236222195789 2.3316884447371087 7.4914644591834865
Bi 5.665510190958866 6.642844536017742 7.23278253461265
Bi 5.403026736537684 8.71062244668732 10.930088098441653
Bi 7.785949581713821 6.293877207443997 4.659123713858818
Bi 6.9943634555520955 3.492797930458048 3.7708485245500754
Bi 5.105704337637362 3.772109926589435 6.150622102186672
Bi 6.794910278911331 3.012426887488318 8.583596937104737
Bi 3.6231978251458092 6.644800562539313 9.49539903240021
