29
Energy = -103.45739059 eV
Bi 10.855524758145052 8.23786145994663 3.0138765427912846
Bi 6.543034114901774 10.561784835556814 12.820649372667669
Bi 9.810001330574208 3.452688709172054 7.724101078453595
Bi 8.355016320097052 9.695101203184292 7.196708648050863
Bi 9.473867851565695 5.2263296562228705 10.1467246461271
Bi 4.683527338187877 3.406962214304716 8.985619799137408
Bi 3.7343743650945354 7.997022798308044 8.346536892036761
Bi 13.378287019724452 6.800586803274776 3.6766939740266844
Bi 4.1927227292351175 9.135654159203202 5.432759800280928
Bi 6.804666411210574 3.129245941455368 6.944372141441482
Bi 6.560905724446257 7.6246559958859415 13.51072291483742
Bi 13.15201115113969 9.123778019312795 7.2386336011436665
Bi 7.004578738512004 11.868791027713467 5.412494114356664
Bi 3.7783184522755664 5.415441648463514 6.556747533262904
Bi 3.7038929097441544 10.217983152897393 11.659197563773178
Bi 10.955401989928147 10.356762456967063 5.659655110660215
Bi 11.386773627676103 5.266865649567399 2.064256598214603
Bi 10.298491066058164 5.822419998235245 4.930454817759913
Bi 7.908114697918082 8.533712211497969 10.907506999359434
Bi 4.375449346925943 12.000524828894685 6.73309818532268
Bi 3.7663818863561933 7.2278986011041395 12.308213621691936
Bi 5.538284526753235 10.342675943343464 9.202071212591362
Bi 5.646074030099361 6.1715617033045795 10.082844894682559
Bi 2.971047369066062 6.77674840692908 3.8041127938008263
Bi 8.042786990972225 5.998444551200733 7.454663892591362
Bi 5.7310498749265655 5.75722836160157 4.290580090289727
Bi 12.716356975961308 6.039959193990947 6.813331709513775
Bi 10.71900688052369 7.654766581152993 8.594402471459887
Bi 7.150622734648017 8.74121173948261 4.564470966636931
