27
Energy = -98.65348051 eV
Bi 3.0680241280479366 7.515717222588045 11.428208663682891
Bi 1.9424145024731707 7.106619535955412 8.640031888090327
Bi 1.5827350164153193 4.2022868599184005 9.409824576021865
Bi 5.513412478008109 9.315130790861856 11.619894108209536
Bi 5.8491656782823185 6.311009724774012 11.366757577875058
Bi 4.330081167189437 2.967334595387018 9.260050212518196
Bi 2.427361399161188 2.6775006161684662 6.9243079690993685
Bi 4.396378805539992 7.018039039843475 6.885300381359444
Bi 6.625578548845081 10.049807356243848 6.594924614578976
Bi 6.271926173038545 11.27841255547481 9.413734255822494
Bi 6.176703805491424 5.250954178473703 8.51787185172538
Bi 3.072440169911462 4.967522087367558 5.064540205597316
Bi 7.365758555336298 7.155923264366959 4.589895231414561
Bi 5.232920793483991 3.2864959746964413 3.726294792704936
Bi 9.150314170144991 10.59434440504183 10.108090764973374
Bi 8.354965447362142 12.44925319776687 5.845563911540063
Bi 8.610422512440326 8.340147711759263 8.131358259027381
Bi 8.965215204164899 5.088053822198289 6.113338308457492
Bi 10.110556177523335 12.830550146792236 8.277245472298876
Bi 10.998241070816563 4.845931837795311 3.7816410614901472
Bi 6.569878046662497 5.494739921488859 2.1831329330755063
Bi 10.202464877964099 7.892449474498969 3.705175370406408
Bi 11.202997815865885 11.44940537316996 5.814830471075722
Bi 11.17903270797154 8.501230565710005 6.530974452430815
Bi 7.285750484533136 2.547688583507057 5.818365516605663
Bi 9.336258161005798 1.8220700113154027 3.743759853003635
Bi 9.105777743272505 3.9413291226912244 1.6053190411210518
