26
Energy = -94.98450913 eV
Bi 11.897611831586365 7.5864595065713045 5.5100741843151235
Bi 10.067717549384161 3.7150354551936795 4.998278380733487
Bi 11.80898136162876 5.008749292615332 7.127332373503884
Bi 11.871306352017253 9.46424405107508 7.962013716445538
Bi 9.526462640919897 7.448632157662743 3.535785622342838
Bi 8.208959442660676 1.894445548888026 6.606394052231191
Bi 7.722025385398157 5.661733182720299 5.256841887245154
Bi 10.559715089883149 8.039517036940873 10.267766235594413
Bi 8.727365723467893 10.16986876247032 4.655892213118304
Bi 6.523313079052033 2.9665962204310135 4.294832268212444
Bi 9.236429579361761 6.1491676763155665 8.18703483116289
Bi 9.15723860698991 10.398183337869588 8.96433988265402
Bi 8.211432658028476 3.4548488802664092 9.250074359513622
Bi 6.250869402977053 10.532005971255774 2.954074731575423
Bi 3.800075504054224 2.4200378579872903 8.118665316792681
Bi 7.2483900843222635 9.017476896911418 7.01120412234642
Bi 5.342340017422342 4.236589494908004 9.934382453034006
Bi 3.716394293113512 3.573537988695005 5.358889329344742
Bi 5.233121353547768 12.87960683407879 4.586824454867876
Bi 5.219894399427274 11.27902755998797 7.18818267224982
Bi 3.8454728178433006 6.533333511796214 5.89236247669994
Bi 3.7802765087257217 10.235439145156457 4.728630451850382
Bi 1.1761296597553572 3.789581536069641 8.77921740842608
Bi 4.762071740741004 6.944132234800406 8.771596731253368
Bi 0.9528433627168916 6.158832951641407 6.887138769263833
Bi 1.8703037137377652 6.574938489940444 9.758066680389195
