23
Energy = -82.51340139 eV
Bi 5.223880745651173 5.710391829011627 6.9065511767032675
Bi 10.712362367191005 2.962222363166844 5.349063104028984
Bi 8.252857738241834 3.4313134874950886 7.301530872241342
Bi 8.83512695812775 5.320417234162051 4.924784289553899
Bi 6.984792397594191 8.730516274463255 5.714498188795596
Bi 6.639992122583058 11.647425242858384 5.068609038324992
Bi 11.233877388136976 5.528700048790305 6.750883505319461
Bi 9.849859728686333 11.911753390815928 10.748132351073137
Bi 9.522476935364116 5.136923161328092 9.502127195842586
Bi 6.867540660525933 6.9534468872934765 9.22478118150258
Bi 10.577236571008354 10.283913246503658 13.185141461041589
Bi 10.244578004264879 9.01674657688441 6.940200236773327
Bi 6.6336313103636835 4.310637083296394 10.75835496279134
Bi 3.043331218159738 7.394467638854481 8.23279806057372
Bi 4.629563117429463 9.161014253112773 10.124926930424088
Bi 9.800430694854704 8.894352341047535 3.9892299060551637
Bi 9.823625548308828 8.842361114795919 10.604556889864535
Bi 9.528340757482875 11.914466850739444 3.9395299719238728
Bi 7.717961923050898 10.334075742787848 12.19815891460826
Bi 5.281744654424981 3.051663432452844 8.45227392479962
Bi 4.140700069248742 10.076171221195475 7.308090205768039
Bi 10.392037397393803 12.015313982875501 6.868347027058219
Bi 7.6092959296093525 10.903948748803517 7.8610759889878015
