26
Energy = -93.75658427 eV
Bi 10.396626332721477 1.8304625141290347 9.870091764550551
Bi 1.312513037013988 8.68827718012819 3.206670616564579
Bi 8.075789763930409 8.06511689323965 2.9825668392880402
Bi 2.840615339050943 5.57252216844346 6.665178043101261
Bi 11.107073134709962 5.297759001775754 4.5629130564438976
Bi 4.005977237346018 8.264228834745749 4.6257208445774705
Bi 5.716615092506994 6.052902781352635 9.150414139797647
Bi 11.078099999657642 8.079456713788398 3.342253337563438
Bi 3.1323501763284027 3.622443206367092 4.351461974370897
Bi 5.452207205029169 3.9364897337753972 6.320836504604162
Bi 3.75163040455863 3.6399035921073395 8.863302143131436
Bi 7.219314507345179 7.337551858190403 11.508248560105853
Bi 3.7818812266447526 9.831728523873567 1.9492815725642656
Bi 2.7177485326512074 7.186536199267872 0.9613313757777312
Bi 5.605832067887645 10.489778420577862 8.919823988663012
Bi 7.29649714070358 7.177220363426984 6.346016032179917
Bi 10.162957306051723 6.962818860353832 7.113262364646606
Bi 9.169535368022032 4.597674761402108 9.77847417914148
Bi 8.307112847461969 9.063652389026112 9.23844234662878
Bi 7.473459100365879 2.1711416290950014 9.116127650902294
Bi 4.711033505832473 5.8266324715597575 2.882779471378463
Bi 9.657305447887222 3.044743669004949 7.190042071414298
Bi 8.153071540780022 5.182670050099373 3.858085912011917
Bi 4.819059417688604 9.27963160914441 11.602003362206723
Bi 3.570086596224467 8.25245789636543 9.003347858233209
Bi 9.442329494254857 9.502920501413309 5.548045812807625
