25
Energy = -90.52524885 eV
Bi 9.007592137635077 4.22681028712681 3.175082578303372
Bi 11.91073835976843 6.375647542871166 6.456133022341726
Bi 10.424966257662613 6.821247702946035 3.832546092260336
Bi 9.150715896933573 2.518590789284066 5.560830058599591
Bi 10.6402052476827 3.9473469797362033 7.766312491659951
Bi 10.32959233884719 8.082790576833045 8.51085994415487
Bi 5.703432244016632 4.824562345394746 2.8706815859223065
Bi 6.190210325602069 3.822202626837671 5.760121151346437
Bi 8.252867727334923 5.848491246693969 8.060691459706135
Bi 9.560175557701347 10.163961273957927 6.367516152024452
Bi 7.905429216891321 7.9703100271616085 5.1170730222235115
Bi 7.763562368350895 8.771271769318197 11.562754882045985
Bi 7.130062915920307 11.593870796385 7.559712560794723
Bi 7.539311441163808 5.785170723320403 11.06098676961564
Bi 6.767648313642605 9.806552577948935 2.9888297562396655
Bi 3.655307551766378 2.0844789041206173 6.012276653502146
Bi 6.535428906331247 8.860660646604886 8.755194477062231
Bi 4.525766794393674 7.681642951074332 3.024678093849462
Bi 5.12793315327198 11.025118566114385 5.263419657974847
Bi 3.5832263856281092 4.8498143881705245 7.245450290577746
Bi 2.85377202643501 4.458045824604682 4.345051579872349
Bi 4.447607533063341 5.900745899301844 11.028269570704477
Bi 3.681227734736436 8.600968588020498 9.867694654526375
Bi 4.422163327503017 8.127543642217754 6.014322377623797
Bi 4.8859790911429615 8.44720482060829 12.665577611636223
