25
Energy = -89.02805367 eV
Bi 9.353687812525388 4.481390116635703 3.6382685311923915
Bi 9.410763856095057 5.5823055219411195 7.0981288111427805
Bi 10.759497628035163 2.8270332182017412 6.875127979592251
Bi 9.418554222021244 6.518198664158022 1.3431120129142273
Bi 9.030264198419532 7.9100858736404005 4.03657277350611
Bi 8.568930601710848 4.189184160666069 9.837733706822734
Bi 9.362301005760928 9.48574791574864 7.457775424683418
Bi 8.54694459752234 1.4618743225526984 8.516909320823286
Bi 6.636317728937517 6.658003185672064 2.616534350232788
Bi 8.149574204564093 10.711906761752616 3.1256524579586724
Bi 11.111068621408872 2.2498483000546434 3.9328199135889608
Bi 5.63899089619406 9.478915524341101 1.9271731401306413
Bi 6.689308116131159 4.875702742199834 5.927278776156105
Bi 7.623386991949548 7.911262722503661 9.43838576531921
Bi 7.441581754615733 11.373449053627722 6.0155278061509625
Bi 8.820072089855572 10.594562453369264 10.236399437808368
Bi 2.05676540807724 5.662536472426504 12.140367765211392
Bi 5.811588508792173 10.280389904825093 9.768450068459979
Bi 3.626859275483253 8.729332280064076 4.044407842461389
Bi 4.555307980143395 7.071293444846063 6.474339742971339
Bi 6.0532359211278335 3.197501202879848 8.460872493442473
Bi 4.813980242302926 10.088553008158527 6.666449664431572
Bi 4.7390054860852535 5.716778511346244 10.729327814999802
Bi 2.2675441256877447 6.750109494325941 9.314236851846887
Bi 3.4208503653471274 8.343513673767818 11.589555093015267
