23
Energy = -83.40916876 eV
Bi 10.17707104161667 9.946865456296704 8.024391794147386
Bi 8.096221925335849 11.847202788481685 6.823061377497631
Bi 10.573103758822075 8.835748017301592 5.203941147037553
Bi 7.873619606780882 10.0338034537278 4.353623419932673
Bi 6.074926289767488 10.789080126987068 8.856803157931775
Bi 7.487267576639099 7.168727309151578 11.483982060465962
Bi 7.646961580201871 8.23797250563842 8.61502176201048
Bi 9.759442008775173 6.084324505182041 6.327079650806794
Bi 11.256412154805137 4.326693138083957 4.399775555290155
Bi 4.043554670789748 9.454906478350056 6.8220773525571605
Bi 6.212409721727541 7.769138199406879 5.542205690348844
Bi 8.58489114409971 5.527446670089726 3.579516433916112
Bi 6.509368444670801 4.406366355701675 10.685271927380319
Bi 4.527330807907957 6.591554112852726 11.388598255021247
Bi 6.671158289506061 4.987735765552197 7.659340258134907
Bi 4.257986445679379 7.1050173108129515 3.2284348555066806
Bi 9.801181534622545 1.7219541230029691 5.268954738673476
Bi 3.006253934392611 7.33824243110512 8.790413222210613
Bi 7.325886635751557 2.690194532815305 3.788920115567775
Bi 2.651505816160759 5.051913501935092 4.785003103958044
Bi 7.184807479593281 2.1044616638348255 6.730873569263154
Bi 3.6400752786688297 4.638855991416053 7.663106236171635
Bi 1.8545928924644244 7.9498353863340006 4.8037672237984985
