20
Energy = -73.01021098 eV
Bi 7.266115764422297 12.963812396262757 10.164986749923806
Bi 6.378885985159883 10.637878479757367 11.872701864624814
Bi 6.242300750556682 12.333294506313585 7.3685444179468735
Bi 4.171200355644207 10.310498750881784 8.130544062768182
Bi 9.240651803079087 10.77278529397606 10.820676012321266
Bi 5.772998524222973 8.411926032762377 9.826834887667117
Bi 4.006894382283119 9.46675452067729 5.202164386763978
Bi 8.524460188182948 10.590937795331548 6.539695658299281
Bi 8.597958889923751 8.567459532014286 8.766477301416494
Bi 6.856836090590372 9.682180291248875 4.153004597820503
Bi 6.623161674128473 5.956994431042109 7.186090614539384
Bi 5.594081026502776 6.935664916620518 4.546491473145024
Bi 4.886022478257556 3.379847829057948 6.995685705897854
Bi 7.634320864654559 2.2937777676660067 7.588951320310965
Bi 8.981068975055765 4.403636075458521 5.912613450062269
Bi 4.837565385863255 3.1966992057806967 3.9955703920228927
Bi 7.681779306843489 3.9358078571559036 3.243596722773342
Bi 7.78036050969925 12.963812396262757 5.771170352358197
Bi 5.528262588533734 0.2040695484309219 3.8113089486057627
Bi 8.387717812045555 0.9486653916742873 3.0316767399544013
