21
Energy = -76.11227077 eV
Bi 12.005421041393845 7.40001067550046 4.83391369292719
Bi 10.219478879054295 6.3068442950467265 2.5976219286160247
Bi 9.604413133562336 3.663258676757123 3.876793140473386
Bi 7.710833072330156 7.822146085229738 3.123937644227175
Bi 10.202638815969118 8.696671574924439 6.876596617559538
Bi 11.015819059180492 5.883538831789052 7.2712608460621
Bi 7.519118831213802 3.181270109564419 1.7283012420632267
Bi 6.196431124881042 5.907864076140805 1.344040136550876
Bi 7.412294516103493 7.266166260137736 6.293552855313776
Bi 8.271352340722942 4.350777660642563 6.511714916656425
Bi 6.41450317467815 9.969496131196799 9.78927851395503
Bi 4.792959475621771 3.7258433844654912 2.922121263390974
Bi 7.334438139463152 7.144375654975922 9.50471951357125
Bi 5.508334827493229 9.434377430222563 12.660217039976413
Bi 5.046629464008386 4.202774423013611 5.878838026587672
Bi 3.509062515409516 10.019425026565488 8.885330412489111
Bi 4.321088049091652 7.024912395928852 5.43311381062975
Bi 2.5865015047555975 9.496649047540567 11.74797482957103
Bi 4.769220330588744 5.617917054047476 9.731945494992933
Bi 3.9339709795144078 6.866222645409953 12.38397229333168
Bi 2.829636060737522 7.213310504861825 8.083255732844012
