20
Energy = -70.9717832 eV
Bi 4.533426669872577 7.593940412224231 9.03979596774203
Bi 7.822219806439845 10.035605078374216 10.578922341911476
Bi 11.349803809775667 9.327165419490381 11.686771244276693
Bi 3.3698259831607373 6.838613741363653 6.323684118525721
Bi 7.806805719929318 7.087713028961265 11.507561784037803
Bi 10.11839361776779 6.639332240467468 5.647726201138298
Bi 9.903826846676251 7.805448445895016 9.46701912642709
Bi 6.145332150302638 4.709273812309548 9.55887965901016
Bi 7.643080761988295 5.618361548302407 4.18580214112788
Bi 8.974051728163436 4.473129967564049 8.731464718152585
Bi 6.223418035208534 11.280551731672231 6.441888862466031
Bi 5.346827304055197 4.574012543265781 6.557246979476639
Bi 9.43197462413223 3.667979628217358 5.7857315719521765
Bi 6.927306864532126 7.380695439589648 6.944306847369379
Bi 9.825138677931898 7.238629668820003 2.6488704094019018
Bi 5.059791126810692 10.577248155158545 9.187875510763346
Bi 8.276657185963337 9.714494186380167 3.461865939414395
Bi 5.3934587236023175 8.838501738873468 4.7380117532689034
Bi 8.964914773914668 9.947636276487401 6.397209273059112
Bi 9.098996757332475 9.075061898613397 13.47468921815324
