21
Energy = -73.88539889 eV
Bi 9.118353542272795 11.406347868810489 6.076351389310796
Bi 11.834195874057297 6.436097297322131 9.913470118884895
Bi 8.228477723409108 4.063114289098572 10.177476294210066
Bi 9.003656903075635 12.400723042304497 8.904904837533184
Bi 12.235937347112818 3.892114615599094 8.366131193964113
Bi 7.11402505078346 10.14163245430552 8.034590554162655
Bi 4.380043141826341 11.0979152039912 7.0994026805477555
Bi 3.480642902729629 8.523085300124635 3.1268645223062634
Bi 3.3792561049497536 8.33309501668507 7.966701052770076
Bi 13.008193546249828 9.316423922262839 8.69068626587365
Bi 5.803642311830975 6.580746160458145 8.533698097803871
Bi 10.587563185258938 8.771077590323596 7.005391458235846
Bi 5.859350771813864 7.039942140702514 2.249167486623614
Bi 10.060343635125765 5.121595200945966 12.335930840729082
Bi 5.555415640455532 10.424699623488483 4.388335583785075
Bi 4.266169155391941 6.5924676520955625 5.593609118574391
Bi 7.9774997668792755 6.988562663589335 11.129085377928815
Bi 7.000934304970177 7.817511414981546 5.012974185395482
Bi 10.258723752846404 9.729425293492994 9.889027602722408
Bi 5.540471591106 5.20224475486129 11.285558245809767
Bi 9.912011065950386 5.490525251190973 7.680060533309547
