25
Energy = -90.30864244 eV
Bi 8.852749018850984 2.997810955977891 8.125704239243435
Bi 9.963046945810685 6.096126397440011 11.256882859988682
Bi 6.374992305728532 5.908959425848649 9.313571408029095
Bi 2.229342008682198 7.946912295100493 5.440680847357598
Bi 6.599970403162959 3.1397229813624286 4.194526525759631
Bi 5.578792824925124 5.9252098252060525 4.96196480083444
Bi 7.9236675175427065 3.8616171085579927 10.897018828801595
Bi 8.132039203183657 8.39250320346799 3.90167886763072
Bi 2.976626850259202 4.978720056080927 6.046425121217191
Bi 4.1989661464614105 8.918519065713314 8.734230864556707
Bi 10.834254400106191 7.009070577067563 8.449126134273811
Bi 8.670136460952564 5.707738765199678 6.7138506164107845
Bi 5.566458846757562 9.658140611442642 2.708706680578034
Bi 10.204313514509817 8.287954721576284 1.709809522682531
Bi 5.3967363453826716 7.881287475364311 11.399966476003332
Bi 6.7784660813087125 8.833270142675367 7.060653268522831
Bi 3.8116689967182946 10.577282076524954 5.053409028718474
Bi 9.532481933354903 4.047616405283075 4.254901647221413
Bi 3.7325706279121227 7.188843680556114 2.8435205978447424
Bi 9.150106335863127 9.566814335465418 8.85919725499178
Bi 5.367345677225074 11.466760611382293 7.527403581723057
Bi 8.382291342970193 5.937555258710582 2.1063379922266763
Bi 8.304902521343282 8.692436894272747 11.663398127003019
Bi 6.130408366500975 2.1038629805889357 7.081196967972006
Bi 4.169417146844705 3.919842953352021 8.637714078563505
