26
Energy = -94.36861309 eV
Bi 12.067309339018903 6.849389684772794 6.01957197976416
Bi 11.658271274432625 11.274339880384955 3.8903457529367813
Bi 12.239551587715626 8.347881468142907 3.403252429689949
Bi 10.486518797732453 8.780697087667308 7.7639912193515155
Bi 9.53465896970292 5.545501278184435 4.966408576682412
Bi 9.328090369318893 10.71567087359356 5.756535967570076
Bi 9.42743836856199 9.431930176208933 3.018235697072404
Bi 2.9320139066441584 4.295820878039182 4.296024895429369
Bi 6.474685641836298 3.0510706487528023 6.1998022181924215
Bi 4.983345234284062 5.027570645573473 2.2402277536995987
Bi 8.030356322782378 6.9679574005550045 7.3969437122988895
Bi 9.356926213974404 3.54967407228346 7.145818955729089
Bi 5.454197491247369 5.745551883426631 5.157866498965751
Bi 4.339846972396208 7.919317185676326 1.6271172811862644
Bi 4.886463239044838 3.6735108037746937 8.744102725869896
Bi 9.20086776420251 5.47768979149383 9.83969047193199
Bi 1.3565281885508766 8.269319655976117 1.9791061988845753
Bi 7.224586635506475 3.3035290198326184 10.555200840717937
Bi 1.2822121483832638 6.816734115719268 4.63308120206658
Bi 3.8974324898300337 6.565060964754111 8.754493862286875
Bi 5.883031410725994 8.855885333567493 8.73836944524933
Bi 3.2402135583240828 9.08296333811821 4.205407286608189
Bi 7.825693141835346 8.190847473983762 10.891962550250303
Bi 5.5345476920012455 4.2659587069960505 12.89831907903826
Bi 3.4552807632509617 6.1782137139838325 11.755307701166904
Bi 5.9448183162920705 7.251345448225781 13.084631168856022
