25
Energy = -90.53148891 eV
Bi 2.9700747658520945 1.5585303280826583 5.07001867935869
Bi 13.3041487376179 11.636890296001674 7.632799140934738
Bi 8.06147005587312 9.251888123551632 8.08509928409355
Bi 5.5301603644147335 0.22583262444927366 6.0178919909662145
Bi 2.460657956253065 8.130714220114205 6.644053367427841
Bi 2.5395553972646594 10.951746682234704 5.485891375856748
Bi 8.189856950887833 6.285440377428971 7.443232472900769
Bi 10.336743435082507 5.864615558518306 5.296548185695004
Bi 5.2819018212256506 4.299427638141946 7.909737316333983
Bi 11.03677323455605 12.057834868582376 9.645786910024547
Bi 5.051380604429046 9.257450340101679 5.50511159269275
Bi 9.104671546915966 10.34247056099101 5.4933882316868035
Bi 3.6892675466511635 6.617765165381358 9.451004432218012
Bi 2.807828268645539 8.607892144795066 3.6137033179586338
Bi 6.373119599762348 3.766180580801275 4.1368746313681415
Bi 10.617610799573272 12.68385523504499 6.718192107744316
Bi 3.0858974563589405 0.3569220937514814 7.835289833294389
Bi 7.510843163062413 2.4677340577554316 6.541594636611452
Bi 10.567712473982375 9.046698118941107 9.715458867339724
Bi 1.738664846476949 4.729718523552308 8.326814164783887
Bi 3.450390963550179 2.6976587756359613 9.742900564587199
Bi 12.807563561236632 8.62973630282957 7.704206170997818
Bi 11.524957772321097 8.635221098520356 4.998277678681783
Bi 7.5059781317482965 6.608370239468821 4.504263951733411
Bi 3.546553265853954 4.537191682485994 5.427898397351371
