22
Energy = -78.84166875 eV
Bi 11.137274129001272 8.01211436139057 12.22227801442774
Bi 4.302293746927753 5.013164491249753 9.22387427265145
Bi 2.331328678078903 7.323205159343822 8.850056160006996
Bi 5.492764241899087 7.014993947502828 11.325798051311754
Bi 8.171400733810188 9.430449352861093 5.731501887675542
Bi 4.190682817060522 9.439052945997279 10.037917798710948
Bi 11.906783238943927 8.45858238206595 5.254235914927377
Bi 5.221915045997081 6.578483845834965 3.72124361802819
Bi 6.050199060116487 6.1499829103240895 6.946824566025739
Bi 11.180990637632727 10.630551742871528 10.618175333003604
Bi 10.828464143654738 8.789482171551048 8.16753115299679
Bi 7.734335687191475 7.668014768850218 9.2904671270179
Bi 4.411900339566425 8.709402348797108 7.047840242736684
Bi 10.684153765546206 4.973288094287518 7.853742191448771
Bi 8.207111574960527 8.566953241702947 12.879339043593514
Bi 8.470967327274058 9.177231849699593 2.647573303199911
Bi 8.150970033049498 10.577714905345962 10.688718041570866
Bi 9.677936369943302 5.792516668471048 10.656753986293655
Bi 5.69508015516753 9.575013975049297 3.830176816295346
Bi 9.40653039082402 6.656425540293997 5.387451045984028
Bi 7.931355502607786 6.177689416929885 2.550013555539153
Bi 13.039572312561024 6.817420180980571 7.597482555970204
