28
Energy = -102.13841206 eV
Bi 11.224313807945794 6.102621351475072 8.271798507168851
Bi 10.704794054089145 8.297824263028403 10.33241584837509
Bi 11.304880347557797 9.021629480115035 7.442916116044227
Bi 10.771715567082863 5.949936561649532 4.2788926079066645
Bi 10.12353190904158 3.3858897472591485 5.8504792589964385
Bi 8.32903461337494 5.341486441694697 7.429678744646487
Bi 9.003759088415121 10.057385260705699 5.6630078440913865
Bi 7.753474015093146 8.188581913714648 9.69294661475857
Bi 8.034036051461884 7.332937465463457 4.633995388256317
Bi 8.161768725592621 2.57303297507967 3.610988184058752
Bi 7.558185991697643 7.039947542656857 1.5957224317746364
Bi 6.902023472263972 10.647439134374755 11.265468106679931
Bi 9.480425985542507 4.650091188356748 1.7959401525776213
Bi 7.200617270825875 3.7333616561037313 9.791375454100123
Bi 5.489490710142789 11.864000018848397 8.833747051401827
Bi 6.238308008303056 9.593246869880579 6.92251409772874
Bi 6.115825693902438 4.4010351348107735 4.897961492570806
Bi 4.617855882911811 2.442218118224423 8.77733151276261
Bi 6.301866628599576 6.1851689069581175 11.454193633875995
Bi 5.027903686633339 5.537424640782137 2.2581475279715844
Bi 3.9622934270867196 10.117188519521836 10.805774218904324
Bi 4.05667325197082 2.3159978177670792 5.77667895277397
Bi 4.629755624864898 6.589387482273309 7.206366621006657
Bi 4.322772664688229 10.452828864296364 4.687614587255826
Bi 3.7481277438762026 7.135010044838941 10.099669458141744
Bi 2.5844153105646956 4.309365059187612 7.5165219363110065
Bi 3.5032009281582104 8.097948128717459 2.9499377352237866
Bi 2.477546836937431 8.265612710840921 5.786513213260032
