28
Energy = -100.81045319 eV
Bi 3.412629174338852 10.058164318196045 3.8802756483782788
Bi 2.257393204906164 8.734300679592488 6.437213322923793
Bi 5.832635070804136 11.064930646881937 5.437824052178479
Bi 8.586818622550211 9.083910012992815 6.511092484471059
Bi 3.932261824544071 4.531484428222569 5.778922650919517
Bi 3.836569911562883 10.295143570428122 8.553006464235782
Bi 8.121484497713828 10.211366089031445 3.543814936481983
Bi 5.848445150410308 8.254326611660266 4.099375804132886
Bi 8.162036330823419 11.796086499266025 7.983668302986018
Bi 5.216541973232079 3.708750639000729 8.55225109381508
Bi 4.969406808599817 7.699765493968247 7.514033014235382
Bi 7.042445962204704 10.631293883817776 10.499667426328998
Bi 7.914742971751172 5.627927359990569 6.414782480495349
Bi 3.4429985141876855 7.687420755449313 10.149984102185936
Bi 7.906851082165525 2.698824944528594 7.457148952332621
Bi 7.36842818103011 4.892538466785436 2.839379745857338
Bi 5.635208690015838 2.13164784867589 5.192447411316789
Bi 10.045491352874922 10.789696062200045 10.158726274112242
Bi 3.272463433538581 1.859001472935756 7.0167025995516905
Bi 9.639213175048633 6.999397128256097 2.8820880669661055
Bi 5.97465496965899 4.489368465510339 11.550390198861443
Bi 6.229786301605709 7.662060376508167 11.423354422662067
Bi 10.875381411809734 8.32136850662478 8.487190221324118
Bi 8.479900757705254 6.618467791307555 9.371680480878805
Bi 9.679193574872988 3.2210543298305234 4.025733273961423
Bi 9.884598275552758 4.406608061159098 1.2320774408488546
Bi 8.582733976623613 3.7220186931701837 10.488878270644586
Bi 10.784895899055336 5.73828796319753 5.4535019561020155
