21
Energy = -75.10867251 eV
Bi 10.346979802241737 5.98528838411682 10.117427765857459
Bi 4.564969163243029 11.30391271261859 7.336481670399103
Bi 7.716809893167389 2.6156195781244036 8.654838714405626
Bi 7.37537151052153 10.291735549271472 7.976985852719806
Bi 4.30710993881666 9.186859411847665 5.175481406319546
Bi 6.391275826454145 6.881318139232965 7.535825464521692
Bi 7.882936329362083 5.483823201760083 4.237439315039261
Bi 8.225219514628153 12.499147532336199 10.029470788811901
Bi 3.714022308932975 8.484018852542441 8.058282981959076
Bi 7.379823005658456 5.270502895863097 10.067413361520408
Bi 9.623716827104063 5.873658141932472 6.905471473414232
Bi 10.42094850715765 11.021206464020642 11.603286862022763
Bi 8.860487081795833 8.622086232729993 10.556549509080066
Bi 10.792625751264774 6.290658989638784 4.023885038174641
Bi 7.2096181493054114 8.459886529906754 4.178525649539807
Bi 11.165204298169234 9.836648644163123 8.88775896175636
Bi 6.217433190822914 2.6203729552943744 5.989995506518068
Bi 9.732627178770734 12.137837194159864 7.4102170369288425
Bi 4.6988354968887975 2.2624467526568863 8.567146317206447
Bi 9.89412125184628 8.68777006426266 5.727682756952944
Bi 4.270191222330532 4.785409439939631 6.88278189018034
