29
Energy = -104.40299255 eV
Bi 7.744458991237758 5.90773926976966 7.995792028871482
Bi 6.428009990802149 8.303782385995449 10.935893807345483
Bi 4.956114388548 5.8573200510820245 5.5492115115413725
Bi 10.791111300913537 5.037703502109938 7.718185146908183
Bi 3.0242956403247896 9.082075563443388 6.999353224649634
Bi 7.0335826438789235 10.644907678627481 8.791295941583718
Bi 11.60612836386355 6.299901789477329 5.123251195940276
Bi 4.09291177995027 11.230683494639207 5.170675296797136
Bi 10.991976991036745 3.3834315271770667 5.1899051330657935
Bi 10.020871009499775 9.90754145416605 5.3720863277819015
Bi 2.4054208960408077 8.993587238907196 4.017132844701886
Bi 9.028576576395038 7.235616570363799 14.266521691301785
Bi 4.544228174863442 5.996026115902713 9.019507405368575
Bi 4.5166200296596335 2.983622856545597 9.014886401693936
Bi 7.666122630331838 9.77182549500695 13.371695214644978
Bi 2.6741198508226343 4.494967845066094 7.11204913937719
Bi 3.9607369190687325 6.676803592759887 2.7417129412439425
Bi 5.615500984685068 2.902283040337547 5.211640402679894
Bi 8.905176651811928 12.380290996607224 6.703132606209422
Bi 8.485948902060205 5.761621410207591 1.5140384062238479
Bi 11.535472395326709 11.269007879387644 7.6014177509859495
Bi 6.031965082274184 9.161650906351907 6.314944803462698
Bi 8.495141187866546 6.422792421782557 4.57705046044445
Bi 6.659571829581974 7.955377278369491 2.4789569614849745
Bi 8.962232234840075 6.680263568454431 11.090608251257581
Bi 10.46360875402517 9.097835175371815 12.462646137685644
Bi 8.224377676482979 3.479470137097605 3.5736385229107763
Bi 9.592786420994864 8.992286735532824 8.328893167783868
Bi 7.317983888350499 2.89865811884578 7.67768520699133
