21
Energy = -75.94765941 eV
Bi 8.853204233918184 8.932179574565343 9.74853377835543
Bi 6.862556406414009 10.370060121627441 11.571573711419186
Bi 8.584630056328487 6.565122715060526 11.645560219655843
Bi 5.910233951583023 7.748765283927341 12.685776676182071
Bi 4.524318168077411 11.172203860273608 9.832897724668083
Bi 7.316635277436913 6.45269266962547 8.907643903379896
Bi 9.532464707321989 7.570433408254747 5.369113787065846
Bi 3.932829438621618 8.723265433455127 8.154449060323568
Bi 2.2654885024470537 9.31500617544112 10.611836967527003
Bi 6.194750677541225 8.07811044684255 2.3169074985966276
Bi 6.508834280304497 7.769750669253557 5.318252646669355
Bi 3.8136586925377958 6.292662677229678 1.9559959646735985
Bi 4.018543066522273 6.808539961793879 10.521757429713098
Bi 8.115385684165064 6.161862282831597 0.9931176565864865
Bi 10.36772517378415 5.833988053673531 3.038360212774458
Bi 9.843175595557883 5.429303807629322 7.488657771172974
Bi 5.486694612467691 4.994214766683221 5.983052674159761
Bi 4.619797115562379 3.7647975349793956 3.3535121838439106
Bi 7.971306980189012 3.300943464805669 6.390026760623193
Bi 9.35316225388876 3.033913162835657 3.7210967726889286
Bi 7.096154217192304 3.347448671316859 1.6796452392322794
