20
Energy = -73.16728262 eV
Bi 4.348744697181042 10.389504715530602 12.136217718583993
Bi 4.519854658372169 13.006404826112163 10.545850930821551
Bi 7.075550686421063 9.574483315001277 11.044346973811987
Bi 7.23773975212363 12.16200500713945 9.455566314269994
Bi 2.733613140328086 10.75096026791477 9.603101592511349
Bi 5.870404102763884 7.555126029001258 9.194077528019116
Bi 6.106109370633107 11.542414289133875 6.752750329646019
Bi 8.454936346124247 9.885188810524687 5.80437766567591
Bi 8.354094598805773 7.297758958102844 7.46652758577258
Bi 4.220538020151629 9.299412915175754 7.389676552962599
Bi 7.931879669203806 3.695610299092027 6.8422189137388365
Bi 6.782080134771734 7.508444724668857 4.895796445011461
Bi 10.12684585880429 4.0495881950825625 4.82664654208551
Bi 8.80059339477972 6.182122447276053 3.048169225009853
Bi 5.458046377179171 3.874758585622272 5.113624470742919
Bi 7.8378882285471665 0.6011784004520453 6.800388948762411
Bi 5.318700993013871 0.7990039316813167 5.089912678241406
Bi 6.579046607496964 4.173320228398953 2.332541763900214
Bi 9.032321375455227 2.4349018209055737 2.517236079260274
Bi 7.938213453104762 13.006404826112165 3.868173206434075
