24
Energy = -87.36855608 eV
Bi 10.004201810420827 10.192181107737873 6.81675328760535
Bi 8.554713800418957 14.892835425147757 7.14061552349216
Bi 9.335855319640146 12.44294479719461 8.743553598277641
Bi 7.1372415331139925 9.172073259049604 6.749074634709086
Bi 7.497890183884033 5.098837398043272 2.539617689684526
Bi 7.068400927096019 13.313717064908154 5.020010316303412
Bi 9.009267022195752 2.597071684374513 3.059981505395314
Bi 9.3176678484933 11.479754087915758 4.175617570084065
Bi 10.442643796041487 6.241398392545459 6.013492871816332
Bi 9.646325526253563 7.082442351630801 3.2285236899367
Bi 6.441343110546185 12.907929757865906 7.962154193777387
Bi 10.550631056418919 3.2138566699400934 5.572227483299269
Bi 7.795978842593098 2.0221906439691013 6.14483139583891
Bi 7.422826787541157 9.102761229855842 3.7009030217889416
Bi 6.0448296824374035 2.129188359487767 8.87952727541183
Bi 5.778906882815592 4.758039999449609 10.245176618295895
Bi 6.458746019513099 4.688410517783953 5.443320262637888
Bi 7.854113854840677 6.329349369233016 7.580499401813477
Bi 3.5154996403526546 2.0532131736507364 7.3146827067947555
Bi 3.190447234208513 3.9114631934889097 11.734619211482006
Bi 4.084897210290542 6.5265705996582035 8.454392950864019
Bi 3.4397258743194277 4.804348046808645 6.115131059960777
Bi 1.53538198126184 2.6867269308007558 9.548701867625887
Bi 1.5059353264070148 5.679419830377679 9.922372696040807
