27
Energy = -69.07567473 eV
Bi 8.8099955008829 9.521778875266516 12.36051381961985
Bi 7.32606762739459 5.231168393250206 9.42520249037451
Bi 6.052374310652315 3.4845815722737434 7.787923677263604
Bi 8.896745797981556 4.29479706797306 7.378325198012565
Bi 4.4812270007836625 5.779349991912557 8.2239824471394
Bi 9.861480487425869 11.177697649170716 10.220122277065423
Bi 10.065018627758596 6.18716041731945 8.661458524844363
Bi 10.651441055885149 8.345735506481066 10.436048718665603
Bi 8.210376459246202 7.262136032626694 10.756069129879274
Bi 5.812555861531611 7.682674717779091 9.56143016010923
Bi 8.854334217879497 5.931857901480161 4.9996630763807355
Bi 7.313873331549974 3.599493162639351 5.275525598705925
Bi 8.069057961288873 7.798209704033833 7.768378264202469
Bi 6.577362337073294 5.964525323999413 6.592863905654103
Bi 12.370174889587322 7.59955133577234 8.351155011826084
Bi 10.584168973337318 7.511644437831044 6.24920822382477
Bi 7.6331812877335805 9.732227859729326 9.772324910480583
Bi 3.130180083415803 8.147962310931653 8.45164781285043
Bi 9.535892984259014 8.093504826567406 3.465739699040956
Bi 7.084427794372128 8.145177814148234 4.840577641861515
Bi 8.877719456008586 11.769505758909123 7.5927725011759755
Bi 5.056527639544687 8.13116137356003 6.48319065579055
Bi 10.261061507630735 9.50531672580819 8.042023968181816
Bi 4.869400829997822 10.121303446862129 8.855230372947444
Bi 6.822454040781672 10.13120766080198 6.919289367677314
Bi 6.5975009739938635 12.168335499859882 9.04246425572876
Bi 9.258325239872274 9.744860910881606 5.549794568565705
