26
Energy = -93.16721442 eV
Bi 6.988834414089275 4.833763390657115 9.683447592972664
Bi 8.4281018421657 4.844203363993261 12.359850095017402
Bi 9.554377693926913 6.466585454402497 9.9510352148477
Bi 5.5862588280981935 7.154276428861563 7.109365908644317
Bi 7.493039494300399 2.7429586287799976 7.38918644681689
Bi 6.450220267641375 7.142885302655434 12.69295259806238
Bi 8.555107597236047 8.965181540018733 11.393840608359508
Bi 4.6064688507781035 7.516570075111411 10.111914157229931
Bi 4.6132511805330845 3.8675415589922952 7.477415098904443
Bi 11.84688002346431 7.968370854138579 6.962920601932021
Bi 5.918332637904898 10.251896227349304 10.540426197729412
Bi 9.871408268956541 3.73905759003048 5.727222006403595
Bi 9.065304331079927 6.624530922398844 6.354548699498079
Bi 6.3004944511086265 11.790195635976763 7.911033498785284
Bi 10.946072063268446 10.596751202081256 5.8061207988709995
Bi 3.048841105841729 6.979307175067675 5.2147040819644035
Bi 6.286828948049366 5.437537636019761 4.153403666058263
Bi 11.20021694153766 10.328619024138948 8.818435683981233
Bi 2.4483562290732417 3.688993772673036 5.487934664454329
Bi 9.5221678598935 7.420478254750386 3.4381463108593673
Bi 8.924331881369474 4.452016522642616 2.892888408931643
Bi 4.212285334040068 9.984007119114645 6.678917088044709
Bi 3.563930353363442 4.900214920157762 2.9796288608900348
Bi 6.621218081046765 7.91459899840758 2.464504834427328
Bi 8.517616350211707 9.748610439769347 7.525831288923503
Bi 4.256130737650619 9.466923728439212 3.7004013540192235
