22
Energy = -77.92702484 eV
Bi 11.193308181640349 13.754324114113594 8.004722480846329
Bi 10.15066576518329 10.867215538233003 7.0567977715942805
Bi 8.295092097482245 4.35205465805911 9.271864265885355
Bi 7.036587317178997 9.528817347694746 4.883171798195269
Bi 8.941287509897055 5.777474154607116 12.070078324538885
Bi 11.320143917009228 7.512539485816318 11.546584065881925
Bi 8.588497926479656 8.639508632557012 11.097304412517518
Bi 5.446233134871034 6.180067058912818 6.893968384474466
Bi 8.081721495903649 13.09895038708695 7.43446728990683
Bi 7.5724729662657495 7.0149197769075995 3.4786102120574114
Bi 10.812778851550982 6.116822501031868 8.736630360783025
Bi 5.625210258852377 5.315213064529142 10.5843983481591
Bi 4.69861002201487 7.663885857223944 4.336015348181785
Bi 7.894569936319237 8.631485790934898 7.9307394868615955
Bi 7.923815363307641 12.549652679479491 10.44885791741993
Bi 6.034386958560373 10.900929445998297 8.744456013650112
Bi 10.60787815448158 7.300941965875137 5.878432496873139
Bi 4.418815863862077 7.763167781707199 9.30332589712983
Bi 8.739138131055471 4.98453780915307 5.974267381645798
Bi 3.2664801628427065 4.965223535032661 8.677246221864282
Bi 11.769677476264816 4.51430040289115 6.241324188418268
Bi 10.781569455379776 11.479217598949008 9.985325669233475
