21
Energy = -76.14847707 eV
Bi 4.38133475320229 5.749418031652785 2.8156550803597318
Bi 6.203786434213868 3.332896678501824 2.3065647834410665
Bi 6.931375172785563 7.138897860543491 1.8922705702338842
Bi 8.764785342710784 4.813351611326757 3.2072861017433767
Bi 5.048177065552007 2.264366861006185 4.831420812449762
Bi 4.941208410999316 5.405717064265388 5.788346642183395
Bi 5.5856857486188485 10.21054578241516 5.3726692985540065
Bi 7.915279378562025 8.787238114926035 4.108484775397451
Bi 3.5755154727774543 8.157306555804102 6.394796372381852
Bi 7.896042319734232 6.080609110408193 5.831939292244015
Bi 9.828571188668342 2.2486523657922532 4.86370274370221
Bi 7.283387322822494 11.026446141754713 7.754575906114163
Bi 8.972012134452388 3.4674656356612372 7.403796702895789
Bi 4.907678964537506 10.941308064600603 9.580659050988155
Bi 7.431581839436086 1.0958355508481448 6.273317992026183
Bi 8.7842227726453 8.546181243855015 8.553480934112372
Bi 4.058699771447056 8.072499113425287 9.37048849416744
Bi 6.472240591000536 10.643126209480856 12.16203601696068
Bi 9.218667926710262 9.65711669854803 11.390643576690819
Bi 6.687449973855401 6.622127671953312 9.591465741960741
Bi 7.108327453782514 7.698613547781115 12.434827035426894
