25
Energy = -90.05544764 eV
Bi 1.7724718740047396 3.2558818779842387 4.854286898181413
Bi 11.102560413948728 11.606339765777824 6.987399426442982
Bi 7.656042390549165 8.293214108975468 8.07069406347308
Bi 2.5715566693712755 2.5222074508459276 1.9749152041604212
Bi 3.4710209222458195 7.469674140738344 8.737760662827952
Bi 3.7874365703706068 10.248453075147577 9.770766959133937
Bi 5.2709677428269215 6.98512509355653 5.899128450465559
Bi 7.598860957374372 6.753047317256684 3.8299057830017627
Bi 4.855933890385651 4.245116540247378 7.090431329084003
Bi 11.924581986771388 10.213486721825978 9.539319543302964
Bi 6.950385102796171 4.074592978550856 9.293015208916096
Bi 6.422088751906557 2.5134050691567515 5.1226986211899925
Bi 5.85732802698579 6.829779133772663 10.395289363051274
Bi 9.614827658423437 4.609058343945511 8.116930046316057
Bi 11.336967546886227 7.607987884895202 6.363537279316173
Bi 3.8518413138912204 1.121279192057563 4.307280631064692
Bi 9.798775726150494 12.255648611071287 9.632708403816608
Bi 9.218590284135248 9.59390744156297 5.621977078563424
Bi 2.832355972808528 6.079755543630858 4.204108347267142
Bi 6.02781424258192 9.759671380369742 11.722002340444883
Bi 6.891294677048951 11.041442498217881 9.141694610037868
Bi 4.159190699300388 5.115017779749231 1.6803007778073733
Bi 6.835546471825253 4.075709720467798 2.5936916670674246
Bi 9.810648825475726 5.173782139535639 5.15464581256726
Bi 10.306593742692764 7.512104072434138 9.340097743467322
