28
Energy = -100.84637879 eV
Bi 11.115070844371559 4.638154815974437 3.5591947934880093
Bi 11.161950465377592 3.0327887847073516 7.400372961315939
Bi 8.869438659941041 3.7923531077770343 5.440584509066768
Bi 4.268434247367487 3.5629173484488548 11.144252723543113
Bi 7.660292516523657 3.332989777095453 9.104875378756073
Bi 13.026361587190017 4.927670121215507 5.883463429422972
Bi 4.843452549887027 2.3456832516872574 8.407405299050215
Bi 3.8039071332190786 5.211423765054538 6.018703557132034
Bi 6.414030210454164 5.7751577656655115 3.725725357760697
Bi 10.560253507428426 7.523703422807341 2.85385964611228
Bi 3.76061271991164 4.542588159630802 2.8016764614380265
Bi 11.398514188517764 5.941879481821574 8.24879980121923
Bi 8.611111165871097 6.3351041386776314 7.103473031014867
Bi 6.242044481647698 1.2358743752398202 10.84434044959301
Bi 7.839726471159872 7.333523607531209 1.4915897419737123
Bi 2.4042900534689444 5.7121474098500356 8.83896965935709
Bi 4.067485730095756 7.51181740737688 2.7619895341488356
Bi 6.536276994605404 5.594492562527924 10.856620480728015
Bi 2.030764929533734 7.380969127139087 5.124242344520298
Bi 3.4952951693463508 9.332556065406147 9.90780603459893
Bi 1.305840043741864 8.43184953275812 7.9885231487868404
Bi 7.10555480236862 10.681126525993754 7.391117358191385
Bi 6.997972377808476 9.315043070635648 3.869078894357301
Bi 5.126424636538829 7.1011687938560035 8.55923736611964
Bi 9.540323857390689 8.716350937520025 5.466714698374224
Bi 4.499911764544375 10.461660115788026 5.8026997717814375
Bi 6.763152889838433 12.317287459665398 4.877099449802459
Bi 4.505571896429798 11.865784962728016 8.481650012925076
