24
Energy = -86.54411525 eV
Bi 10.941740330288676 6.430576246450433 5.23603867222248
Bi 9.30244766132914 5.903461736385013 11.362476092237973
Bi 6.298060043264607 4.9351213798477405 2.436901669576255
Bi 5.902611559262708 7.7046702528205655 12.600886909065402
Bi 5.5806114882763715 7.642892569410255 6.164656837129037
Bi 7.637976653306494 10.82774973463353 10.964993552673594
Bi 3.9766003738479174 5.912963500975243 4.09954846300556
Bi 8.405959277747153 7.042759513873806 8.546327275239316
Bi 10.584893814370838 3.5152846374646565 5.567264524218558
Bi 5.226383880089432 9.185659453956244 9.97180170194195
Bi 7.38818776686097 10.557608959069976 7.022202991488437
Bi 5.292697631515557 3.26323561677273 4.67612945916162
Bi 9.56146172022989 11.768230541423105 8.814526487232417
Bi 5.729992770841072 6.196740495343537 10.065267479835388
Bi 6.547140315982113 12.144811489550703 4.560075388048116
Bi 12.291619881567295 5.860474251609054 11.093981393663693
Bi 7.798366404816149 4.634902435375939 6.06381451578995
Bi 4.319909897777736 10.099717492003267 4.756754339826522
Bi 11.735619335114789 8.803086951577555 10.901636624099696
Bi 7.914618250610215 7.052391604764727 4.201272836975245
Bi 10.955813359133112 5.2454158078487705 8.172453463543508
Bi 10.840487977281414 9.096242890140953 8.096490218954363
Bi 8.950140645545604 8.69927290813456 12.65773935487623
Bi 4.749465265950938 12.125605850726524 6.9738990181794875
