24
Energy = -86.0381092 eV
Bi 8.960866230166879 10.598085721481434 1.5529881719065097
Bi 11.326591095711917 4.268544987008394 9.575452694556072
Bi 8.689220794920432 7.671091167032725 4.946288409019698
Bi 6.182599217275968 7.1417735168093515 6.643941402784497
Bi 5.905222223665767 3.3876484347650138 12.349348579158127
Bi 6.748707095896399 4.691576645935427 4.614726256267925
Bi 10.507340571277396 7.024244382067317 9.046756312946378
Bi 8.503349730523613 2.870381220187715 10.485110263241104
Bi 6.854070196178019 3.6764468475645224 7.998534755957112
Bi 4.9613630132443935 5.90663662593553 11.026494510093096
Bi 4.753376073790387 9.220854707459415 9.043688956325356
Bi 9.187402671278125 10.729700650558891 4.539973634128608
Bi 6.464221390833191 11.676556721981926 9.0559989701934
Bi 7.626312653940871 7.637868424533434 2.0481236548203228
Bi 9.633501522060904 4.750532345205085 7.067344343196045
Bi 6.764310607244353 11.91255390229626 3.12013480264024
Bi 5.891053740950584 10.549461806434472 6.282548169579425
Bi 6.652056296962898 6.026706750630917 13.516261170297813
Bi 8.097240130036614 5.90954855664379 10.78173683967726
Bi 3.655581379858173 11.800052648233628 7.969262430891141
Bi 7.703708202825532 2.0742522680721853 5.558636387360798
Bi 4.96217525256432 5.619408352826653 2.3940480864351836
Bi 5.202172704760121 9.341567017818246 2.3702920999682315
Bi 3.9757185987624566 7.53202295563886 4.505628762327261
