20
Energy = -71.35097062 eV
Bi 3.5191713852363007 3.8036556354310576 5.235303599701907
Bi 3.2491185757551526 7.251163926902894 7.783964711069194
Bi 8.820321647444382 6.266761279173748 11.690850106279994
Bi 7.048753208664008 12.740867739209468 4.831004217907441
Bi 8.309014553575867 11.039400935438048 7.150196510888053
Bi 9.165298323660288 6.158473637838049 4.812282196264161
Bi 3.4330200677471145 4.253427643358541 8.162798875957566
Bi 6.313571833963579 5.44494272509292 10.035105053479597
Bi 10.232064779186668 11.112458271102735 9.69351452828558
Bi 10.770789931091914 8.52698986374974 8.322006021976033
Bi 9.893720567257619 9.086361588135635 5.302461472820296
Bi 6.331280625194459 7.406744213804595 7.614329618921758
Bi 10.130135517522243 4.265657802125124 6.94511135337083
Bi 4.00645748736996 6.750564405749566 4.869950080187668
Bi 7.901757563728674 3.173722987428118 8.73851463326433
Bi 7.160882221388865 9.949338426453155 3.773927957178698
Bi 8.278873885583783 8.751394586211699 10.003050100126009
Bi 10.464533934757453 4.3962732511915155 9.974309004219332
Bi 5.347574188941096 10.5749221488314 6.041887586018281
Bi 6.464869054833997 4.85193771663335 5.862780541053743
