26
Energy = -94.53863935 eV
Bi 10.271845794043415 3.449441008570778 10.078069759314237
Bi 10.840682464418352 4.070593333496569 7.084991701694054
Bi 11.76105224513682 7.949753377117433 9.506197374648274
Bi 6.815706133007184 1.4592562008602832 7.8160086332012115
Bi 10.263140249444653 6.128053369359005 11.481899776193284
Bi 11.123043570913172 7.027685072699049 6.749438085806999
Bi 3.9891097208351134 1.5350082920946022 6.674671709159187
Bi 6.533165482998343 4.48916923153316 7.919138468268278
Bi 10.012806354765951 10.500273324539101 9.508391171056642
Bi 6.392733288990252 1.0891524048411707 4.842963562215257
Bi 7.8542875088566175 8.503473708101058 8.841992104455365
Bi 7.682727478210379 4.740621405032941 10.853647903413162
Bi 9.111115081614276 10.145433583839324 6.6153947877073955
Bi 5.407751025022887 10.377409528420875 8.87483349471638
Bi 4.339531331979892 8.09434552618012 7.169098859834563
Bi 7.020124642999174 3.7030895877705063 3.46709048094397
Bi 3.6377331523977396 4.609618210626184 6.758679995624435
Bi 8.387518853840644 5.3973668674903355 5.736542298739297
Bi 6.81285149506956 12.210626166376338 6.8851097907312395
Bi 1.862106325881671 9.487355438862142 6.180400312069536
Bi 6.281336435588303 8.275851338506767 4.868420400259853
Bi 4.143388677201517 4.503257768618015 3.7926725911189245
Bi 5.951339672879552 11.195230678098714 4.162671542858824
Bi 2.939913096678014 11.489409822811568 4.204513059719378
Bi 4.4724810913356485 7.330872646765628 2.6457475734510774
Bi 1.8886772597621475 8.801403382753662 3.2419628317911298
