20
Energy = -73.43958474 eV
Bi 10.60363588074085 12.33998462968295 8.226546856985134
Bi 8.187093407298631 11.01654199521605 9.482639092526124
Bi 10.357368374391113 11.88183774302082 5.244812724214171
Bi 12.204327252417233 10.124646846116137 6.928245696129853
Bi 6.510445252865747 10.958784149303469 6.9953568352389475
Bi 9.315650706595077 8.238978473904936 9.551909815226743
Bi 6.558175511830909 6.995920319611335 9.767613248510923
Bi 8.331138564456431 9.57134218403274 5.049967701149378
Bi 10.166473493169228 7.8289396254773616 6.704751816768567
Bi 4.698348495144025 8.781195520490712 8.078805262537157
Bi 7.055538520393205 5.964754155478434 5.378529178245565
Bi 7.055285807800985 4.571064381287343 8.033616672350295
Bi 4.400322965108334 7.3996587190224545 5.412597667988551
Bi 4.171881368180315 3.87760715876705 8.571955881763637
Bi 2.5525637959115812 5.2222798416732426 6.426579171938219
Bi 6.076738382883902 3.614025716433678 3.651061659155832
Bi 4.333361953499331 1.0307577358746096 7.570400664490724
Bi 6.193287955206171 0.9794729498963992 5.1990075997489384
Bi 3.0512937839819005 3.731781426972927 3.864347839810802
Bi 3.1387613966319328 0.832119296244257 4.822947483727171
