29
Energy = -104.45682824 eV
Bi 11.30174950082392 10.177769628414117 5.210983495698625
Bi 13.569905171566539 8.096354040517674 5.186321723444601
Bi 10.822043204335808 4.179536185008614 11.559953490132465
Bi 11.801603619155491 9.55208456180097 8.119070857831968
Bi 9.1605700905074 5.360496839880733 13.718823018342457
Bi 8.641028971662823 12.632286554186829 9.8005750594193
Bi 12.37299353617214 6.563412109990077 7.576233580125085
Bi 10.084218046664036 7.075953262625816 11.418973602695308
Bi 8.89309597932935 9.675330295812532 9.1622692622195
Bi 7.421229565186149 5.4847539270362 11.107446924916173
Bi 8.5116262564215 3.0327044223429254 9.543966995987605
Bi 7.947105858357386 11.681817465723066 7.076621984511319
Bi 11.966683035954075 5.352107745222372 4.773241049948921
Bi 8.834179560535395 8.336410686431275 5.429504153651223
Bi 6.214927952375281 7.850238418269789 7.669385600676203
Bi 8.788198448175883 5.257751326763911 7.4810373992815205
Bi 4.061270159519548 9.471792181406 11.853229042704926
Bi 5.649395326296763 11.535616400059608 10.167872701193595
Bi 4.6187738246245225 6.1109678298210115 9.627590562806404
Bi 2.8268794540407955 12.173895527703996 11.307987266700021
Bi 5.90256672283731 3.999698684183769 7.94951444725355
Bi 9.159549203087575 3.7468113084783115 4.895778277447351
Bi 4.868465070761495 10.582969711464573 7.285829115489699
Bi 9.479245690267595 6.289991453372993 3.280950268199074
Bi 4.427607585795657 6.565981514388041 5.554115755779922
Bi 2.4492478771935247 9.928231568149446 9.388726128437074
Bi 7.025376538302788 9.521269149940505 3.236958011463222
Bi 5.559029713562844 6.896602513034938 2.730699647671008
Bi 4.060739591675054 9.202961916980817 3.951864311850608
