26
Energy = -93.05655913 eV
Bi 5.963468404006302 12.64935732576602 6.478379575282468
Bi 7.813559029596156 11.480400277417901 8.675194739335284
Bi 9.617252833526518 10.644596293214583 6.428006223224085
Bi 11.712953042262114 8.872960009300666 8.025308736227265
Bi 7.380930703843726 8.237304116858736 9.361916906979674
Bi 4.2626470693799465 7.861613214814686 9.586880470497496
Bi 7.216012807541988 10.780583831972239 4.455329303586085
Bi 5.312686618234921 9.655464438465662 6.578773145981315
Bi 11.406899824735966 11.510987998685062 9.58548699215312
Bi 12.92627929995175 9.847711659673951 11.712817963950132
Bi 9.247717172697294 7.278574454879288 5.371819117550681
Bi 7.172901884170621 7.8623786720004265 12.484994264336775
Bi 9.938358242966004 10.12818250401614 11.9042387070126
Bi 4.297414016670897 6.816411615245263 12.578439549379649
Bi 3.063795999768261 8.377707859399527 4.87977080459123
Bi 12.100524300720567 6.11402421155292 5.543119529769129
Bi 11.097038998450111 7.543546205680891 10.704303830077125
Bi 8.62563276602097 4.943008907724771 3.2870578780995645
Bi 5.068816769723919 4.960551095129174 10.302775913340515
Bi 8.064443760747142 5.476173054238094 10.873571932028284
Bi 5.773358835910154 7.208567647051819 3.9232534857420176
Bi 10.440853526001801 3.584658306965314 5.322273250238538
Bi 10.032418999542504 5.499508764488295 7.729240652815653
Bi 3.1064551794462094 6.271985579239473 7.089020257493802
Bi 5.753751995760452 4.157769613977123 3.990231638919789
Bi 6.072538798088151 5.704683222005475 6.596506011152178
