26
Energy = -94.72772687 eV
Bi 1.6839865057460182 6.386848782954935 6.758870385665583
Bi 3.207318517726527 6.992357947603637 2.9778660099118692
Bi 2.1210527500695346 9.575587382434733 4.112259807805381
Bi 2.3485117915231837 5.7339884638529695 9.649593119269985
Bi 2.1034200985505005 9.369786642993663 7.176504723519952
Bi 4.561208569600479 6.32338446533844 5.72861690584183
Bi 4.53589700358781 9.699790936155013 9.043822851009455
Bi 4.782474756928332 9.587431893720447 2.673655930326801
Bi 3.8685600378704272 3.1055114650708653 9.260428794115724
Bi 5.153620308725874 6.668455101471518 8.917448014429112
Bi 4.865330133650058 3.323210394283661 6.3546470820978795
Bi 6.5066308129490285 10.999947884508815 7.121047403885678
Bi 5.821080292179351 4.566279807140071 11.09811834445689
Bi 6.804629992560435 8.997029789912142 4.868700450700946
Bi 8.97755132050233 9.651499388313937 8.259973419364263
Bi 9.239592384047937 6.361291799924325 4.63169362428055
Bi 8.274134926196233 6.786924532030402 7.448689032736605
Bi 8.97191923375155 10.774385615546876 3.608829270856848
Bi 8.43135295149157 3.323878513602928 10.133186184618124
Bi 7.43257891550891 2.1832714836425398 7.525653087873028
Bi 11.505725713583152 4.357196587298567 4.862039800790911
Bi 10.149115775719615 1.9698117247552536 6.161777971771223
Bi 10.765256360030312 10.76486830354183 6.063601966123278
Bi 11.130593136003869 8.641583558546323 3.9589177080523856
Bi 10.26356247711849 5.636095840959733 9.404280208359216
Bi 12.005136548704394 3.7622567599288423 7.77867808943224
