22
Energy = -79.93885196 eV
Bi 11.564251555225056 7.880308368274316 9.291274641522046
Bi 11.774365739253005 9.192799100874558 6.636894948467329
Bi 10.427913171719254 10.637532412724577 8.914672529414037
Bi 8.797928453443951 6.186679462089386 8.905738924760769
Bi 8.289155010161858 7.453020333322268 11.631581879322697
Bi 8.690481471630227 8.762424431215743 7.205569765326885
Bi 5.50646912662581 6.52065425184399 12.401916247723479
Bi 7.38038496939906 10.261620974655655 11.056272838141265
Bi 5.8257128857364195 6.239361340602713 7.544858242078616
Bi 5.076092826407083 9.51768741072597 12.96242137734816
Bi 4.005604817287444 7.112369566895533 9.835090400931136
Bi 5.591217215861653 8.97983569666574 6.482800329726895
Bi 7.313611280406677 4.043531376342759 5.0494198229226575
Bi 4.5573871229125125 10.07791702580491 9.985498597348833
Bi 8.098032511468686 6.211212226781402 3.109941528207764
Bi 7.267193724245967 1.6258566678634192 3.1249022595253684
Bi 5.952734896438579 8.363727596232886 3.5216791662642426
Bi 4.305478300363623 4.217339274182444 4.981495885059821
Bi 4.235929899476828 1.785587509773837 3.0492526787817167
Bi 6.018403819705353 5.7359147280659935 0.9525620414841088
Bi 3.771921042809882 6.3150874970123505 2.8860043906761943
Bi 5.869933612859013 2.713872681417475 0.6938755668783931
