21
Energy = -75.31632649 eV
Bi 4.499908576968201 9.450206080871206 4.900731177982791
Bi 6.337673572788485 9.263493448606843 11.394953438897499
Bi 8.122109757671755 11.672234489317923 12.098564354963912
Bi 7.5594058966783395 9.089012319386155 5.691514063271069
Bi 9.702651670702497 5.12619667572855 6.634114430452786
Bi 6.833600632874937 10.586545613351289 8.705384863526149
Bi 9.218836704134949 10.330839682317118 3.3922977401559296
Bi 5.86218604293166 3.4905304304890006 7.919385069168903
Bi 6.9293924627898615 4.729080413161893 10.477051093907555
Bi 8.782189603431942 7.468724803999106 11.730043103420169
Bi 6.979279651323257 6.341654651367732 7.796793752913835
Bi 11.786086852534481 6.629660429368263 8.133671851051101
Bi 12.023384955904485 8.358292918831152 5.594817426669004
Bi 10.638691671745184 11.146854741069694 10.44013618749815
Bi 9.56178199178887 8.626423411436381 8.993306765992356
Bi 8.743330011819811 3.027028088110102 8.73194761642362
Bi 10.243091915185223 10.7855097445849 6.228378355099495
Bi 4.028394146664101 7.370064880952149 6.959469728697497
Bi 3.891617723025167 10.266388886910024 7.744208275361053
Bi 9.670275154121871 7.360043165816054 3.939565951733852
Bi 10.30488151605778 9.810407325416886 13.126752614290439
