27
Energy = -98.01919825 eV
Bi 6.073849358747799 2.1053917623310126 6.516652781259168
Bi 5.620679577081365 2.6429823563749824 3.518869404190437
Bi 7.122931711338671 4.849993517747523 7.462686507253339
Bi 8.704727461227353 3.3533361256428256 9.583676057373992
Bi 10.841381970598972 3.1998533518501904 7.452098458076287
Bi 5.669807181454669 5.613743984088062 4.332442770929773
Bi 9.454687078357031 5.889651118191581 11.086328527851348
Bi 3.0113110119969333 2.197378533402292 6.967724546066332
Bi 2.5887171833621725 2.736243500579909 3.9530158023758672
Bi 13.358000229387194 4.459437649506209 8.561899337595401
Bi 4.731147927795251 5.063747841112331 9.299094479230346
Bi 11.535975636347327 6.071805053111923 6.7507426151459775
Bi 2.6448613117402817 5.802264183519183 4.477528984077886
Bi 11.91124610274171 6.889358218659673 9.642910588981241
Bi 2.329165845069602 5.123586224121985 7.452721814184866
Bi 5.329142181465373 7.7740620106797955 10.673788284247937
Bi 6.557319223088246 7.144117099119167 1.8309263723773466
Bi 8.159606733050511 8.296070869758626 9.788634871739514
Bi 7.928675072260104 8.467079190796593 6.498437662001517
Bi 4.902078209134936 8.297655246642652 6.272856661199794
Bi 8.605275434983305 8.767329554157161 3.3713694182076455
Bi 3.996139867127698 9.726344890135538 8.768618631372123
Bi 6.187246919857174 10.134737953496138 2.2268535097347764
Bi 8.346117949323489 11.393888748389445 7.107185449938672
Bi 4.306552142857895 10.675894995097746 4.547169028884265
Bi 5.934281038639162 12.053237768164694 8.824808881242324
Bi 5.99858009551708 12.824161504503024 5.879883474950923
