20
Energy = -70.80085838 eV
Bi 3.7545569751063024 7.575335317078219 4.91280895995754
Bi 9.949229072081549 4.949074080504975 6.712650944804727
Bi 7.575115355091223 10.796260258926678 5.45643513985101
Bi 5.883953129135051 7.226692623792829 7.167225904653742
Bi 7.216497571671811 10.077820625182826 2.5343479351913762
Bi 7.169288805848922 4.670377154136196 8.306374228741884
Bi 9.231649497213636 6.536869869885505 10.05995341139402
Bi 3.2314729140705962 7.795361897084923 10.609125293504857
Bi 12.833720382459692 7.813073256482254 9.776010209496192
Bi 5.907187373283511 6.2138226472487545 10.887568848314816
Bi 5.957947616154045 9.064304566605257 9.975416055139519
Bi 4.753746047129054 10.398597952475864 4.337707685653261
Bi 3.0137422732991914 6.594084677782512 7.788591224779667
Bi 8.028939410737035 7.937650441533613 4.599053749953219
Bi 8.84842494214014 10.34315991693341 11.201863254609846
Bi 11.694622812157816 5.0292393813359455 9.17273204969625
Bi 11.043662204161208 7.417192847963284 5.296647190440785
Bi 10.87583043957025 8.361168939853455 12.120939352402722
Bi 11.74624272001307 9.467489136971425 7.456444410270999
Bi 8.922087289403573 9.207043375287816 8.389831541695857
