32
Energy = -115.9034493 eV
Bi 2.65236173688568 1.4575044854879617 12.257989048259619
Bi 8.838796449261267 5.309254642844204 1.7107308629323514
Bi 11.600376343966348 6.638021552192286 1.6557093864796764
Bi 6.628219306706799 4.449458645978169 7.418310435395416
Bi 4.078117480706799 5.180312529761351 3.4281112494212493
Bi 6.415866826835301 11.603919068394758 2.1335079878599146
Bi 2.9737501566715037 2.336105330838364 9.341710551016638
Bi 5.25921352088673 7.708327822502994 4.674430528197868
Bi 5.676081797598378 5.886955720117239 9.963718268219182
Bi 10.593965124605086 4.3265179123932045 5.722105365015317
Bi 8.246423197833078 9.184445070846929 2.1205657173804577
Bi 9.70344436813587 5.846689612705492 8.95701876121907
Bi 4.52930684963287 9.092885587508892 8.570544469715832
Bi 2.6911941589409327 6.79002893058789 7.647907062762921
Bi 8.58200386080974 6.396639305867053 4.627450708610508
Bi 11.029895015038846 8.253287999988938 4.198684246382694
Bi 11.287430943956979 3.83087500133057 2.7602907653157427
Bi 2.66014116679536 10.541761927442343 4.832724360728188
Bi 8.00663075209594 7.895338332579871 10.386263803795384
Bi 1.7512738200862399 9.97768306310659 7.648034852913965
Bi 7.010474156269539 3.5647823906083835 11.419571615062432
Bi 5.2569783086914015 8.756922520935941 1.8322559157611276
Bi 2.190444806780322 7.422803430216792 4.715245331407208
Bi 8.854227974244697 8.37507828943779 7.467421769865653
Bi 11.759773725526273 8.010238414042677 8.4337363669014
Bi 5.257994635376702 11.009393115779025 6.31078986154101
Bi 4.662990060086054 3.4224977011823516 13.343402330723494
Bi 5.978169428087694 1.9234621485631163 9.110981201969109
Bi 7.874584329949243 10.94155136618216 4.691679562573971
Bi 3.863187715596583 4.099885387992254 6.207793041194044
Bi 12.749957892766822 6.46620036153846 5.956986246894631
Bi 2.4112598772581038 4.37570811912838 11.5288641125659
