33
Energy = -120.50750362 eV
Bi 12.562973239489015 6.750743762498999 4.968121070806911
Bi 12.39614440674159 8.718015966399182 7.315893987271513
Bi 11.320550801669695 6.711016594453144 9.340613535120047
Bi 10.423381783129495 8.787576096738222 11.355220365552018
Bi 10.675490392460794 3.2712375641852884 2.973119995882568
Bi 9.521252349533272 5.784060698785045 1.7463947680133234
Bi 10.77827380342941 8.220708454517721 3.050854126200832
Bi 10.777672054903913 4.440670628405035 5.816322928683641
Bi 8.487811299599239 9.50792594299231 9.102288586376009
Bi 8.555555584905436 4.334004347231157 11.020564824032622
Bi 10.029120945253247 10.54347440328752 6.644746536303782
Bi 8.605434162694692 5.786160943696886 8.215849976051619
Bi 8.172485545707605 7.0225960685905955 12.4774530930956
Bi 8.521493730195692 8.398217329241062 5.083084540266901
Bi 8.199810510891837 4.548398525512029 4.199094317089182
Bi 5.548365786583388 4.268302512529718 11.494845078619145
Bi 6.248259125578132 6.995199295152748 10.079734821712483
Bi 6.518118231546412 11.803873325555807 9.64260980474405
Bi 5.015851125397444 2.5095474421545094 9.06461411544718
Bi 7.254021521012768 10.099566665121273 2.800794643420311
Bi 4.444593186876188 9.613066284319968 10.223547574371104
Bi 6.157124365800546 10.732131682923942 6.77123407493506
Bi 5.398169303199747 4.796082209413843 7.03073407649454
Bi 2.778972680165688 5.770041447252088 8.302075470028342
Bi 5.655946381892399 12.272461443832512 4.187348051009004
Bi 1.9690802444578765 1.7711488941480118 5.987771681779896
Bi 1.9755729437271374 2.897047045532167 8.804589225303943
Bi 4.23114342348003 9.803411772558336 3.1396870852428256
Bi 4.438884237978922 3.0203548568573755 4.739460268386611
Bi 3.3067337824211545 10.027271086482996 7.3997041481764665
Bi 4.209321394066482 7.803800476287979 5.520149641582344
Bi 1.3911472887404945 6.643095629230845 5.747549173722146
Bi 1.7086127555522501 4.1181043353214335 4.090206574290845
