35
Energy = -126.35251644 eV
Bi 12.05158683160969 6.901335283797317 9.428727045267948
Bi 10.894109842020322 9.739503474675471 9.689816441815422
Bi 9.86963526463136 7.978067718069816 6.3684548614984156
Bi 8.155677486408807 9.581435217434207 8.333309696948653
Bi 11.67029482493872 4.616487344720579 5.208307683007498
Bi 10.076503026931835 5.265131265544133 7.750793303569277
Bi 7.1297253873871895 7.088956443938618 4.9292002528642245
Bi 7.566302184244116 3.487243003687624 10.014967069057787
Bi 10.035300644959436 7.5313626899486685 11.60909391897413
Bi 7.65240063212735 6.8742087669724485 9.7644345669986
Bi 9.803076455806842 6.050851250969912 3.232930076807656
Bi 9.288967567636579 3.245169083376815 3.9575480170229547
Bi 7.111422357572239 10.2082347428386 4.5595081639331125
Bi 4.527404622517543 3.758766632347349 10.475137376196583
Bi 7.39759918503645 2.6184846520315115 7.0251522835769435
Bi 6.93137604018468 7.749182440679903 1.8318654621874435
Bi 7.857040255234072 0.5195804294750405 9.196498136564776
Bi 6.489082259560557 5.001471718798666 0.5611905939354803
Bi 5.827130385629434 11.741174833626433 6.853286970455445
Bi 5.252764683552904 6.687995217113007 11.580717039318172
Bi 4.844626730427276 10.9042851099285 2.5965769077021488
Bi 5.029140371220823 1.1201732160273283 8.456001206613687
Bi 3.0881414637598117 8.316957325763042 10.229621578186178
Bi 4.77854437595214 1.3778078769946618 4.907845771798886
Bi 4.184510002492378 6.7918509902017865 1.0415829854063037
Bi 3.691920196929846 12.67816249631632 4.825763700278283
Bi 5.759040317554377 4.019796079425876 3.465424226359079
Bi 1.925671010125244 6.658588782473449 7.9163241411015255
Bi 3.383907056470615 10.093957097975148 7.6805808230913835
Bi 2.298172797806483 10.073821669263973 4.009691016896726
Bi 4.457167180208495 4.980740617460138 7.688069774027917
Bi 3.7218114322849614 7.923758065282426 5.663798373770668
Bi 2.7353118190354713 4.813316021781469 3.2560613179135864
Bi 2.6637699511417865 3.176732843673033 5.987676287558962
Bi 3.702922205686761 2.22036073437238 2.0422651370795903
