30
Energy = -109.88598919 eV
Bi 6.48277904120282 3.670662301100676 10.224315304854676
Bi 10.336527534210905 6.118110086255344 10.945165816543085
Bi 4.122799268845454 5.380641973951493 11.260199149601029
Bi 6.248298674168467 2.291624199754584 7.466090983972271
Bi 7.699735443649907 6.353584586968925 9.391969450757943
Bi 9.634054806628322 3.23241228878078 4.0823190584032405
Bi 6.2756724528899674 7.439562070091736 11.87359569797377
Bi 2.4099195874345023 6.554680290621907 9.022289499935345
Bi 12.488271854297723 6.243424154026924 8.789818448550024
Bi 7.5512350041652 4.59154872025914 5.885935182151686
Bi 11.718556762302068 8.73903752809924 10.335672779730167
Bi 3.453748927508905 3.3391147035756683 6.868503393873635
Bi 6.620020387753682 3.5103893401990196 3.201897211623145
Bi 10.146034470764308 6.906438579019312 6.875871846146461
Bi 9.669315736144254 5.615199102463587 2.2825896022889283
Bi 5.433735666805737 10.076700687674661 10.541103860900657
Bi 11.07186617587329 9.705104670262195 7.473770830668092
Bi 3.633234742669077 2.7492680790823236 3.877199396161413
Bi 4.4597021467521225 6.209401117494231 6.840640670011979
Bi 6.503784003595818 6.330711834210832 1.8509598344660347
Bi 10.882197561888265 7.767518656861549 4.050562979234987
Bi 6.482476856245626 9.254539637273712 7.77858083655424
Bi 2.7038371809235486 9.572350505959491 9.317883536832149
Bi 8.542035831750765 11.222435464805258 6.7096142588990055
Bi 6.466609959753646 7.900538648463825 4.430292444166899
Bi 3.375805638364218 5.368886821632387 2.5071909998794104
Bi 2.3476942973679322 7.044384484610681 4.822612042906707
Bi 8.68607128299171 9.921924252201926 3.907109642453232
Bi 4.080685995579808 10.805169297912363 6.821462569958744
Bi 3.9087347695890977 9.520077978503387 4.0002247326180465
