39
Energy = -141.54334382 eV
Bi 11.207599141083225 3.236203817825607 3.0876764840799513
Bi 10.541317618474809 3.1053103641400144 6.062646732302438
Bi 12.613102674660317 5.928628414526639 3.491463660200509
Bi 12.452157934801155 5.456124620351047 6.501227768257825
Bi 10.911220719924541 8.17325899787938 6.720072228327799
Bi 12.161507375200458 9.915556831119787 8.97066285723376
Bi 10.158886415972127 12.151251515543263 8.652261116077712
Bi 8.910078722207459 4.734782833554795 1.7311295494277845
Bi 5.852516564309128 1.439188946726019 3.8526252411790436
Bi 9.716403485492304 7.153988548952822 3.404003126835461
Bi 8.152105273860615 4.458839830350617 11.683323180182303
Bi 7.862416569844554 4.572591453010827 6.188039132860443
Bi 10.129793616588284 10.465519973982532 11.150883356830068
Bi 8.544352315966426 10.29480301336405 5.531736937483226
Bi 10.006131498545164 6.805475671428166 10.92635011441386
Bi 8.446987357967192 7.449783332077561 8.370761556681058
Bi 6.6111120579389 1.7275352075762211 6.755113947248933
Bi 8.988410442857967 8.969805687634464 1.0733366693524082
Bi 6.422435736533121 4.443535168115966 3.460065731416297
Bi 7.659309004404541 10.339833326443765 9.197864145520771
Bi 6.658823063221228 7.886518208674318 5.003709509524592
Bi 3.7528218656088677 2.3221492529069487 5.867807972932926
Bi 8.925230035848568 11.54720874190394 2.727775495070815
Bi 6.091976066636546 4.995674475106505 9.433310641336414
Bi 5.477457778328299 7.847970044770678 10.54800633809452
Bi 5.865582513218992 11.586742147658622 2.642075748763322
Bi 4.3362381064788975 5.329103583493879 6.275586858924112
Bi 7.620601555905068 7.249030774472854 12.737681528629333
Bi 6.30694073307714 12.399632537808762 5.616165882395645
Bi 6.116037246416529 8.54582526999027 2.0645032494087663
Bi 3.8127578948210528 3.856797909983472 11.456082503729851
Bi 2.3503625785513385 4.661628003723302 8.73806278693307
Bi 4.575409885815148 10.88820758650324 7.567729022866795
Bi 3.9232892483306547 9.412760505763211 5.076069387596196
Bi 3.8156873295192746 6.527699509132762 12.853564831101426
Bi 2.324810463916929 7.718490666989453 8.819038061972407
Bi 1.9034093024334082 7.159238599808708 5.845604447926256
Bi 12.613102674660317 6.2188957543653665 9.631091203077327
Bi 1.0906260350110508 5.370547759745849 12.23866109167812
