36
Energy = -130.22485939 eV
Bi 7.937961191511009 13.33593358965255 3.495156061910481
Bi 11.26267173801394 6.804943748755969 7.162549312938182
Bi 8.04446630930999 5.907531055353522 5.4757048698154245
Bi 9.585816693585368 13.802308402101005 6.012418604784113
Bi 12.987159141347886 8.536258261674947 8.999762012172008
Bi 6.8444298750643116 6.654387842614073 11.238452896650783
Bi 9.534748244745678 9.512978450050847 5.443699418618156
Bi 6.299192042748247 10.930435116841027 4.428464719632284
Bi 11.704173810659135 10.779830889754809 7.312539743733282
Bi 3.69145496960489 5.168640162108113 5.77230155330808
Bi 4.288146270832514 7.809295516756713 3.4502342159649735
Bi 11.810330420053909 3.8865361590130467 7.532782815355687
Bi 11.268510419394422 5.9790662551887825 12.468148620737312
Bi 8.539177597990856 4.756351855035253 12.918752629380252
Bi 4.710174394104146 10.421749604733613 1.881977772389202
Bi 9.591778122396759 3.205641855631345 5.531741280325201
Bi 2.882150989719674 7.695969580960468 9.714023849049456
Bi 2.2164824085460917 4.811419042318604 8.332716328622938
Bi 7.597767184982755 9.413150800615737 2.114445594891048
Bi 7.347004968226167 9.385891049939529 8.91895262793448
Bi 4.793544087059683 10.328985696744617 10.198900807952414
Bi 5.171203066442357 7.346029658860207 7.653477178477617
Bi 5.256078101590943 2.1479286582392305 6.69941117245746
Bi 7.63186269747838 6.357569799883173 2.4539131591598338
Bi 10.363013162254541 6.966344313586241 3.791551422897228
Bi 8.10289890713136 1.6821679821678317 7.757209057718757
Bi 4.22189571378167 2.7845687580236884 9.506941960896093
Bi 10.310801578652702 7.9001210528571235 10.280293596068752
Bi 5.5320890473044395 8.930348393916004 12.814450455542037
Bi 9.912669185260231 4.759409624768183 10.014728323942887
Bi 3.498450257288513 9.307408753770563 5.99795901220858
Bi 1.5917021198872663 7.251183016352623 4.817020757483265
Bi 9.113597504153208 11.951495328205336 8.399106597757882
Bi 10.606289449211573 11.90315972348762 3.8430423177123134
Bi 3.987581556351036 6.359276598092933 12.218739726372737
Bi 6.6523048321651 4.2639334157349404 8.453781476439943
