30
Energy = -109.24414941 eV
Bi 12.457481952632905 9.016065832390138 8.198830532294023
Bi 11.409785901384216 7.871526341248519 5.597707713482449
Bi 8.557993346289345 8.840662337627736 5.37746316417756
Bi 7.550666941268863 7.961412505118866 1.6868629386878786
Bi 10.321317893098927 10.798146163742409 9.37360676693107
Bi 11.469400983452116 4.79740191138305 6.116534837971871
Bi 11.87545261920137 7.388582179546193 12.556388885259869
Bi 9.927524806482285 8.238046146586981 14.978534952580409
Bi 13.072501955666358 6.544980841992279 9.879856280223281
Bi 9.956533751835547 6.223752842652764 2.266937752987169
Bi 10.954000061486434 4.5134069874407725 9.106041768772883
Bi 8.286585972571 5.721301930309132 14.940085693454257
Bi 8.956419331995884 3.9430173055189104 4.776058242067184
Bi 10.12297372395463 9.840403357894411 12.256447708493221
Bi 9.241322864462434 6.987699705228745 9.061815690999936
Bi 7.202205963712259 6.113267044203969 5.819537057327935
Bi 8.899000835725678 7.0637735524738305 12.086717328253188
Bi 7.692447004324148 10.313427854056847 7.881263306313834
Bi 6.482323998602826 5.667719296165447 8.714273579085281
Bi 4.583698435261444 6.947615088544176 4.478168190135306
Bi 5.566998936442903 8.482563973474798 9.167198566935689
Bi 3.1129783322107683 4.35855335569937 4.990381186783075
Bi 3.7392857710403744 8.849751118115648 6.731631232829223
Bi 0.5488024276506507 5.547297726649555 3.9899686203371645
Bi 2.7507103460741824 4.5201853815558595 7.966233879552973
Bi 1.6780294616255191 7.303189110684833 8.32357339341312
Bi 14.720799443131495 7.438926929229277 6.175328819292523
Bi 14.026415687025045 3.2946261469732696 5.2180835111084845
Bi 0.0435135624147874 3.1036502458868265 8.010025127454284
Bi 13.072501955666358 5.197994871883561 7.423875478680882
