31
Energy = -112.98917632 eV
Bi 7.01125527526017 11.59320804488056 11.533918244735487
Bi 11.815430033068413 9.569774546183117 8.153611703788696
Bi 10.561079670863718 7.080458580868712 9.388835586007767
Bi 7.986129323928555 8.866283678380073 10.21809147832296
Bi 12.98054546516641 8.586302886394638 5.463784318418863
Bi 5.506585605157599 11.904153601005314 8.93912033484155
Bi 9.108805465540943 9.870695720832789 6.679271442338151
Bi 7.17257450723041 4.685650599678669 10.46655923309025
Bi 4.079883833531688 10.920309259083583 11.451309775662425
Bi 11.041524282865254 10.697462975849009 4.499779915022425
Bi 9.027320529012462 6.782678408665729 6.7729743743293165
Bi 6.283549895911264 7.116328097952186 12.068482626509782
Bi 5.838012637815114 8.935775881451947 8.000894689582083
Bi 11.367202598151332 6.078788209567565 4.986355418585061
Bi 3.9791604797842233 8.035068840875853 10.318056800702076
Bi 9.734689365910556 9.59127711036226 1.9954429064892545
Bi 9.708931004453337 6.616383568198754 2.4870258510556296
Bi 4.853036338306021 2.7289296075081353 10.930762706679225
Bi 5.91569364443291 5.320499028802453 7.727655846600334
Bi 7.479440025401978 8.341756808871843 3.6305690073256165
Bi 7.237495485510224 2.7093076967318264 6.837523398925786
Bi 3.2935462865484904 4.4417281695121416 8.981449647996516
Bi 6.3807435745284184 0.8492659245424401 9.102957331428877
Bi 4.038277054765436 6.841729456697869 5.08608008889581
Bi 5.639316383919418 4.566550886631099 3.8140180925172595
Bi 4.9180925689642825 0.8243032833089324 6.459313335054099
Bi 5.8592111278753265 8.265013498171744 1.0580566904868796
Bi 2.4176338234475505 2.4522549126657696 6.899619084648114
Bi 3.1257476766061347 7.764736575799221 2.2783673887710307
Bi 2.685356710253468 4.201989016052356 4.377549266498028
Bi 4.694758316883233 5.46634254445553 1.0323847501076502
