31
Energy = -111.39800464 eV
Bi 8.822275186358862 5.449645053454778 13.439935142181286
Bi 5.722247058352922 5.484161593587725 13.144444521166736
Bi 8.800230017736562 3.3362997342365914 11.33396187353435
Bi 8.185648674451892 6.911381522789471 10.797259648345475
Bi 11.500455448053279 3.9387665504815597 10.115136942442712
Bi 8.499241896936008 11.81167487173312 10.880453429703392
Bi 4.783714679244674 8.394088696807554 12.548182650470308
Bi 5.946118743880999 4.8890508639029795 10.138099461837118
Bi 11.003477381385043 6.847357415005448 9.494448801281012
Bi 8.182645952373253 4.3391015639493205 7.192774670574956
Bi 10.613916036642795 2.5014273290693647 7.39049685046807
Bi 10.803812376767567 10.528953047418812 9.38228525449273
Bi 6.507944535589544 9.549905473125445 10.28497488441859
Bi 3.5465735860404624 6.921420456573687 10.21608805105104
Bi 10.945233263584411 5.544244406672021 6.63872955953773
Bi 3.7828180227082284 6.72068194582732 5.163556133036
Bi 6.26438566763305 12.8652872818326 9.134837624029018
Bi 7.410907045702984 7.671926513751858 7.01175613951217
Bi 4.472293719542959 8.533316233057953 7.630680157613083
Bi 7.954997486300851 3.7282983668374343 4.133687923385437
Bi 10.110972558545484 9.183817962243843 6.736810832093986
Bi 10.785197313413246 2.615868505568953 4.091914002039398
Bi 6.674276374135246 11.561899254043082 6.352478336501746
Bi 10.327806131900681 5.437127422791013 3.429561659545113
Bi 6.52265885857324 7.490330625501429 4.094066012764611
Bi 3.690941840232053 11.162141533516866 6.141850220121201
Bi 12.080055533405906 12.625825771024273 7.501605902094768
Bi 4.0906233680486626 9.352765161353306 3.707487881471135
Bi 7.102073417148153 14.551621615110655 6.770360305004896
Bi 10.04918949395642 14.334899885000539 6.087588971558722
Bi 10.734598023498478 11.63404303587406 4.93181584986661
