36
Energy = -131.30617414 eV
Bi 11.856544941567527 9.336071875966939 7.124485213294028
Bi 11.711525970589959 4.160845107994768 7.135467337303666
Bi 10.724159411919972 9.589940841377985 4.283779683333733
Bi 9.07534982992552 12.181388515335499 4.22927313763105
Bi 11.167099004498807 4.390271513998843 4.146580247734248
Bi 10.561932831415916 6.6738511814543235 10.444252354454221
Bi 10.201869926083372 6.76639651868717 7.414589386567543
Bi 8.39016852541003 12.802563044525376 7.110933921165085
Bi 8.55694724555972 5.534433899365175 3.1725586220411817
Bi 9.517996274111168 2.766457241591675 8.71895835573764
Bi 9.029286447651712 9.949526151619741 8.05624636362323
Bi 7.191356304489733 10.19200592336224 2.8155066657158394
Bi 9.39444705003061 9.445826312179543 11.051236080270549
Bi 8.146100922315892 4.798294452974907 10.581188391069299
Bi 8.105648980040305 8.090619718598758 4.830056311436577
Bi 10.341204262862284 1.6564722078298992 3.1260679675789644
Bi 6.397578890598185 3.9535208117697973 4.555842899594286
Bi 7.216899485526946 2.1218354530746395 6.875263087138941
Bi 8.64212374321773 0.1094921043324627 5.0812587301497105
Bi 5.961374678143243 10.907566316077151 6.670624752140726
Bi 5.3186160620935174 10.963681544262048 9.711258776105261
Bi 7.323732793585051 1.610310139577498 2.7718664861414752
Bi 6.498683735349761 6.684779463185454 8.796856789045355
Bi 6.474220397433785 8.560181997794244 11.185705623283614
Bi 4.710547859719395 7.578317871624577 5.99273832301953
Bi 4.365239889439333 8.926416753249736 3.2903140325523474
Bi 3.0148882487946445 11.899113100495443 6.624206032502756
Bi 4.233386845956923 2.9490318529279205 9.015195547879365
Bi 3.194305508377334 9.375291433133285 8.219500733546878
Bi 1.8522489926986612 10.28428314550439 4.298557767130954
Bi 3.325819078083522 2.58134717033307 6.149221497016669
Bi 3.6744992078356575 5.810084029228045 9.845140692557216
Bi 1.787356111745714 7.283570502326735 5.184980371585681
Bi 1.5286398174039284 1.6579135174807054 8.432842491424186
Bi 1.1892147440461676 6.486894181741756 8.164401198958084
Bi 0.6362178690678824 3.924465699168407 6.630878784093273
