35
Energy = -126.37227115 eV
Bi 9.36335509407738 13.455908261150574 6.19280247823387
Bi 11.818387120030339 12.557324291004784 7.731233800560557
Bi 6.443020154863956 10.779396648487172 4.412219135585193
Bi 10.688885737544565 10.823992748412177 5.464041862818842
Bi 8.091545087369472 10.793585750785795 6.9905060910323735
Bi 12.055942201647818 8.98165995236001 10.980509991333223
Bi 12.210279424074256 7.580403010677631 6.017632310887851
Bi 8.137875269369975 9.095417636849536 2.5629237213049656
Bi 5.274987706810189 8.076550315477823 7.710718537945204
Bi 10.833747127887074 11.70059291485593 10.480668091691205
Bi 10.301952902655936 7.191975845717491 3.689582325823686
Bi 5.911710887341654 7.775332270323335 4.131262009724845
Bi 4.782929249376005 7.703635970558978 10.724332215498166
Bi 12.182033056342503 4.5096971735432465 5.431247166342881
Bi 3.5357187288169483 7.8708756169669165 2.2747648970921306
Bi 11.248927211830418 6.7315638812931065 8.784746623656195
Bi 9.435789869668131 8.367833721440732 12.428111489865438
Bi 2.3166249628711046 7.6371950644443345 7.017947713950802
Bi 3.1328353732639536 9.698375716726344 9.13652351061596
Bi 10.03543524354575 4.038997630866088 7.561420481336602
Bi 8.409205967481121 7.484030339481798 9.668824103791687
Bi 8.081493688051465 10.388590818496096 10.573396881784033
Bi 9.184207482974596 4.555021233198375 4.699479276509084
Bi 2.5301966821973423 3.6131803883760623 1.6256992658701128
Bi 4.7565857541364736 5.5003387192682025 0.7786478828533356
Bi 2.827229661835235 5.415083755306615 11.153615972568472
Bi 2.4856412742518863 5.55319757086251 4.016341214105315
Bi 1.4868434651071372 5.125979771035281 8.480891087591754
Bi 7.220412324742063 4.157749979230292 9.705455393414328
Bi 4.809815238188986 3.1141954278608246 11.272083518797178
Bi 6.08630721951029 4.578003073209509 6.892925837646603
Bi 4.96570110564603 3.8569580743877054 3.379673201028472
Bi 3.3189708409180265 3.3069179583470603 6.886376527617089
Bi 4.186948201847335 1.2532811470893555 8.958487781592098
Bi 7.021891078573582 1.774904229959888 7.768512952697404
