36
Energy = -130.5909295 eV
Bi 5.264432161053354 9.30386950002257 13.507940790633334
Bi 7.789669485508961 11.01441730207295 13.286538584924699
Bi 3.004019553361485 7.428469932095618 10.402537234707689
Bi 2.003795255426303 8.69044904735662 6.438619888403135
Bi 6.774502271184103 6.662879322333939 13.208439891290809
Bi 6.096934578860633 10.537253178865232 10.837231669693766
Bi 3.0436319124870317 6.069673327799029 7.646722861000585
Bi 5.477440312622353 2.781087333234729 8.171253281981238
Bi 1.9902789097329416 8.352717204680559 3.3941856190607407
Bi 5.0934355181144975 5.317291438020544 11.004506143683697
Bi 4.412884491925753 10.582667878818706 6.329368639841333
Bi 5.58380375902222 7.390947684192633 8.818984987250378
Bi 8.412062965185832 8.615024676138098 11.44926063424225
Bi 5.427645786300863 0.4649551735847428 6.102269671246278
Bi 4.20291558473875 4.259380571270875 4.681176804651487
Bi 10.572435345091558 3.4558769230287583 8.022267907720916
Bi 3.8661241804637223 6.2263473713330715 2.302476502564558
Bi 6.753843561243006 4.828062938831708 6.270339093800164
Bi 8.09081386106395 1.2566162770265141 7.766628523108835
Bi 9.08168197020456 10.379692128276101 7.8731219278554
Bi 9.416437335004215 5.826833016255248 9.566429189036505
Bi 9.44976417082392 7.4001488214791555 6.874823269747838
Bi 11.365298266390841 9.951868045851604 9.90060200878133
Bi 6.490962010364724 8.532540035585294 5.540752415462667
Bi 3.499297257410622 11.03362681695962 3.4285232876353717
Bi 5.665469435239491 1.8273831843504864 3.4874707673613465
Bi 8.417014950609055 2.551719920071567 4.966632583661078
Bi 8.233196093893682 10.700193273451681 4.3007970578891985
Bi 9.059942390015536 6.098740464815518 3.8551672429905963
Bi 12.141592338830971 7.084849786995539 9.224478115963567
Bi 11.980777951243967 10.867702853601328 7.040255692167715
Bi 11.191660964476984 4.291767214924831 5.232046935099436
Bi 6.47477737123158 7.698912129886591 2.5851566892094313
Bi 6.1236209581677645 10.650397080110036 1.938945675528837
Bi 10.50439561477721 8.699963091883374 3.445681281681312
Bi 12.335435506254205 7.96182075349331 6.019547243578705
