38
Energy = -137.77471212 eV
Bi 10.1220177784112 3.6924687113709385 1.2307957271880476
Bi 11.54619732383917 7.12232111711012 7.8284022504224104
Bi 4.23267265943127 5.570479090108545 9.50890051790786
Bi 3.898854107450722 6.633489397473596 12.416007163580868
Bi 10.034249642600576 8.850478431046144 9.814229493323586
Bi 11.669069591842124 3.0001869081590278 3.713179737607936
Bi 7.193899047870979 7.430263679928186 9.517037030463513
Bi 2.9041345744823075 3.775049614647327 6.666200230628687
Bi 7.338538081821761 10.713361889475324 8.935046867136345
Bi 6.50543641940684 8.212484888654371 12.391957633037105
Bi 6.661167476519615 10.941901943786439 1.951584907986234
Bi 8.101303855889789 5.3156845811009985 4.781100733330856
Bi 2.1600162737788597 7.9009513298691045 5.677666040435478
Bi 6.49759541606979 9.180672591892469 12.416007163580868
Bi 4.392832223013037 9.154799019896688 2.971565049405523
Bi 4.168945191662123 9.29617276417277 8.747734512142301
Bi 1.8830702480518506 7.3523772794037265 8.698668755320407
Bi 8.017121386191533 6.894024617449754 0.8815827111704372
Bi 9.294230073645755 8.64210843672349 5.396177174415783
Bi 3.5535226614291595 2.7038191489104775 10.568173879471503
Bi 4.153091355820885 1.2238392981564659 5.707458928766661
Bi 8.64865294839347 2.5073098953156743 3.6283311640255698
Bi 11.733500987993102 5.492679065549922 10.475944661496289
Bi 4.981936875380217 7.011560764392119 0.9297064811030236
Bi 5.962348250273689 3.4150698050926236 6.827811864326021
Bi 10.190774996294818 4.555789531058324 6.903610644999365
Bi 7.093710815973701 10.699988861508071 5.841774350980643
Bi 9.179733178008448 9.290782412114364 2.3571512784556616
Bi 3.3074536305271236 5.5017891595787916 4.183639422834345
Bi 6.221016176760501 1.8067367186230017 9.528956923419221
Bi 10.02695107129544 11.576731799698361 5.588494127416886
Bi 3.8630449541309524 9.59476741225593 11.7642909550024
Bi 3.719527855146607 0.33845796746978635 8.631176230886506
Bi 8.904139010204425 5.641079105733749 11.580864306003944
Bi 10.77724404717769 5.914691628185283 3.264062718329207
Bi 10.218750314727776 11.698488607231862 8.642612062920675
Bi 9.60331173378828 3.401575075233912 9.709214506576938
Bi 5.186479764084668 7.569603489227806 5.469932882899575
