30
Energy = -109.15748859 eV
Bi 10.355263809158874 15.332724565188594 2.703881822781988
Bi 9.17651414572568 13.614123836535061 4.947098907493477
Bi 9.925760246786815 11.021126941300523 3.6929600118072172
Bi 9.295512584102974 13.993841772501087 0.23214132199988474
Bi 7.533805212743596 15.956593007359249 1.6989821762561055
Bi 8.45233256533842 11.17044905784088 1.091911786372459
Bi 6.363177543687844 14.204126979325505 3.929090791222885
Bi 7.87622732930496 9.135155024667286 5.302218383243658
Bi 8.42276391134267 7.823007337219915 2.617670466090337
Bi 5.698953753415193 12.013984345423578 2.0060119952114186
Bi 5.237865593028632 10.550841258894177 4.609334630802512
Bi 7.412220840521244 4.922578565611611 2.419144596109523
Bi 5.691145041710059 7.223446659255689 1.5173861767872738
Bi 6.348347698320563 4.568393928207801 5.225754522320222
Bi 5.314510503077254 7.128566621388126 6.312838186348892
Bi 8.583855114033184 3.7746608990336883 7.127230442859863
Bi 7.121768869545466 5.264233464328238 9.29865555721696
Bi 3.8333881753397896 7.900877637606693 3.8490886022821047
Bi 5.242266974174748 1.6818222946894386 5.125181268864245
Bi 8.612344901025965 3.866339290570896 11.540488849351703
Bi 7.227212325588939 5.391021723281342 13.715776863080071
Bi 7.399218483212251 0.9457623475891549 7.17768511438102
Bi 4.311865931305431 4.0904771080616165 9.29733517670353
Bi 4.552624350109159 1.3382212533922635 8.048800538783794
Bi 8.200249722015275 3.3796321357332912 15.791507354921723
Bi 7.103534042117616 1.2750934512063965 11.524610118611061
Bi 4.422926312872293 4.232411406212736 13.931358235258532
Bi 4.255552425146392 2.2089843051097073 11.726089179582939
Bi 7.563982059415955 0.7230451496941906 14.481692308613626
Bi 5.382331892237096 2.185979989175785 15.975596971044903
