31
Energy = -111.27329001 eV
Bi 12.00116461523318 7.656369446262273 13.476928135852406
Bi 11.538765650134351 10.629215050976692 13.27827084847839
Bi 11.225009966580947 12.234734216693083 8.94766159728399
Bi 12.201173554409825 9.034269258402986 10.786488583431277
Bi 11.992390882750254 13.109108050357493 6.150829691120237
Bi 12.547927940615281 4.91460178325918 10.50804254719847
Bi 10.945576735693251 10.310409095955244 6.6166749179854225
Bi 10.857457515773405 5.980489905647839 8.196220777198203
Bi 9.500454018919553 8.717823984663736 12.076233555644263
Bi 9.0685789593547 12.683086227549467 6.871425202818823
Bi 10.972618171078544 2.9925530950800696 8.72215392632284
Bi 9.517098651127531 7.388441804431606 4.865737432975197
Bi 9.536970529352619 4.8411637035623345 10.643956355097442
Bi 7.965099251484889 8.455333660237875 8.598480907975585
Bi 7.70960349483896 5.869470668375901 2.9450950322586156
Bi 5.913261547031133 6.934257820669528 10.255251369729763
Bi 8.247593927686205 3.274079124409298 6.0791037539049615
Bi 6.255412830332642 9.939607303329081 10.65467517948349
Bi 6.756053427616047 2.5479007022629467 8.605511923651646
Bi 6.831656696529785 6.0900742813013 5.932588294124138
Bi 7.574249224167505 9.730581650559472 4.4020207341526785
Bi 6.075980101881427 10.791816148421645 7.623354840314212
Bi 4.112474331886229 8.05825683659633 8.02543100856723
Bi 6.685001257180057 8.521426081747853 1.7402957765611833
Bi 5.797627647159439 1.4289341183693969 5.965536286084766
Bi 4.575985172936701 3.984209786329437 7.028226982941464
Bi 4.8570172568348084 8.221993000094397 4.152501859419552
Bi 1.9223454497724972 6.464693746729864 6.4718021961611525
Bi 3.876873702984252 10.896819019928273 5.334614008592789
Bi 1.2479969529689037 9.389497075097553 5.831144421425331
Bi 1.1601062379899747 8.378309055002912 8.683267555549719
