38
Energy = -138.01315437 eV
Bi 9.723601742620229 10.841877633917615 7.949713794075861
Bi 5.475626255499345 10.23335842274006 2.742378057001829
Bi 7.905998843237664 10.301314471927421 4.670909183204067
Bi 11.53252139020853 9.333257248531865 5.642532277828075
Bi 6.7415549160928165 13.151062106954933 5.206209693778391
Bi 8.9148593448118 7.717154129410738 8.939132466882985
Bi 5.032614655393721 7.322080176785336 3.5890438249462537
Bi 4.390149222784919 11.21809969060631 5.437388247769043
Bi 2.7328665272161534 6.245324047199079 1.9311006852659274
Bi 12.719402629506764 10.829556003557375 8.178125878576461
Bi 9.08734739114618 7.8250108857022775 2.559470680587969
Bi 6.074169778218915 11.089242934137998 9.167591587165763
Bi 6.080503004123914 9.022365764435566 6.8780272716619875
Bi 11.540666401996898 6.495313770343603 3.7387787439399753
Bi 8.143006308502398 9.786938081445847 11.03313545036317
Bi 11.982215988308013 7.900418013232087 8.273511009207333
Bi 0.7047331646594991 6.1488314389822705 4.189933517895118
Bi 7.83211328655285 13.29175266104311 8.029012114739054
Bi 6.989301380217733 5.663549364018742 1.9184023578756662
Bi 2.739407032661523 3.8858939808186554 3.807524955599514
Bi 9.054268465986418 6.74510101586058 5.475722876514577
Bi 12.121215376977283 1.4525477163441516 7.911773187118032
Bi 2.4196019693432165 7.557218688592338 6.341241772677344
Bi 7.266969834286208 4.328845438496325 4.653486778910317
Bi 10.724079800505116 3.9822977888307847 8.715176307058446
Bi 4.16720600402602 4.995501779933467 6.344079261916397
Bi 6.879412451286614 4.304483752929049 8.892615976882958
Bi 6.3807377878819675 7.464879228552068 12.094454992591578
Bi 1.7450893241875127 3.266632580811156 7.341940994977757
Bi 0.6103928647002552 5.938683861358719 8.214059220533501
Bi 9.52369893735118 2.2696099884268683 4.6415856922688965
Bi 11.800446703123608 3.883578809131078 5.8197205379643835
Bi 4.909326024704019 6.745693816450369 9.477325897828491
Bi 2.211779601024955 2.831960301752247 10.339866759645925
Bi 8.602010139010925 5.517317337834789 11.144286430130762
Bi 2.186895454035172 5.839916860870789 10.887175304024895
Bi 9.122476595053174 1.5499496996154791 7.606058993035618
Bi 4.896298034015901 3.98794513967777 11.18207184881413
