35
Energy = -127.90609992 eV
Bi 6.6534199292608 2.4147931824264863 10.20135739713535
Bi 7.883760370484201 0.739830955690125 7.9817535505953146
Bi 9.415731498802211 3.103374752232165 9.165537057716808
Bi 4.691416043909182 2.731171142742114 4.779861463332685
Bi 7.857347449735209 6.9087976312586195 10.00410340812585
Bi 7.369583588438318 9.70653630790656 10.979218216941241
Bi 5.106973214699831 5.735505616024847 4.576561585052955
Bi 3.3570210957150186 2.6556016665893787 7.498774163558003
Bi 1.1590231495723302 4.6701424656782065 6.818237788123415
Bi 9.752853328897311 10.53172220644013 9.257978875473642
Bi 4.553779558613066 9.913989009841554 9.78852815582665
Bi 4.69197933795371 5.552561594946383 1.5219841174833002
Bi 8.571724678383664 5.535380719730469 3.267567840024613
Bi 2.0318330771749915 7.54015562144378 7.312541560402006
Bi 6.170257268817238 12.552491961145464 6.025910468145899
Bi 4.250992661183728 10.188137109942607 5.4906026967579145
Bi 7.389920338302844 12.034315889739291 3.2829003072593816
Bi 6.500841835631761 9.126362619933744 3.6664621117774305
Bi 9.075949021540733 11.692084888169502 5.834333934709054
Bi 5.579312099206425 8.379582198918223 0.8489069648861339
Bi 5.068467357299383 8.015025816696637 7.479021624590081
Bi 3.9465330110255414 7.996048240154651 12.09783216691502
Bi 2.1101964393614736 6.354924064142396 4.48872526135658
Bi 8.770294766891311 8.693097175439375 6.494145113533936
Bi 3.9231631350309644 5.019039803794353 11.501056350321573
Bi 9.835975531138258 8.27537658341638 3.5859915641958167
Bi 10.801207814796001 7.893523089040003 10.352663157478387
Bi 7.480579319608057 6.040055232645372 0.42927734761232167
Bi 8.291722287496423 4.89333073834438 6.9075042749445
Bi 7.6807970965569075 2.3203808761969436 5.35903716021556
Bi 6.427036588693519 6.298532959068447 12.678908820080839
Bi 11.59262167233816 7.789324335568715 7.377168859464357
Bi 5.209046310418402 4.6763430725669615 8.74338457578633
Bi 11.6075062033993 5.7964938214351704 3.518102596733277
Bi 11.3438974500062 4.910013418637146 6.4228916468831985
