32
Energy = -116.96998823 eV
Bi 9.990483191064062 3.4500141877520076 4.6445474084076155
Bi 9.731869257321735 3.2627125321665162 7.713353497526068
Bi 11.656567975660371 5.624947392381567 7.575050372429824
Bi 10.708462736568274 6.395494166969531 3.9700151034399953
Bi 4.831821220936091 0.29692539923557854 4.588754032038861
Bi 8.244589363095184 6.391536875909944 2.1133215393226332
Bi 11.93114574624027 7.693938691868997 9.86783759937957
Bi 7.1488977974379475 4.471614934920436 4.2498618512748845
Bi 9.493526346312814 7.481744079750077 6.54410859143525
Bi 7.251367590738462 5.0243568906161 7.799547613431306
Bi 11.46054512466864 9.59759656419347 7.551614501638278
Bi 7.662627243549945 5.386857609209266 10.804655477612634
Bi 5.206665764483865 3.115737235369634 9.079141982095203
Bi 3.512320245676362 1.653446441566962 7.0044601357449405
Bi 9.468010760358835 7.665653563631409 11.646803183743826
Bi 3.098261946826858 2.22652111498459 2.9421643180168773
Bi 6.101720439404114 2.166043783675749 2.605795692635078
Bi 6.725412430168489 8.100908567309137 4.125053162875608
Bi 2.1883390062012795 3.852611764172149 5.393314930916387
Bi 8.211826665798522 10.357173099511677 11.146454814849486
Bi 9.456433267641176 11.59728553385633 8.655005365659505
Bi 4.976053131946302 6.761054928984951 11.226442856977878
Bi 4.120947495883078 6.125371914885465 6.099041098188891
Bi 3.259628059652352 5.448873876629803 9.019568209075304
Bi 7.946302271165954 10.917273024496637 4.150485561239568
Bi 5.930631178165724 8.940461431035578 7.556088934822552
Bi 5.335647535086189 10.333439391777958 2.651447642993608
Bi 5.334164414768444 9.691664752671596 10.399238568037752
Bi 6.928967250661188 11.718697398067006 6.9045787657027065
Bi 1.8035175786215087 8.082006008189543 5.7078618379144475
Bi 2.808278436725077 10.602320052935124 4.314125873815282
Bi 3.1937838649821515 10.274827954755356 7.308065456741572
