34
Energy = -124.2200358 eV
Bi 4.524320666330375 11.773572486279651 7.3059067632127395
Bi 5.26762469404162 11.602456321433179 10.24796135662967
Bi 8.791978077524066 11.688582786388139 6.571484277756024
Bi 9.978778698151432 10.265893583491899 9.008844912767572
Bi 2.8257251170795565 10.179786472402693 9.199211117266943
Bi 10.504023683775802 10.70465216239986 4.2377869028105515
Bi 6.553661588314579 9.627056116454392 6.59107532375202
Bi 7.4608548745642445 9.501874565279373 10.706458267944384
Bi 9.133889546611899 5.994011214611961 10.90886057315395
Bi 11.546827788338206 5.854104116411429 9.05998565246004
Bi 12.360766704175628 8.645279867714045 5.56747442818786
Bi 6.933150262268331 7.04340698921335 8.939401922277723
Bi 9.996763971527027 7.754896103134051 7.257841455965951
Bi 3.1868307016047352 7.07404229887064 8.681022800430068
Bi 5.7885398238170485 9.174976368330201 3.6830244293440813
Bi 8.601388994537203 9.043125355926223 2.4892101429661326
Bi 6.981207348701619 4.038094865368751 9.982713426343047
Bi 0.17267369354004475 7.03890954467796 9.243747466816153
Bi 11.953427027873012 6.33110220024362 3.565245341297595
Bi 8.997360044329998 6.471681585068936 4.001883746603276
Bi 8.02751408013997 4.395951044257626 7.10190041019879
Bi 10.764458429519967 3.2582852086346 7.664225744377252
Bi 3.492233234888232 3.8675981345364145 9.16596358779974
Bi 2.7513881033295804 7.474159863320236 5.724910662721683
Bi 5.62992893353514 6.451288274091517 5.2151436790794765
Bi 11.87581027231147 3.5268481556524454 4.844352459637392
Bi 0.46597442881765544 4.044016457977827 9.701842260637916
Bi 12.360766704175628 5.053286901906215 7.1462695526446565
Bi 8.183303782992644 4.570280294739275 1.8118239070621265
Bi 3.661467238183589 3.253185722337745 6.324824202723458
Bi 6.97521989084178 2.1808192209656423 5.298671742729425
Bi 1.4382797820536004 4.8340561104446635 5.058698084216891
Bi 9.451122751500234 2.290709771326627 3.3837924408009106
Bi 5.493762406831982 4.002917768992937 3.3193488902693535
