36
Energy = -131.21205667 eV
Bi 12.810650721626129 5.83822484505351 6.341912286637152
Bi 11.048854366891698 5.042714829093036 3.965324903675487
Bi 11.333104014421847 5.015552950273988 8.870155552367686
Bi 11.843599357103194 7.966967054978653 8.280791212221228
Bi 9.696951201971364 2.7414492886036106 5.455506209714718
Bi 10.968213354048263 10.75509888446725 5.648570207195006
Bi 10.997660049211797 9.212405990598567 3.0381075513551496
Bi 8.906863472456276 7.030715116542832 3.050903966217268
Bi 8.184844516384002 4.243312887344834 12.161627522701558
Bi 8.68636709310811 4.79704558431258 7.4099070149061985
Bi 9.354602934348 11.743860519014625 3.2681083599561034
Bi 9.109617892604813 8.894554718466447 7.294032722408986
Bi 6.894093397477624 2.1886630866594086 4.307677652348635
Bi 7.957121301835016 2.5680082033854656 9.341749335445884
Bi 7.896938198399228 7.127747006621894 10.877539017609589
Bi 8.758717122669898 10.093441230489331 10.097207487000789
Bi 6.392006992160271 0.8417333563087678 7.020203278604271
Bi 5.386673041862363 4.655704945881796 12.722001659167418
Bi 5.839262419812011 6.60843739918256 8.588669292983528
Bi 6.791710481508257 7.99569220092677 5.010305183372528
Bi 5.156848490065101 3.76801027918249 9.729297751825689
Bi 5.319751915758616 4.706093469863833 5.0493395218771
Bi 4.938699838645375 7.670798463811783 11.361854108385046
Bi 3.657278701741583 1.6686307260740314 7.832962090848189
Bi 5.881795633748017 10.688723803997805 10.56172057701408
Bi 6.8277471604429305 11.106985586211698 4.875646355888976
Bi 2.894126343087848 2.8962170244628336 5.1675846223958875
Bi 4.9348484135834685 9.88181105609199 7.780055406517991
Bi 5.428383885355381 8.204039558130075 2.3130287963283322
Bi 3.9816241725972557 5.493070711800344 2.3857176805298397
Bi 2.9778818645762466 7.114297282979596 6.368059639441171
Bi 4.2104473090359384 10.882463336558994 3.259376841363831
Bi 0.8349853622519642 4.985853810519943 5.985957677597825
Bi 3.123098107132214 11.656089842283603 5.989886348193448
Bi 1.879458644183811 9.561849970349682 7.7927618030229455
Bi 1.5796301577719898 6.862206600311044 3.694954047941411
