31
Energy = -111.07255155 eV
Bi 8.28518995544332 6.6550620900064485 1.792009214426745
Bi 6.700159658993428 2.439922246852547 8.387269658500982
Bi 11.322089600536557 7.28845040845134 7.147599433217097
Bi 8.19227394682427 12.555109249453668 8.35052486506567
Bi 6.571904926969927 8.555701883263067 3.3516925532670694
Bi 3.9140154806053253 8.229431584278005 9.183148495958823
Bi 10.143247555108381 5.99144793801337 11.744600187137117
Bi 6.149555123134781 14.175620884324674 9.878466765955272
Bi 2.043865300499447 10.120662391656431 7.847935636860944
Bi 5.238068691108933 2.110925317626552 5.767259255527119
Bi 3.5858661512098773 4.934434848305092 7.664787051359706
Bi 10.777190605472011 7.439449719168775 3.317745826539615
Bi 3.818147030547138 12.931813409945924 8.205331166897885
Bi 9.936921558209916 9.870692824865353 10.781715989958052
Bi 3.473584704118795 2.076296807208442 8.395860394407093
Bi 8.134443920778725 1.361035594033739 4.493950517258679
Bi 6.498681563726827 5.432720647555145 8.834346567828662
Bi 9.688630863025837 4.91724203151727 8.29064489681638
Bi 7.19443509109672 3.741325933322203 2.907821884131446
Bi 7.736291806293688 7.824805089164326 11.30287612810778
Bi 7.057682030646208 6.6704131716156905 5.90212192578216
Bi 12.048913773447786 7.771466092656029 10.106422379564144
Bi 5.713977732696548 10.552762442825884 8.078611641815087
Bi 9.681765492982754 2.1372998380159656 6.994275656173912
Bi 4.699585485150266 4.915672217157638 4.637785579344981
Bi 9.176018801382282 9.854104759089756 4.277090533462463
Bi 6.276629322864284 14.390391816676727 6.908013642879608
Bi 9.438012577358606 5.012193851071491 4.778875741700442
Bi 9.712840667528406 8.46656970816411 13.515630820931245
Bi 8.89766539460795 9.075981253006614 7.219831490455846
Bi 4.104771103599599 8.713419866676979 6.148180014636554
