39
Energy = -141.33003592 eV
Bi 3.1303486512707877 1.5302078802048245 8.49682978471544
Bi 1.5797751882109685 1.3744407569961048 5.876537148737509
Bi 5.936312706513045 3.3948418956624566 10.420332706681807
Bi 5.17329638388282 2.048535559224264 6.107929659388327
Bi 9.42637595862356 4.11081655111157 12.48188688708985
Bi 8.715720188891444 2.1674425764039436 10.228759472712488
Bi 2.3294985459601074 4.465817662038018 8.80442723910491
Bi 0.8912556001584662 4.327757162410531 6.100354784143172
Bi 5.862561858611206 8.109916607926005 9.347581708509738
Bi 5.215934395593072 4.678963022608577 7.71224234095364
Bi 10.30740083542724 3.368070476848064 7.956200981857774
Bi 9.594483738364294 6.829304177951496 11.146412109723391
Bi 3.1843271221335696 3.562234159717846 4.196280145411682
Bi 6.870444898589926 5.816520548575797 12.007739659700855
Bi 6.5694356752709675 2.917783468295814 2.4961008722644924
Bi 1.7219900944209048 7.883760166505041 7.0752608189779895
Bi 7.0334163288361955 10.742643880723312 10.354514776539071
Bi 8.438075285037026 1.839765545187763 6.085605086954424
Bi 1.5575142578029508 7.256077491141377 2.985857949719278
Bi 7.219620067848783 5.802472396004964 3.5336249217073608
Bi 4.036934190569194 5.245906520425311 1.0842260659490734
Bi 3.88911618359343 6.8870504505612224 5.089113862311143
Bi 9.51707266355929 2.5684667225225875 3.3669270912910627
Bi 10.026534261616865 5.318942530969205 4.696103980987879
Bi 3.786288680577284 9.943751734270377 8.071076659682468
Bi 1.567246124533066 9.814376030900034 4.649121119500235
Bi 7.425362717343764 7.026260404825009 6.898204234844727
Bi 10.132998838778297 6.418627566067796 8.188797904616461
Bi 10.057606495658261 10.33973246692264 10.389627786931763
Bi 6.665068532618957 4.309115275860154 12.48188688708985
Bi 10.365577424001376 12.83621283835405 8.61932659274313
Bi 2.802814433776164 7.912449316633177 0.24334844359470484
Bi 5.236250366736188 8.030001914805226 2.068202843755098
Bi 7.894126325860373 7.052289436038928 0.6881711852102922
Bi 7.655141640183444 11.866210806616218 7.5905677061695656
Bi 4.653629796065407 9.945308291347443 5.116564103833781
Bi 10.10910969866429 7.784540755729857 2.868966070258142
Bi 10.133647730214982 10.100592301071226 7.291127185787755
Bi 8.059887951797116 9.144994488137929 4.643453251390866
