37
Energy = -133.85116621 eV
Bi 11.237578028212404 6.141284720172971 3.2542879229919617
Bi 11.666807408102045 5.865734455906781 6.85380547497558
Bi 9.05110274139693 5.515085203017872 5.211499406784869
Bi 12.756219556151448 8.195308341778395 5.082727556287864
Bi 10.093684875779187 9.680400474793135 3.8299885683600357
Bi 5.006573585142375 2.9495429274896043 2.8251389985900413
Bi 8.673798906676577 7.570283317358914 2.162875391403167
Bi 5.52555729326585 1.662392261284419 6.390466870233635
Bi 11.700344067644128 8.677278691007709 7.977403529846038
Bi 8.933950996723993 9.907362584886066 8.122328406622687
Bi 11.68430776587086 5.207052945626004 10.2658627788405
Bi 7.93335847750248 8.52222642046981 5.516963802457469
Bi 6.293407684933153 4.408973951542992 9.154514756693624
Bi 3.432967030464545 0.8210905761639492 4.365338156515024
Bi 7.618001716393432 10.296655557328936 0.8749381773895515
Bi 7.251631872752557 11.38465736646015 3.6507311351248672
Bi 11.761412902012918 3.624113268988448 12.903006341172196
Bi 8.177251128135772 7.375211686615575 9.651638340886663
Bi 5.271346158447279 6.660137228183546 2.698382418050092
Bi 10.567379338027925 7.771371141071646 11.485806724451297
Bi 5.044510713436851 9.701276444048107 2.3644284186282354
Bi 5.429096916746638 4.69534016289681 5.346373770256569
Bi 4.873576606407343 7.745220855607911 7.558228587469683
Bi 2.1992312023893734 3.977715513946661 2.122716226591983
Bi 1.1705267717289145 2.8188571377245495 4.766274449407544
Bi 9.267571709082784 3.529305714087605 11.136059486870893
Bi 3.7449029159242317 2.9781038789613934 8.373208538074024
Bi 2.3721727094131273 6.7534143685976336 3.3259153710654763
Bi 2.2160774961144565 8.835216136154445 6.386118855359356
Bi 5.307243165380082 10.768240151660285 7.977299855158571
Bi 9.467497756057297 5.558248490991095 13.381155243007223
Bi 3.603684104342726 11.438491560542584 5.554217596269674
Bi 2.536697317281145 5.111110038759855 6.247875585615413
Bi 4.882152463057162 5.42824241179111 11.628845067587571
Bi 3.612471318019304 7.874116698321934 10.30557294638985
Bi 2.2946093167249333 11.256435586451346 8.292004854541105
Bi 6.225232817904547 8.178438562956366 11.839937223676271
