38
Energy = -137.87605592 eV
Bi 4.980046291223258 4.561267441187545 2.2336721177109955
Bi 3.2969865327895955 7.055010330371681 1.5097617741290217
Bi 2.3623647941152295 3.5144000459376334 3.235270176555008
Bi 9.121224474526736 10.945415965365394 2.1867744947748364
Bi 8.861406848492296 7.917914649044255 2.58651556388861
Bi 5.899881782764457 8.67064507751668 1.4619177781445647
Bi 11.430984652199674 8.475589496911663 4.137920595334926
Bi 0.8698082221773887 5.1602861236644815 5.480900543759527
Bi 9.507480727495917 3.781280741048786 4.11786996817075
Bi 6.14703385891348 1.9329176320673296 5.496081074726888
Bi 3.395012802976179 7.242180619145054 4.525721445688837
Bi 6.163968053542199 11.702449230468394 1.6971339252912785
Bi 2.4911759457700327 9.96200183681178 5.5728572531968465
Bi 6.492265127102384 8.444519788848343 4.665973329333619
Bi 12.099002994155375 5.499910582770858 4.16017573448294
Bi 8.842960038491745 12.081783704463325 5.05877568475415
Bi 6.675131777359743 4.868283706746895 4.895786248468142
Bi 0.3878533407824337 8.040121631401622 6.60671464259966
Bi 3.137472238139217 1.9265581373582328 5.771850812964731
Bi 10.351993586775802 3.281277552515799 7.048342836112467
Bi 5.896535064674345 11.449401070014035 4.750628614954887
Bi 9.603371909723517 7.532651716674605 6.354801763505611
Bi 6.294253302985771 9.79595830596552 7.880944370142444
Bi 12.066523276166729 5.810243970216165 7.2026184703183285
Bi 9.280691486890792 10.318800047981473 7.607146203995884
Bi 2.8658442472202834 8.589414007084665 8.289231103540518
Bi 4.922968485673137 6.3134311997429355 7.626578462546165
Bi 6.696101084878007 8.524975982066202 10.602345260732978
Bi 2.6074911416501565 4.197130154148627 7.7392364227556865
Bi 9.38082523738055 3.3698792817540992 10.933098433685272
Bi 8.150851341934885 4.797974660623587 8.532156791266795
Bi 9.412915994405822 7.5347518848737165 10.123930575949116
Bi 6.723695743946948 2.0528360719393497 8.526523296528827
Bi 4.541503149081689 6.103550895518321 10.743740469045912
Bi 9.399794895703836 5.903724750544618 12.684238405588271
Bi 4.548792006090953 2.9419197468213905 10.396443518950084
Bi 6.805038867381674 2.5737250500766224 12.452610002591202
Bi 6.407800297996619 5.516373732035393 13.163774188173052
