34
Energy = -122.94877365 eV
Bi 9.774070615299447 11.574186524810285 3.6850068557220244
Bi 8.18150872447843 13.366281875700986 5.537741479266754
Bi 2.1887269395957567 8.14677038083166 5.581888410147399
Bi 5.493806188375264 12.236670884720487 4.605117342577479
Bi 12.24795823104719 11.28214253752123 5.441378957375483
Bi 11.717727510141426 10.953614397262921 9.504926414745771
Bi 7.18358896450461 9.048973366822464 10.230213519723325
Bi 13.209580694002144 9.380421352562507 3.2433296420686544
Bi 4.077326021417185 3.149218581236483 9.004365551048773
Bi 8.586193151432635 9.08331555211648 4.909500818353663
Bi 9.148797906410447 4.834224520130855 5.957267500439373
Bi 10.834227755872321 7.475070722200587 3.313009614593785
Bi 1.8742615410170556 5.26311636998292 6.618625120861951
Bi 13.096309026792355 7.155787222497567 5.329516793190035
Bi 5.810810793089459 10.409900111075691 7.028690808724641
Bi 5.082153399698471 6.1511907659422285 11.258331444722412
Bi 8.693468493149245 5.213694001948855 12.378863897247989
Bi 6.53270382472187 11.959706909373578 9.55855492861679
Bi 6.994216490113284 4.320959054263334 9.681476231366911
Bi 9.613263426736118 2.5106675917090873 7.861357718880065
Bi 8.974220387078057 11.318473986662775 7.887025151981122
Bi 4.739868294368343 7.304698942597905 4.15684852380998
Bi 6.014007031080589 6.793968291427163 6.9486024916738796
Bi 11.94322341767394 3.7413489379625533 6.325485789042689
Bi 10.603089969403323 5.3180127917813715 8.54826477993913
Bi 11.304661103599544 8.915831722710239 7.167797768056217
Bi 2.2822494388833725 5.471442734087004 9.685647027372923
Bi 6.255017452992103 9.714075266986235 2.9719747227505664
Bi 8.38079983365491 9.902713659969852 12.88063860891879
Bi 4.660949563742543 4.135694895567173 6.169701766982686
Bi 6.159739994667143 3.5363752098251595 12.50206982814033
Bi 7.044439101173058 7.267547211130816 13.671984974385596
Bi 10.246317290341391 8.683206197809836 10.832519632320645
Bi 3.670226558058371 8.377432624414421 8.215529852491928
