31
Energy = -112.86899554 eV
Bi 7.660303638357012 10.324819842570848 2.966538791512955
Bi 11.41956920811332 7.613253712546248 4.3603097386023695
Bi 12.195790092004877 6.0192620310992355 10.88658169691654
Bi 5.835729745135554 7.335543012629106 11.858591507978264
Bi 9.982145617548403 6.485869152841386 6.831091297803795
Bi 2.4667404067325975 10.351050993086973 7.3360180329016655
Bi 7.9031042153320765 9.608833875602635 5.980836135132181
Bi 8.92826837721507 10.046137143999756 10.051875813982416
Bi 4.369217390699953 10.002993833448654 11.67153667647484
Bi 10.646441257814605 3.50839405503755 10.151829272363745
Bi 6.896546497387106 6.504895902891974 4.221317194983657
Bi 9.238801538567383 5.832132662622469 11.51301584523961
Bi 7.672024788534219 7.300630352393617 9.336640598699208
Bi 7.696383785103017 3.5199536038673496 6.083973278462127
Bi 5.561220669945533 1.6508192063371414 7.175095667749393
Bi 5.947357056122152 4.4078039929305355 8.415885532184168
Bi 2.0364021025669667 7.436455712599767 8.128769008244783
Bi 7.359007090739586 11.776336755109451 8.07950459353448
Bi 11.564902947161595 10.17148889364994 8.4947818174914
Bi 2.9499822140216243 4.990951415310642 4.622520038108711
Bi 4.598176404523412 6.564179392551664 6.695476002689504
Bi 5.273052191356324 4.34133484470183 2.7282599476281892
Bi 4.1232793946288195 2.210624990995337 4.565002970337006
Bi 4.668413643774732 10.483499517622368 5.192106690452702
Bi 5.1048553132596 8.605295308146475 2.8552885040579015
Bi 9.073812275684915 7.67473326944003 2.3591648555777307
Bi 12.55143572948949 7.319675761169237 8.163144347224874
Bi 2.8782915767153603 7.440651494571076 11.103468574601662
Bi 10.613952841403433 3.5206388657804215 7.109639367173467
Bi 5.113273810701742 9.74610628305284 8.722993341284706
Bi 10.848511242202603 10.3826271842356 5.515735923449015
