32
Energy = -115.36542234 eV
Bi 7.124004833368845 3.5299632663589775 8.156653161128931
Bi 6.698445938413994 3.9097985730716407 4.146801878536897
Bi 7.151052588061277 9.524837766315017 1.7245067725906642
Bi 2.418044957161065 7.191388026778053 8.491507660765734
Bi 9.104578108935733 5.662027969040992 6.650843295626659
Bi 10.154380796162076 6.041335408755276 2.6973639564048755
Bi 7.4489397594161675 6.844486583055876 11.659428699807561
Bi 1.199796911946871 4.6374468813516385 9.65255742483635
Bi 4.5367894691004205 5.183711040953024 6.040531255592058
Bi 9.559215534710185 10.630069910400836 3.3734610127953024
Bi 10.507299749867455 4.186202564848327 8.964071378176383
Bi 3.7111910413301374 2.934573706100706 10.146414126636394
Bi 10.907264384637203 3.9631012757872566 4.784693802764543
Bi 8.884103990022956 1.7009329232073902 4.870782038860156
Bi 6.430739668398486 13.585817521474288 7.8643820809399045
Bi 8.101352449171507 9.640981614647076 5.809926214648954
Bi 4.674375971647215 5.914767237683777 10.316574040611147
Bi 4.3501549138353655 2.3980826308910994 7.267811224262752
Bi 10.957302223768023 8.134234804404322 4.6042797367718675
Bi 9.856055600588357 10.171351358565769 8.264763356840206
Bi 4.701177807914912 6.487027094405405 1.8481372909605205
Bi 7.2024304782410855 7.110041788863824 3.5586532882702917
Bi 8.649920216389546 12.599796826710184 9.626154971451552
Bi 4.671537330202242 9.092458049691725 3.5372083914865002
Bi 2.019292292211337 6.928918815076978 11.46199761634123
Bi 7.8967998051512875 7.900271805531449 8.83637968256835
Bi 5.206821648826259 9.475022446429612 8.76059944437015
Bi 3.7096835716075374 4.019114510593405 3.3815292848619447
Bi 5.800405796914572 12.016230205496422 10.398819085707176
Bi 5.424193448148003 11.140361012811654 6.221265768586285
Bi 9.360888822189398 1.508866516567385 7.886605309569713
Bi 8.204889926003556 4.004116182490153 11.05000163542619
