33
Energy = -120.35251042 eV
Bi 7.3933339779912535 6.160719629124479 12.20536948136338
Bi 8.353928107079456 8.934252511515814 11.495427037781786
Bi 2.9108032645083273 7.000844659507735 11.81960792431518
Bi 11.370037267209936 8.925229520630142 11.286477822806534
Bi 8.783807651464011 4.329254980688546 10.219157200032154
Bi 0.5889159043328301 5.541357911778002 10.589491211722226
Bi 5.297819760246125 6.445100617412625 9.987069990142267
Bi 12.091462768891418 6.68423886400496 9.311947714413535
Bi 1.2102917916552514 8.36944006567967 9.70913080792081
Bi 5.867175536902891 3.4665002055683707 9.689071563172714
Bi 8.091389475498266 8.831617085540318 8.464676147342127
Bi 10.572257810492973 10.672358137644697 8.888678518378827
Bi 9.458905567154085 6.1999527638517895 7.917218383458248
Bi 2.5695906383662814 4.52564410193761 8.326330529803752
Bi 12.91791667962752 9.148388333371148 7.7352711165484065
Bi 4.767230789346062 7.484785466921826 6.279164429626133
Bi 12.075437604505794 9.123850938473042 4.794917904882064
Bi 5.498363338864589 3.9543874322299546 6.701354915450731
Bi 1.8160719304314996 7.108491870140376 6.950972919670354
Bi 7.9996263734583755 6.374364455482266 4.752360110212609
Bi 9.088796763927938 9.21325895591015 4.649778780503824
Bi 12.803641433715981 6.355644304824272 3.8713293628750147
Bi 4.051185992486716 9.960796015691528 4.515123410121953
Bi 10.283114792286723 4.723815358695261 3.622770329161095
Bi 4.215633226983896 5.843066743934657 3.723347312444739
Bi 1.0845261407581848 2.6408121064684997 6.467094631158088
Bi 3.831062486519163 1.5581161304312907 5.704552785354239
Bi 2.5142708785350147 8.151385439127562 2.6321072770400105
Bi 9.360018932161301 8.925637250968006 1.6276135554172986
Bi 7.082145782843754 6.875640570065309 1.8219870974133006
Bi 11.165498491599182 6.4729730064136595 1.3185593186774194
Bi 2.3325964502296244 3.402434883953736 3.8237447465638486
Bi 5.207411106504465 9.313742278949805 1.8007666315940616
