37
Energy = -134.09161594 eV
Bi 7.010927555848717 2.1492289898476487 6.703213859987712
Bi 2.9454929276679978 5.011478691531111 9.081518608338481
Bi 9.892833393585871 2.0250534518752143 7.726257455907296
Bi 6.27368561032777 3.4009677509185465 10.025537258047603
Bi 3.135773090341857 6.51470322405438 6.332048499896268
Bi 6.953083212472162 1.568100856006081 3.702971210172433
Bi 0.768795245113853 7.061905282958121 9.831217405907552
Bi 3.7566359586354348 8.022882325731802 3.015605229065221
Bi 4.935685998578754 3.860819223985681 3.637825006909724
Bi 6.296949121979192 4.831134193118347 12.745188560611604
Bi 9.019518510105579 2.38038753148688 10.64781639592812
Bi 3.7490833485169417 6.321315931061881 11.747544246314535
Bi 6.267376579336192 5.075995145609588 6.184026832202643
Bi 0.6838709307206527 8.287854545294373 7.032218326924403
Bi 8.534957193701294 6.0468582499783805 4.333335470262348
Bi 10.197973678673046 4.99188771337704 7.247251543510006
Bi 4.928329195651266 8.279572627931902 8.033151328256476
Bi 2.5708477054298022 10.278717815766159 4.721363565661996
Bi 6.717450743889182 10.767666230360733 3.9494372241803597
Bi 2.3872209778260642 9.594107981365255 9.186407702519158
Bi 7.583534779043101 4.0879753258698805 2.1600780708640053
Bi 7.12714772135223 8.115229047898474 2.566810934647775
Bi 4.1650642270348985 10.873284754149276 2.161508156170626
Bi 6.233990614326282 7.876300208105566 12.490439382723164
Bi 9.444149711395996 8.626394144875213 6.831201818121249
Bi 8.087124367935937 5.838791113438981 9.455541389888516
Bi 4.942579815676588 10.929405712549947 6.496291266155785
Bi 12.333782020064247 5.588195926393186 9.330834504005413
Bi 10.221234736937541 5.342068761339123 11.57703892229901
Bi 7.707098782420062 8.942362163185551 10.067247215858503
Bi 10.168658865947853 9.07276257753816 2.3392151014046454
Bi 9.941135316211664 11.898574345147269 3.475310981979579
Bi 11.616884068080166 7.951668824979037 4.783625628522545
Bi 10.280039579993158 8.60440765311196 11.503845241579262
Bi 11.8233806708198 8.594451842721151 8.834662857883528
Bi 10.088975657869822 11.611756526539805 6.501025208230152
Bi 12.538933915621724 10.905939139030378 4.8715934181951805
