30
Energy = -108.06422309 eV
Bi 9.578215848929924 5.604988715930971 9.484314446242308
Bi 9.895737188952968 6.602848820958251 6.490060902539011
Bi 10.296724427351073 9.264124370310789 4.245637063641825
Bi 10.055629721608518 3.080010578743908 5.270568315936155
Bi 9.593041699112662 2.8010836570487863 8.234999259758341
Bi 9.808628857508891 6.577385480090749 2.9865831534073277
Bi 7.944178990206292 2.6854377776797516 3.1391153419432767
Bi 9.03149786804749 9.114969546917306 8.018591220493121
Bi 7.1689328979098725 6.618217590995583 7.980200164254721
Bi 7.454161886587368 9.78176766421433 3.1361913808245823
Bi 6.757432826135387 1.9222144670348789 8.602509877535702
Bi 9.225349446480534 11.630001622917147 6.051549816723395
Bi 7.034171516598031 12.313529493187511 6.800305599608535
Bi 9.095918576285014 0.2667948455181051 4.594496134027923
Bi 7.089919681315469 6.727875483070589 1.9202152952062752
Bi 5.163052067445225 8.570096034403544 4.718603038086052
Bi 3.86907625070315 7.344025477201113 9.651250278260319
Bi 3.6312853276497594 4.674366503811371 8.149503698839398
Bi 5.905444073159313 10.229584907225622 7.165096650876075
Bi 6.156852559965388 5.672862004526633 4.646116097597674
Bi 4.676100586752469 1.3791139073807561 6.434674311299309
Bi 5.046641390319606 1.8992293436540673 3.5119222024530137
Bi 6.591888732483706 12.313529493187513 4.982609677086939
Bi 3.052423390891632 9.950657948606128 8.437073657268888
Bi 3.670348949335139 4.61783716391706 3.2324351279344734
Bi 1.926576981594302 4.246331816603967 5.6985903206273
Bi 0.43105587902607295 6.746588254171457 5.0201686774056204
Bi 1.2637891621575557 5.821782283863487 9.735526016549223
Bi 0.9858379040986648 9.390911110712379 6.353018161618
Bi 12.163176534547317 7.282977555974983 7.802338471271624
