33
Energy = -120.57787813 eV
Bi 1.4863140211713373 6.244967889445793 7.578619689603369
Bi 4.983958111277183 12.416216185958161 4.608047453235643
Bi 5.729456495881928 9.993603303076329 0.9138924745872219
Bi 0.6046014304138889 4.096958045931348 9.49539730568607
Bi 4.2473654793237765 11.418018395704873 7.364693744991229
Bi 4.272774845938282 6.597983426460282 8.786843514867526
Bi 2.203284105778848 3.310594638514774 7.064062329315298
Bi 7.217783752588019 10.513037528692493 3.5463384838118577
Bi 6.6937534517516 13.185996024776621 6.99128944835015
Bi 8.238751811942578 8.512344633160449 12.195574076320327
Bi 5.502066914798594 8.018163528239954 3.2324915022699185
Bi 9.888205105875542 10.121504200398308 1.7862510220921637
Bi 5.761142161577111 8.771115645769207 7.212279459381836
Bi 3.903844989894264 6.889661660251384 11.769563960510617
Bi 2.565503998363517 4.155754332397721 11.833243485265113
Bi 5.187714416297866 3.5368335973743967 7.872497732982755
Bi 4.926176567604985 2.5813889330513238 10.760818335824743
Bi 9.091943289480334 8.66932503908973 5.959511945582251
Bi 9.143678806958174 11.378077187133304 7.459814741006233
Bi 6.3107204914691675 4.962024968406289 12.17253660082477
Bi 7.390280451591095 9.98606571841302 9.509175073458048
Bi 7.297577938194662 6.199844607626602 1.5764700370250826
Bi 11.171112598246955 8.224787299046369 3.736324447979407
Bi 6.257123430746154 0.8453715001461308 6.8125423475267
Bi 7.6246907640601735 5.584928032474682 9.496951077278812
Bi 8.390108366434658 2.1985937225957786 5.102213499558173
Bi 8.012184874038438 5.186808427706901 5.766661496905104
Bi 9.749488944017642 5.551624973446942 3.2203949269806618
Bi 9.431230881860099 7.855951517839385 10.395895313683427
Bi 11.230450791101278 7.757481049186214 7.932958744400967
Bi 9.08633768405479 1.108082166372682 7.8593009340316895
Bi 9.85870042606005 3.5244199129983915 9.574602697163401
Bi 10.783848576365125 4.844647883472101 6.995542597289276
