31
Energy = -112.1962521 eV
Bi 7.855078658724643 6.354976477687047 9.946244996273135
Bi 7.423646874467413 8.2906114456578 12.26873253362169
Bi 12.145906657949878 6.320220624641007 8.607728173648932
Bi 8.219198940015804 10.41911564950484 10.34769256964208
Bi 5.401700191779441 11.596062146815447 10.67030431356684
Bi 12.301144080085109 9.447094704701916 5.739345051896087
Bi 10.185700321660885 4.3859941500744775 9.959923220897194
Bi 10.145592179986442 10.998657158195918 4.144119621933269
Bi 5.723718576291549 1.926703067515461 9.279935486040808
Bi 4.403817228210997 8.785277486267312 11.318451270894625
Bi 6.048712329755895 4.250470964117313 11.214939389728931
Bi 11.908391511169297 4.5369156262452375 6.141798270949386
Bi 10.05089216699594 8.251676966959279 7.353722474732036
Bi 3.072886447967594 10.382465408322028 7.203777849055081
Bi 5.771534806017223 9.406159938582121 8.582519999299768
Bi 1.7834231250030905 8.853690973093311 9.349484540468591
Bi 7.590676665832231 10.892046170009605 5.8409531786705555
Bi 5.124446098239989 6.0492919729558405 7.141318576568562
Bi 3.7746083688414487 4.263986984614861 9.179831014267835
Bi 10.936213806763028 7.011366229476441 4.573793535294798
Bi 8.636629555580644 8.920111671368947 2.4403624481303403
Bi 6.274123665184573 10.802060770547564 3.0719176144585703
Bi 4.475042278253268 8.317130437303426 3.744383053266427
Bi 7.73967571535309 1.7027202580210583 7.014751130213713
Bi 8.975441792501783 4.473999882126417 7.137080422170109
Bi 7.26762898062683 7.7643224901487455 4.946914076018119
Bi 3.9616050235214697 4.322694099073434 4.885727002252092
Bi 7.978854291138183 4.902938459616774 3.5802091972307717
Bi 6.338548689168511 2.4660646056462507 4.389039851139649
Bi 5.242141153960609 5.630119009777504 2.4067234726663442
Bi 2.417470777962184 7.449505129941796 6.692726624014189
