33
Energy = -119.84976684 eV
Bi 12.427781761839372 6.871494068082707 7.009149154249174
Bi 10.11802944523146 8.27014910514657 4.059817796882039
Bi 13.221348218191592 6.516701697411393 9.979020917393838
Bi 7.552652072211017 12.300253618939797 6.973733939981364
Bi 11.413802380219737 9.722143429911203 7.722346644598883
Bi 11.61360835523211 9.030086183211258 10.683034276009547
Bi 6.059508106008691 12.469386419253354 9.615871155588625
Bi 10.720848398110725 5.253393558679446 4.03063131023752
Bi 9.663437886252426 6.657248873562792 1.588022913834819
Bi 8.2470802751082 10.59867993905992 10.761426427212811
Bi 9.553552788313723 6.070176006448151 7.705534089407233
Bi 6.087871411501657 10.62420233426517 2.9512501606266754
Bi 7.063288582572489 8.05671182269439 4.290493884330621
Bi 10.291522486874447 6.268949090734397 10.700530443847759
Bi 4.024384169367961 10.147240625752877 9.526554873081444
Bi 8.338909242452592 9.46159070914281 7.930722864633717
Bi 9.228666112080093 3.112426261872057 8.519575536486508
Bi 7.961103981987829 3.950495698713852 3.893075531185681
Bi 6.299178345097194 6.607950253844424 9.456699566877612
Bi 4.923040906521519 11.602282887093267 5.59586635989948
Bi 5.770753115007455 6.468540491086173 2.000586415260434
Bi 3.72408163680017 8.83597496431429 2.2519367089119458
Bi 6.305668072353824 5.155165957045823 6.156106542666112
Bi 5.903226941721588 8.773188671270931 11.58099634872853
Bi 4.956045476244257 8.817376146549591 6.810821079322929
Bi 7.192047059488509 2.2813405128712163 6.378540744618846
Bi 2.693074932382692 7.782817067914377 4.952805216862563
Bi 7.289852052218042 4.031069163513278 10.767974013791275
Bi 3.9935136609341484 5.077485483077036 4.145128704952242
Bi 3.3005289511432117 6.262082405341224 9.779042783496893
Bi 3.117332353545309 3.7893582866590583 8.028879414246916
Bi 5.071322474027818 2.2256499441749438 9.757359893685685
Bi 2.661091293464615 3.5670078354685524 11.035387141799816
