33
Energy = -120.79317623 eV
Bi 11.10285164490375 12.013235241572172 6.44123199692324
Bi 9.972572656771092 6.0673402782243055 3.685283416021097
Bi 11.27644186852911 8.987317686008767 6.0234733716376985
Bi 9.870864672353987 11.529265445149946 9.205647050580033
Bi 8.830449199367306 12.847780994802687 4.544374019332334
Bi 10.994249094155482 8.652269722756111 9.074918259599928
Bi 8.587947924945937 2.563578318362847 3.362781510129227
Bi 7.408506537897066 5.1904194372355015 2.319233104794629
Bi 8.507003434475818 4.282543953194175 5.8283378674196085
Bi 9.254030157233391 2.2681923791217535 7.9953838770531265
Bi 7.8879323075504955 10.290605593549476 3.165633535605588
Bi 6.345669639416964 12.980916388781806 6.337067934088755
Bi 8.392597714724529 6.957575716005703 8.755860963682212
Bi 7.448965631497814 10.544893922580904 7.715818252904055
Bi 8.422898170788564 8.194663610490505 5.308704625649273
Bi 9.200447834851069 4.39225105998969 10.252696489622075
Bi 7.149022368145425 8.17402093357037 11.283718003894368
Bi 5.470440405623619 5.403177269717648 4.795746246218932
Bi 4.93750564115265 6.16869972451229 11.703743284140913
Bi 5.1172660166119845 11.311918047347378 4.06054041166907
Bi 6.3652930519084565 3.6087091663608653 11.007708497466812
Bi 5.2832204391741495 10.114069379883341 9.82382740043867
Bi 6.659762220150605 0.6841243442027283 7.213338406741694
Bi 6.187347040096331 0.8372757316093684 4.199695919708512
Bi 5.367358858924858 4.444221522734676 8.210653134692086
Bi 4.198624948948277 2.9875395281190116 3.495474311843438
Bi 4.963567854800209 8.04755510748196 7.619861659496505
Bi 2.9481678917943337 6.960189536979716 3.9253592190834072
Bi 3.19794313795769 9.498312943905905 5.631195959950465
Bi 3.980895873174605 1.8146326771291772 8.166751985812624
Bi 2.943910763006572 6.1913029136250755 8.941209135360925
Bi 2.226285307615985 2.5278565101813175 5.737889529300906
Bi 1.514652354420122 5.478237577780705 6.181533282106039
