33
Energy = -119.63065083 eV
Bi 4.204746250514418 9.596557810164821 9.724419995622247
Bi 4.517572438134389 6.654674581356177 4.516160677020145
Bi 7.369316324582945 14.34052404104265 4.992364515737635
Bi 8.689848056469883 7.576090724299754 10.259112976792094
Bi 8.455709799978054 7.689677858596676 6.388255924168057
Bi 12.208705405390695 6.758067896780673 7.055841922320641
Bi 11.677232016343163 8.168439508822955 9.692067504316313
Bi 6.867299182476922 4.12919868294768 10.591297505525354
Bi 8.97983724019694 6.943565734674783 13.221944651670396
Bi 5.269360087904114 6.917694844536308 8.747431246360373
Bi 10.168050371591594 10.077160252400539 2.7816610301899405
Bi 7.6429529163714855 10.766025138012107 8.333304047159785
Bi 8.59805493419381 10.485140281023112 11.213611685687873
Bi 2.3401961981170536 7.655862813948588 8.281736925406415
Bi 10.168708084635607 13.786669307594309 5.919416468085838
Bi 5.319187294200561 8.865367905146343 2.584091327831599
Bi 6.579587532716555 4.201403046363503 6.601968171161025
Bi 9.67327038713031 6.4727015879405 3.8653652460277805
Bi 7.247092823483371 1.3940688900813276 7.661795014119576
Bi 8.453037181008128 11.448704308227407 4.920751386384801
Bi 8.997670981973377 1.9966963646558467 10.090863094709235
Bi 9.001720630770743 3.603389941868679 4.8950839878367445
Bi 10.991546142559448 9.307878278004184 5.850158960254487
Bi 10.638794777116845 11.004541413545747 8.934855729976599
Bi 8.149708335257625 8.055191547427722 1.7501003346768154
Bi 3.9981042666431725 7.159489594184981 11.538230811171
Bi 9.55798765053607 4.948130548585579 7.589827610889681
Bi 6.115512618668315 1.194324049412525 10.480512967863643
Bi 2.494730807765967 8.750575730219005 5.403991776692318
Bi 6.017637648151 7.186674616309407 13.849993448984888
Bi 7.916996759756597 13.87438455570075 7.948930677835386
Bi 7.2894642612557705 4.43934453726832 13.592145293845872
Bi 5.51263053350059 9.301196638426745 5.595013617081611
