33
Energy = -120.87670977 eV
Bi 12.554086375655123 4.505681558488203 6.3275360154972455
Bi 10.218777605152729 3.9594104200537537 4.415458173907629
Bi 9.188982216215724 2.472321335150962 6.814519681770836
Bi 11.327919268039276 5.1016336253534185 9.04733476260324
Bi 12.663477523768703 7.326234601811962 7.4289734110675925
Bi 10.736759295833073 9.293267136954078 3.5300464498342015
Bi 8.767467711184523 7.419114520033218 2.1123384786246984
Bi 6.991800580314278 1.2726505908807677 5.119287042482031
Bi 6.259448292352065 3.5678265081499125 3.136462327130393
Bi 7.790490686220172 5.846371214897563 4.563850168801137
Bi 8.380988377550295 5.2862787854955045 8.101439223495793
Bi 7.7699911451952 3.855058964327412 10.728296406002832
Bi 10.008807704491954 8.12788379293663 6.246719326670753
Bi 7.877560481439273 10.182265404838546 2.992662322193029
Bi 6.106285709045213 1.3926903581730776 10.032438501830427
Bi 4.943375720197075 4.204507207270125 6.918295100912601
Bi 8.564985726019016 8.174902873713727 9.998504474636194
Bi 9.874513732270755 10.361634464014523 8.341261003334301
Bi 4.791389946096175 3.870051620759675 11.258508275883452
Bi 4.792126243512825 1.2454614911927482 7.276892731924541
Bi 3.4601535906016747 4.127167569782096 4.252029153062927
Bi 6.560242828364012 9.43567168599764 5.677038799676963
Bi 5.839603388598577 9.230020974279967 10.70285633204275
Bi 7.625403773846901 11.927175905913263 7.026838698068002
Bi 4.639769870057573 7.739084062695748 8.332400299242076
Bi 3.077295921511556 5.180456271957609 9.091992145588987
Bi 4.0413600472098805 7.1023852203162505 4.708238773474979
Bi 5.607192836771743 11.939050240607207 9.28641706747956
Bi 4.30212667910539 11.253187105989015 4.699263409714708
Bi 2.018382765549302 9.210845144615899 8.430365475397316
Bi 1.2911624220224662 7.7019225068649835 5.8971139442433875
Bi 3.13003282301716 11.852426585398717 7.449136791849793
Bi 2.2660097575413416 9.303331295837838 3.5234562763069794
