31
Energy = -112.89558221 eV
Bi 4.228300584334843 9.442652663985516 1.9706859814414706
Bi 4.746811005631236 6.483853211861261 2.545173765579241
Bi 4.262871599770127 10.948578988860648 4.589030964765222
Bi 6.464082931964718 11.442083835968255 2.5689584613376257
Bi 2.396716966130179 5.858522596728165 4.41354434921239
Bi 2.2153188256971124 8.185690620743618 6.323001982668374
Bi 9.206455980131325 10.551143741845616 3.5503012689893207
Bi 8.836182453945078 7.7789954485975255 2.494167372211442
Bi 0.8922880770504727 6.6113382405991565 8.542148375724306
Bi 6.915372790450403 6.687569688568974 4.61883705733492
Bi 1.845041435283578 3.704317750643363 8.305591973084464
Bi 5.344167410825918 8.715804778361287 6.353497851565529
Bi 9.37384362205054 11.15284771101909 6.5526128228295555
Bi 3.6354126326380873 3.4593957374565916 5.854351681889906
Bi 11.353764225067208 6.26392029393177 3.3155545224788274
Bi 11.09848385279632 8.976005774944522 7.800217860617128
Bi 6.796551782827714 10.778642415597309 8.152150039704608
Bi 8.727804303155168 7.118443137865246 8.055447188694039
Bi 6.34425390235032 4.24537798978243 7.028756844456617
Bi 9.877129931077874 4.940650808658874 5.639031412376538
Bi 8.45871873967983 2.242726885130927 5.975019476479598
Bi 12.778037798217376 7.434588045716893 5.7735690498758565
Bi 5.340918116868286 6.796021783578414 9.42499205120557
Bi 2.8988746199435593 4.1566620411342265 11.195027450420149
Bi 2.6969307196335968 7.2018601843802905 10.944806595746215
Bi 6.407702754071927 2.373367991903884 9.475032682975517
Bi 7.510426859388842 8.769154683716035 10.35226225977121
Bi 12.449255203658675 4.715501903759412 7.2015288285469845
Bi 10.509388112548637 5.110345560565646 9.557268182087533
Bi 9.411101702663451 2.309503880700181 8.885994368821848
Bi 5.915474242476911 4.590387100215887 11.47395489023437
