33
Energy = -118.77327765 eV
Bi 11.96043045736209 10.65726447018584 11.490829408924196
Bi 11.533306536992553 13.253184203879716 10.000326563956182
Bi 11.70610192641541 5.367011145847513 8.753640256549831
Bi 9.705929280305288 2.086988716029745 6.554398322027198
Bi 8.455824064875797 5.8891350185503795 12.01467573377554
Bi 3.7679899325109423 8.8767251354081 6.127549492220888
Bi 6.705822283613227 10.53948467146093 13.83697267086112
Bi 3.4113671317034675 8.85315460380321 10.508002623678506
Bi 5.689310784067263 12.784177210763776 12.253254974373133
Bi 12.158316160588306 3.772240277658595 6.159712227359227
Bi 6.297008042441349 8.911320968711728 9.477636939574248
Bi 11.448793935779458 5.092393158673414 12.379981892692367
Bi 8.44853515290591 13.735773178675897 10.685721021413094
Bi 6.462655427485804 7.421060269270087 6.02479874584678
Bi 6.998469067063907 13.44047825975159 8.031754146969508
Bi 12.006231634470945 8.154948556543193 5.92547787492626
Bi 4.769589035239023 11.575826944558663 9.622420116326062
Bi 5.250549478466075 8.647209021899393 3.5020623307421177
Bi 8.724553806110793 5.90254293166425 8.361324042223377
Bi 8.863790599974022 10.773729488558082 11.473934147128041
Bi 9.666907100392477 3.2095962657108674 9.471895782656302
Bi 5.671849286305549 8.097102912507726 12.355519887221854
Bi 5.4924851658721705 11.192685173212487 5.170447635025011
Bi 12.116250892121647 11.558538258616087 7.541893991004094
Bi 11.535366655510652 10.231876156353783 3.6873895939594354
Bi 8.066735075197995 10.811889703687063 6.886843563306484
Bi 11.141260808526805 5.856836542581005 4.014785410222269
Bi 8.48135148647073 4.73655553005854 5.506982316117249
Bi 10.425267660167968 7.795255265368793 13.31344412642533
Bi 10.608247816995362 9.31153635177935 9.038428376123003
Bi 9.58403007088204 5.251733589378161 14.751787555760007
Bi 9.298401667399157 8.340893129074843 4.561725613064637
Bi 10.186216332142424 12.42764197996338 5.357053061729433
