32
Energy = -116.65421461 eV
Bi 13.10217177788655 3.4330558277535483 4.428496045542165
Bi 12.108558335882565 1.371078611789994 6.389398735754233
Bi 13.637031356949464 3.8035517782371153 7.397083224947558
Bi 11.021839151103492 5.728184119138673 4.713589838185922
Bi 9.92607084860481 3.6662917206457784 9.030178012328543
Bi 11.41262338910746 5.914967040062977 7.712571410946805
Bi 9.125514169186765 1.916035319945006 6.71460777738898
Bi 9.009183583360045 10.52150989390439 6.859007129825632
Bi 8.892211701875397 3.634577672094781 4.234605898304576
Bi 8.860161748030286 9.291456112099574 9.661342460913614
Bi 7.390048964511195 4.864309390285232 10.318810871836979
Bi 7.484056624834568 13.000157879564226 5.969493408776695
Bi 8.009157124901497 7.201925146950287 2.865249882407241
Bi 6.42724927332761 5.00007178159462 5.468361193901055
Bi 6.5964654914231255 7.359785910590466 8.77074632826355
Bi 8.37750203760833 7.7060964289837495 5.769234119478969
Bi 5.185281633987483 2.2737223380572713 6.456070359205409
Bi 5.2428046663100565 8.325544385735922 2.318550939473942
Bi 6.593990268241161 10.865969828546964 10.982261009879823
Bi 5.757036519456638 2.451937277947009 9.406710509656746
Bi 5.1202002088769385 10.684711379610922 8.311803517306585
Bi 4.664132343605283 13.369715951063096 7.009637115450641
Bi 5.135880450573867 11.91561368396565 4.374679151051119
Bi 4.659631433388996 5.416384184677507 2.97965456420507
Bi 3.600916566100934 5.971146307409871 7.474231288724851
Bi 5.102890338386447 8.978772805859064 5.2822455595094
Bi 4.964135492802118 8.27738633323008 11.275739600212251
Bi 2.9858741069629287 3.1476429008881204 8.40166626263445
Bi 2.175903725182246 5.8377499999694775 4.803268793658357
Bi 2.7102278655868584 9.891069256390995 9.976962261953435
Bi 1.3306258985818311 7.937600423535317 8.04338352480799
Bi 1.9977083103947737 8.849063716504563 5.2074446104992935
