32
Energy = -115.45916234 eV
Bi 6.104613202192548 11.671182334831496 10.782548883305681
Bi 4.963754062017995 7.733260675091806 12.312747403198902
Bi 10.383711881044706 3.6286514536201433 10.868688341634057
Bi 5.892898653170398 5.111640382919853 9.578726075691778
Bi 10.899531234975118 11.451360492690206 3.9187854699453597
Bi 11.726961658169033 7.865183029454282 11.697438348022322
Bi 10.375709503210912 2.6700108754643876 5.761366075359853
Bi 8.832908784586294 6.527459704272365 7.468288869646901
Bi 3.708818433121578 6.608399880925967 3.577124968522617
Bi 10.731119833381065 5.633295855905603 5.158786538440176
Bi 8.667537422748564 3.508290082588746 8.208758704536288
Bi 5.506754199453509 9.075256476378451 4.000827093252195
Bi 7.300953390587296 8.841098583273984 10.631672085545656
Bi 9.391312401466381 9.582460881841724 12.696289684449058
Bi 5.383059720159889 8.515672724464222 7.481339636895749
Bi 9.19453784752622 8.949403994011249 4.309922783709051
Bi 6.310510915554116 5.118810314356881 5.761813689005946
Bi 2.639585401057992 7.871777465952919 6.112937815610492
Bi 11.299937111474467 10.686331948709768 10.60466552056628
Bi 11.436003450601305 5.989601257558893 9.310635767604515
Bi 7.814768725534934 12.439436848597898 8.381858493580431
Bi 8.492710660925816 4.0037697151197085 3.850972727304112
Bi 11.69098457505227 11.908538232821586 6.803630590673496
Bi 5.709783470009812 4.749821605469896 12.641370765323664
Bi 4.921204882660457 11.503634638427656 7.995328941734924
Bi 3.586915468229543 7.1608445173958595 9.607107207822835
Bi 7.919070132323033 11.699604300424214 4.492811445173316
Bi 7.604211099048992 10.042502894173644 1.9410420857111796
Bi 5.740948076118459 2.7517491080246734 7.479657360170865
Bi 9.708785138966508 10.02011086929518 8.066487283091039
Bi 8.454383245458164 5.761771471778339 11.837598049483036
Bi 2.5249074970574474 9.403380471506784 3.4842398765084193
