38
Energy = -137.75454488 eV
Bi 13.231736024970145 9.875496930033107 6.2175896442738035
Bi 10.936990948028116 9.608134996667992 4.212520194920954
Bi 11.304563777050378 7.508647737663026 6.498139099091961
Bi 12.244397433573502 5.209102273786277 4.699728482538756
Bi 10.030092927288484 5.938474106841798 2.742493144046074
Bi 11.46572525806177 11.86368573572181 7.745374944812048
Bi 9.004284128615065 11.166330599755081 6.030332829194005
Bi 11.246224678929558 5.168590188132061 9.198433600172757
Bi 6.349365742242818 4.264072772866147 0.8233264971968973
Bi 8.851614753429912 3.2317590911452756 2.1897282869195918
Bi 7.9298297699355755 7.833124651298197 3.925271352779031
Bi 8.385216860143714 8.646446639051423 7.8252837389660765
Bi 10.680361989023183 9.642587484446661 9.65966501357234
Bi 10.8455168970607 3.4174277105352866 6.756079755771949
Bi 9.200613944511884 3.644505195336661 10.876952505915389
Bi 4.607284716228137 3.955755045954865 3.5016543035212875
Bi 5.820601762739067 7.0178937918050615 1.8884658234755167
Bi 6.63277115090828 12.661471318823802 9.03365944068742
Bi 5.538470345167247 10.59593177844494 6.981291071529228
Bi 8.061162011150188 4.634599847898344 6.651296343369633
Bi 3.1638502093221526 11.373749654479116 5.174400599475477
Bi 5.236024283513356 6.679332647514407 5.0720579036987266
Bi 7.352120476625548 2.4792753346440293 8.68444962639899
Bi 7.7489192594277245 10.20318017159675 10.407755894560582
Bi 7.107341857326794 2.56434757999155 4.641701286612016
Bi 3.413268733166618 7.63443752943422 7.942807063724502
Bi 8.603038002623121 6.601502482409477 10.631077788016443
Bi 3.101016331762779 8.656417313460944 3.8371374961995244
Bi 5.652971093050926 6.055994520689819 11.049147181388292
Bi 3.993702221467492 11.222601993478964 9.497975260856823
Bi 1.4946980782682138 3.984911177690018 5.832377313226048
Bi 4.949004885695603 4.36191037833289 8.464891524486209
Bi 1.346276117006985 9.212626052542303 6.293170062406977
Bi 3.757441784970505 8.466156978547039 10.842778524844451
Bi 1.1336295142136963 5.634014279885055 8.391907127360279
Bi 3.925977132946393 2.1137923731710178 6.197631327768608
Bi 2.490768204693965 3.465114843387883 10.047243621061842
Bi 1.3944905656108453 1.6379606632875985 7.76556819590978
