33
Energy = -118.33570624 eV
Bi 5.116897111375576 7.404794510814264 8.459789744665239
Bi 6.219195678957103 9.338769819687151 5.430055896207986
Bi 7.4485848288658385 5.5849795823150465 6.751682120346194
Bi 9.15255608513579 3.055567704491587 6.904221197250401
Bi 5.741232231348428 12.394160660500525 5.70148543835021
Bi 6.186944102416067 3.0446738899552424 7.854102807040347
Bi 9.16199756507231 9.557599216135147 7.186336891883307
Bi 10.637763794298541 9.434325006909331 2.703697008282668
Bi 5.482958702048681 5.06572007341732 4.436356233329374
Bi 5.3320364654690655 7.760924892638322 2.9522576512538197
Bi 4.482875030126605 9.247714382384297 11.864948424099344
Bi 11.581340563484213 8.415778620773821 11.21989972984523
Bi 10.525694666872633 11.322478280588747 5.092374270918955
Bi 10.164032929459404 3.8004040420504746 9.728322451722883
Bi 10.060533472748284 7.312772070461852 13.976738174489695
Bi 8.064267457043464 11.140604284524082 3.335436744209341
Bi 3.237041209160649 9.72927938245554 9.07024474118305
Bi 3.1811147736876166 8.719809623766807 4.934457936962159
Bi 7.795906340913633 12.23765741313035 7.963036550384038
Bi 3.819350327828412 6.346128523299603 11.053787739028738
Bi 7.37441205433959 8.53944150308273 11.116759892030283
Bi 12.02860428417546 6.433572015616056 2.5617273966360044
Bi 4.83042824371565 12.262839550495515 8.624304838923852
Bi 11.86123696472477 10.10487024654857 8.506522279397474
Bi 5.730104405474652 4.512149605208898 12.57286020358366
Bi 11.338954732971452 5.723547640002555 5.39746533581008
Bi 3.297446449668919 6.054146690864789 6.386934294335573
Bi 9.934132203634968 6.812020953222375 9.153431057496466
Bi 9.506153475717193 10.027403325499758 12.802220687109825
Bi 7.0440898814844095 7.022837720301426 13.68136526266866
Bi 7.409526203162705 2.8566023938676732 10.612068020416942
Bi 12.631238932772934 7.259288643030932 7.754841015652253
Bi 9.188697076891355 6.899070331302465 3.59224337511165
