34
Energy = -123.08137863 eV
Bi 7.845623576416256 13.34113254642255 8.677708306304389
Bi 10.360197012781404 6.34531500351883 5.023067745819858
Bi 3.764337914226825 7.55536993063105 11.704864175702536
Bi 9.262948484925706 9.173471028642284 6.692770993896405
Bi 4.095395058605928 10.026945989393013 4.298827893055117
Bi 7.072318471405578 2.9105486497183994 5.89218547314625
Bi 2.94106772080822 10.293277761187532 7.135271069524175
Bi 6.009279892087223 12.204918549981361 6.645018824781339
Bi 12.079137232215015 9.514153447935207 5.281519064607881
Bi 10.808395363315167 8.379586114476398 2.7478412164654316
Bi 6.7587054875774815 6.230593248393664 3.3101914033999424
Bi 11.667271542697812 5.761613756543004 10.376991596247954
Bi 8.871104060797428 4.004494764466846 3.6169511546736857
Bi 13.223084030488632 3.4771519510002644 9.097242157569491
Bi 1.124573650637755 8.026378226137833 6.072619054579387
Bi 11.160452807984093 3.2403168743824935 6.824275863647113
Bi 8.742817107462404 2.4114158482032244 8.440358241743832
Bi 3.2351660244673197 7.086113070802553 4.020081913312462
Bi 3.6640960394403015 4.892773786037266 7.26514732995248
Bi 8.522956792428253 7.918133826341423 11.503134877909412
Bi 9.43528466884684 5.372782893223939 8.306226681332596
Bi 6.235381498319006 9.6386794989806 12.341045463144884
Bi 13.353529885755709 6.731996078151244 5.569735950976586
Bi 14.008279086508864 6.3537924706989 8.521134081824481
Bi 1.2797601880252434 9.262066127836466 3.2846210458806677
Bi 8.022106511651472 9.049642168427432 3.849255069818579
Bi 2.888728480093103 4.570038718743415 11.228806421935502
Bi 6.171008018189358 6.661320127853732 10.035233505803792
Bi 6.429942338328019 5.883575727132483 6.334130629188753
Bi 9.010188863694852 12.207823198505825 6.117714529331788
Bi 7.545322561396409 10.34590909170775 9.71633735009469
Bi 5.7370414363366375 9.046116903555513 7.504984926022576
Bi 2.165612312312329 6.781647739886936 9.185430949810808
Bi 5.236251181255113 3.642952637954088 9.576712060744521
