39
Energy = -141.80762866 eV
Bi 9.960966207907601 12.137433006949925 7.843384012621408
Bi 13.369353983508848 8.06111393575459 8.13106385461415
Bi 11.704747540483876 10.491019080205062 5.918670973911337
Bi 10.17883397175492 11.49420196461841 3.507543201332636
Bi 13.35460536961998 7.182977892400062 11.07086459292051
Bi 11.190093333284107 6.3278782952675945 4.28233874195683
Bi 11.786352899772329 11.709767972912536 10.23417638139668
Bi 9.731841670216905 8.703338267507961 2.00167825321705
Bi 12.665266366048627 3.560365833328888 8.235166046161769
Bi 11.853174700133273 4.521048186532862 10.991902956899859
Bi 7.05613255655372 9.65534693263145 0.9048842626518664
Bi 10.133166894401118 1.8797928656928267 7.911242008361041
Bi 9.370645965765554 11.996945793656248 12.102179339970588
Bi 8.759100376358674 2.151561064753923 10.673070000619427
Bi 8.613078387414259 4.85595235718445 4.406287242629898
Bi 9.09020372870023 8.7210558703944 5.0990487849010036
Bi 7.241598663695109 6.668976630990006 1.8462963771627194
Bi 11.034747610378123 8.800790538552006 9.95114386299445
Bi 5.609998407776964 9.937222069142832 3.5389774752023655
Bi 11.226536052376202 6.072259343888064 7.322920853943931
Bi 6.271037724090858 6.977559848851863 4.6796271918583034
Bi 6.2437612481353675 2.198241263765441 8.964669553988589
Bi 7.834736498472254 9.950413429330647 8.32393527332954
Bi 7.693649673409961 9.522233072610538 11.421351852033007
Bi 8.922500357746628 5.238755756731545 10.540977978167625
Bi 7.521952791439569 11.612603709337204 5.1021298543927935
Bi 7.445435025831856 13.925964603565582 10.750702269783503
Bi 8.214420547106808 4.231613517123964 7.6126887288668925
Bi 5.5743313391019464 6.8335445294781945 8.78806339651266
Bi 5.1019882050240595 4.266382989627915 10.85257020674387
Bi 5.474301081122605 11.666309797099212 11.468984839573835
Bi 5.961064933657798 12.359012089327534 8.549445581988738
Bi 4.24986485181362 9.191692803496235 6.83667740844171
Bi 2.2875063926899437 3.659450403619734 10.077618190511938
Bi 4.03366611922013 8.08826153617133 11.10773986150108
Bi 2.7186033523241235 10.18373107978823 9.229903614860008
Bi 2.9630136223872503 5.576812645359926 7.692371851498679
Bi 1.5086288199905356 6.6057568711217165 10.234052471147901
Bi 1.392130340060266 8.325649761005613 7.136688261106148
