32
Energy = -115.58777096 eV
Bi 1.1801146268523122 3.772003166687883 8.583748602382835
Bi 3.636135548475652 3.725577410774974 6.813832007105177
Bi 7.148418738600367 1.5614186139599555 7.481037096679169
Bi 1.263147160416577 5.6652064400817945 6.181541500078081
Bi 6.2208892150657285 4.846687791551201 4.711642333507182
Bi 7.522235058561304 2.0955373675883475 4.551766988823356
Bi 10.33749192323113 1.7556049945028738 8.473342937600531
Bi 9.175603845405945 3.7626178194340296 10.51365265711359
Bi 3.68359402983748 4.579112422288393 3.05165645095221
Bi 3.7011080923121233 5.3958767746284115 9.398683939661653
Bi 1.822686572878389 7.639715410080848 8.477158763295995
Bi 5.3039617068127765 5.709286135663475 0.6294079536292007
Bi 7.311849195771983 4.56619110841585 8.178299788411808
Bi 9.630624499624432 3.790174064643525 6.27102502145214
Bi 5.055926383285603 7.731114548235202 6.4680379361313385
Bi 7.717474890273874 6.191363839428476 2.3905138023423045
Bi 3.392851057691833 7.517388558940957 3.8951705057004866
Bi 5.686854652576374 8.657845843133755 10.175747217581439
Bi 11.846067059115471 4.516153834464299 9.292938602526714
Bi 3.0976014870681 10.034861129261532 6.965589409873951
Bi 5.675479614119238 8.400647154156543 2.006934525139314
Bi 8.435136331469657 7.293485739395646 10.417179435260605
Bi 8.9624120297103 7.8776564694699385 7.344415742393689
Bi 11.54881365152521 6.275856908585751 6.916936158427051
Bi 10.974672288443509 9.632482502086122 8.800995645829452
Bi 6.141696947472941 10.360085427003938 5.405339975628983
Bi 8.047584661809102 10.056839233835442 11.516500555494162
Bi 5.818220309844288 11.081731445270451 8.329339100308644
Bi 9.174138003361042 9.775748588454464 4.5482115728179835
Bi 11.667460000581094 10.758499197050957 6.001434889728959
Bi 9.169903656056707 12.40552968002802 6.066764203697743
Bi 9.059273956134057 11.938732508391425 9.23291461265218
