37
Energy = -134.33369869 eV
Bi 0.684546605064964 8.730456782870556 9.933599236576837
Bi 0.7284496165070915 5.870495426140737 10.923158827803856
Bi 0.9315519687714965 6.434525695616619 7.935971871703305
Bi 5.03215991727164 11.25008867419109 9.48690388742457
Bi 5.189916393671988 10.401395178054416 5.871600395376513
Bi 3.5292856809235036 4.930796669173396 11.806965055648707
Bi 2.627282791335682 5.0726255302304075 4.7225841844880065
Bi 3.704154675553584 8.673312207031673 10.475527967715088
Bi 7.39866289457857 11.968151064839233 7.293271118708918
Bi 3.549412107733655 7.694481034716684 3.4699339882008653
Bi 3.9403556205563284 7.09235349118204 7.8396240869186276
Bi 7.128632713533699 12.168388221909153 4.18849057439636
Bi 4.057925956424764 4.212688631653954 8.937257226430189
Bi 7.058726535962545 9.025648779970448 2.285136239167324
Bi 3.5086954416864815 2.851218747276393 2.823699121504685
Bi 7.704218835727263 10.993974266326319 10.730106494579156
Bi 6.244009917626915 7.696855725676839 4.882361551588829
Bi 6.1873982130658804 6.6146562534746565 11.169442749692898
Bi 7.60945730272303 7.553323069782248 8.228475606763736
Bi 9.851292316745587 10.890129683210368 4.527311932272873
Bi 5.228745576398249 6.740206914738909 1.1386943674434886
Bi 5.291554187177693 3.6519197608396206 5.153177641647479
Bi 6.9442874287837695 3.0608498926509995 9.111858549368405
Bi 10.076082800898584 8.630751559504109 2.460428626919331
Bi 9.59747341158579 9.856492747813487 7.524229879517021
Bi 8.270739649998152 4.394693073065658 11.494659150378398
Bi 10.053244442186598 6.530280673910494 4.651040984563101
Bi 8.030421072102214 8.6506488553817 12.573547784881791
Bi 6.2200820014987235 4.117956145446708 2.287000290722006
Bi 9.680625561575354 6.956600116975334 10.452760050794195
Bi 10.835729774743617 3.8037763295862863 8.160746280424522
Bi 8.201277503245755 4.80992218634736 6.928541517258555
Bi 12.313888607159608 7.834868442558051 6.2140098453910735
Bi 12.01712770628245 4.583703727830932 3.3152119827793687
Bi 12.379031068690926 6.280923239375051 8.795360940102794
Bi 12.730139841459511 3.097102755305817 5.837848742812379
Bi 14.225109756540313 5.635434341135037 5.131157143826728
