39
Energy = -140.93418672 eV
Bi 10.749474728129737 6.703671989425841 4.46475498659955
Bi 8.176148237879593 3.7262489340237885 3.595030803506767
Bi 7.732102922986226 6.820232459675471 2.1234806899789143
Bi 12.649248571990604 9.898953976257355 3.9546529794599046
Bi 5.672517453186798 4.3478759274088175 1.455479877738214
Bi 10.336115114404068 3.3731268200863487 6.653768317009805
Bi 6.239252360658729 1.5945698560404713 4.5564846703790085
Bi 12.661928487652109 8.062272183441843 6.409834346487351
Bi 9.022766641941553 0.7730253019790745 5.449829692725014
Bi 10.262401190087525 6.488312252225066 9.030800442491042
Bi 9.64082289217135 9.348332191782665 3.4603867341245285
Bi 8.584701559640289 1.5911391071263998 8.38181346070602
Bi 3.768203371547413 6.702951776448437 2.004962024355618
Bi 8.259647790565422 5.535674547891336 6.104222051373091
Bi 4.657360764324431 5.817055177677311 5.461266903143376
Bi 5.84946799848636 6.7810693747225415 12.406752800428206
Bi 5.60972412176701 8.253499356499052 3.8779683821928264
Bi 11.8404705438244 10.976067435952945 6.728012883344553
Bi 6.179634295552723 3.150079960302883 7.286477564906085
Bi 4.515562889350828 4.851655193353677 12.251004718301072
Bi 8.944456942015055 11.104743874664212 5.901463437094796
Bi 8.102293923855617 9.439731104700746 8.317330883448248
Bi 10.451446736206568 10.236792136001085 10.157391390728328
Bi 10.142604797046749 4.265918426198303 11.08450933256537
Bi 1.7932658514300204 6.689474672298113 5.6858095463150535
Bi 9.743513238709118 13.258043236184708 9.787080008566635
Bi 7.442568148103083 5.291265241583278 9.900409091143379
Bi 5.15536237534215 7.534675030014037 8.194999039255551
Bi 2.1126021819086405 9.735360635625929 5.460135100161408
Bi 10.03540234983401 7.133838445570725 12.018794165043275
Bi 4.097855504996018 4.505490794134748 9.314285586133074
Bi 4.745922771576584 10.416489765320621 6.779756953021925
Bi 8.455020825555186 11.66213098907764 11.97169910880738
Bi 2.1944450403958067 7.390353892601755 8.829961421189957
Bi 6.934477787274886 12.104806321518138 9.360340322773979
Bi 6.828959063709272 7.064758015774424 12.406752800428206
Bi 5.009165474447732 9.119250679432986 11.032233320201987
Bi 2.225142332933375 10.524422367980739 8.440024120538787
Bi 2.8003163740036543 7.349014204488683 12.027808239156036
