33
Energy = -120.59281277 eV
Bi 10.460554613771526 1.6445791627288713 6.621528574861871
Bi 9.843443969296095 3.7399128495763176 4.501816774835008
Bi 7.702703235096895 0.44380055876915 7.284308328936143
Bi 5.769106633382303 2.12306610218065 5.590860361006328
Bi 11.01869362045718 3.1274970895612175 9.19724658267238
Bi 11.76111300459751 6.005312117964006 5.261500593670978
Bi 11.93128663242166 5.903712254343096 8.314252376521782
Bi 7.204990809977336 4.810324839053203 5.527009919842113
Bi 6.6897193231599665 1.732916512333784 9.875973786828752
Bi 7.743260474827028 6.706792659597693 1.4021579004433598
Bi 6.043076042151637 4.5862299896223675 2.648211788224018
Bi 8.175146783020892 4.230365327189926 8.968954612661356
Bi 10.454023907516559 8.793549413476205 4.797831536940651
Bi 4.15394325709415 2.3510193234626553 8.212411977466687
Bi 9.267267430877308 7.3676888498706115 8.280999960478779
Bi 10.819726029963684 9.911772432758267 7.650368643509426
Bi 8.512345172774841 6.441761305008875 11.122464503935163
Bi 7.3696010071006075 8.499864449045493 5.072009941609932
Bi 3.431763326333183 5.825965983049843 3.601822700741399
Bi 8.285540346984819 11.538646767882213 8.284596335782089
Bi 6.198815799883328 9.313370149139335 8.597397352763156
Bi 4.948408907630236 5.275477304140791 8.571135275478591
Bi 6.052132018711468 8.282867446786245 11.444461723251772
Bi 7.253955350533256 11.542378481299975 5.42205554767747
Bi 3.5883422549145263 8.588840472485233 2.3607707993073395
Bi 4.36873663967253 7.136664077878165 6.192577415428572
Bi 6.557097830993077 9.309309534864468 2.2449313340439696
Bi 3.4278749158981223 6.866783399507508 10.697051967845193
Bi 4.061738475832893 11.381815227445534 9.009901855010348
Bi 4.300948080378663 12.145404429792142 6.0612589669130665
Bi 1.528441418126169 8.065036870677108 6.49333584738818
Bi 2.3148031376911464 10.311988557753915 4.606843114734718
Bi 1.9595741997188287 9.19346071154301 9.280126249978325
