35
Energy = -126.93102654 eV
Bi 8.963939428988851 1.8042098537972977 9.479829042718977
Bi 6.05365720549906 5.106733542554946 7.8357463037752
Bi 9.318294481092003 10.243284921791792 9.07638077935216
Bi 4.3334711100521925 3.690576806097823 11.559459256935765
Bi 8.83228368318514 4.835485463536811 9.098948935266604
Bi 6.327376781268832 9.762465131149272 9.264243152509513
Bi 5.151118378191232 6.432789990980224 10.4617268297847
Bi 4.840885558225574 2.463853110292273 8.745672951812464
Bi 10.611863903225618 0.5070175443041202 7.248107733385455
Bi 8.042088568917993 8.147859767364496 7.286301465396601
Bi 2.2447946745531904 5.605886346350472 10.420576771232268
Bi 7.5999321947587015 0.7015516916007031 7.004526949381559
Bi 10.568369493292808 4.563892718961762 6.652984936952788
Bi 2.4787595476293105 11.5744660831127 4.290208301301558
Bi 2.05254638744063 3.567706237887644 8.155536808573352
Bi 5.385342005277428 12.35885758029563 8.04807252691655
Bi 2.5614569957481876 11.476433182750338 7.310778191562786
Bi 1.7056041894442648 2.404041033850506 4.308839996360991
Bi 9.325721892294755 2.323510567567066 5.078579027737919
Bi 10.52597827061421 4.8958536886234985 2.2719783800280964
Bi 2.7670153027702984 8.417822805436616 7.343732413448577
Bi 1.8454014799228065 8.528184327474369 4.419899153730806
Bi 6.842432978593778 12.415366468648047 5.425039812056058
Bi 4.00881411730164 2.3840359833730647 2.3294839780043235
Bi 10.509716125239725 6.8471116334390985 4.6190397953073346
Bi 4.369727681033012 1.0651122332742697 5.010349764844689
Bi 2.444280331395448 5.115018179134846 5.583059252209413
Bi 8.104135828109511 8.2828650349836 3.36450613686701
Bi 7.699957650135853 3.6821553980643023 2.3501754204523606
Bi 4.761822466720808 7.847874521366382 5.1125988955330275
Bi 5.3013916588311165 3.997271499001525 4.616794443836523
Bi 5.2673494608250735 10.51294921559824 3.6769812439969094
Bi 9.263195969366533 7.229130288713723 0.7121687268753776
Bi 6.488592612387349 6.355447269398025 1.616944159330771
Bi 9.251252016686207 10.697127489672505 6.055278476430137
