38
Energy = -138.94346688 eV
Bi 4.070250466583383 10.650445758851328 11.564502632512534
Bi 5.624717807811081 10.89060993253066 8.87550346425185
Bi 9.716441308560578 9.64871005918239 7.555196141051822
Bi 2.55667107633791 9.953165316462362 6.583995606199645
Bi 5.645273579121379 8.47070522633273 13.024159383237699
Bi 13.15156993349513 7.509431600543 5.853251710217332
Bi 2.9949174192220553 6.942831247398681 12.788798618420953
Bi 8.270737230244437 10.183604276797425 10.191572823559868
Bi 5.507759363116149 9.881025119801839 5.512333012929283
Bi 12.238894848346435 8.330591150168633 8.619020053587175
Bi 8.957273395029238 9.43272505891391 3.7827966050110717
Bi 5.04620147230272 7.857400952831563 8.529524549617419
Bi 7.220883762283164 7.314494921127263 10.634910766852864
Bi 1.81166993286072 10.604658681391674 3.6807130218117208
Bi 8.226073247034831 7.443674283302049 6.048130854739146
Bi 4.942620383758002 4.858156163028225 11.606239906886717
Bi 9.824173844971074 4.398487213327334 7.288212845151388
Bi 2.5169708385011162 8.432193160295126 10.167910009087725
Bi 4.698198191931157 11.134310770371805 2.8986091551812527
Bi 1.732981469853951 7.721500048464192 4.690030717253782
Bi 6.201190752121426 4.459474203721033 7.215944925643049
Bi 12.645277170418302 5.39318782272851 7.969594080922938
Bi 4.6401705961008535 6.76494231619063 4.607551857176783
Bi 4.701137788274557 8.164441169708056 1.860255138381652
Bi 7.665498478939685 8.46944188303436 1.190299145262209
Bi 3.598072541338395 4.361274281604679 8.923731958020843
Bi 10.053184740744763 3.1076886903374294 4.536270285908679
Bi 10.63116100643743 6.896506490072508 4.209503869664856
Bi 7.356943300424262 3.1729644830252255 9.748099301653426
Bi 9.616688911993377 1.5436120236895923 8.47149573448369
Bi 4.611876918242924 1.9652952855507033 10.467245227979161
Bi 3.7772494126805456 4.494181398728033 2.4340851194679116
Bi 8.479484992260709 0.7483078594950028 5.756981941073466
Bi 5.218213799406588 5.532035604625858 0.020548238484931237
Bi 7.550249233478905 4.673626669848391 3.6645026209465925
Bi 5.607613598116426 1.7258753941043508 6.006347427457154
Bi 8.173098100349266 5.466555324569066 0.8058484499334941
Bi 5.816985644548154 2.3066661835082924 2.9983838899411066
