36
Energy = -130.39627698 eV
Bi 3.442612873699308 8.842604133910084 3.5646971341944917
Bi 9.964554430282272 7.173727167033896 3.4760712503643534
Bi 7.716844388611057 9.599243417585159 12.200158905055057
Bi 5.8628490896741745 11.581911682479005 10.876625805016213
Bi 5.243909486928539 7.433662723089784 9.415175248704962
Bi 11.932066277918127 11.242302966753249 8.017252892599506
Bi 5.880206504109485 2.5903301663728655 10.029900720768994
Bi 12.019227755972375 9.26923847618521 5.687790477255439
Bi 2.16404818616208 7.446528047868805 6.739255178370202
Bi 5.347021107777989 5.486411559715234 3.166068989855898
Bi 7.740265475682388 1.7854372460659742 7.731255973021564
Bi 8.409247105217709 5.273717743425099 5.246089206337501
Bi 9.106000444884788 6.1111139677515505 10.111026440133001
Bi 9.2263954217335 10.302261554815665 9.469860703452756
Bi 9.884154524013788 11.419771361294263 5.874266131003064
Bi 3.7251616597340513 0.7793959975326532 8.876757099170751
Bi 8.644678940078123 2.5438990720607935 3.8944654014109186
Bi 7.268809235442638 12.195778141840195 8.069367374402152
Bi 5.925287646080168 4.587991546385198 7.677350439546641
Bi 6.6134728481841885 6.795997620813157 12.006518212094921
Bi 1.386455396992775 5.063149588950711 5.149555089870128
Bi 6.080858619050366 8.041083953294265 1.6492106267176085
Bi 4.8808276746683195 10.76402314742744 6.741661807533191
Bi 2.5461058078026277 5.930215360864461 9.433117012684937
Bi 8.580742636765782 7.9220323892820605 7.739321852075041
Bi 5.629745622918902 12.195778141840195 6.750589225359657
Bi 5.337636841559434 7.821730833069491 5.739163788627916
Bi 3.654927994606365 10.016503497181354 9.465217787843214
Bi 5.850073781004719 2.4417925250005155 5.177274348604447
Bi 8.683017819250184 6.21705341231369 0.8823195452875217
Bi 7.210608903978748 3.6541418541684147 1.424387712436975
Bi 7.7033291516757325 9.178749997476013 3.980605618660132
Bi 11.518467282182682 7.204682978477849 7.984515571614445
Bi 2.420618921331969 6.175824470714635 2.5271471666523
Bi 10.213133705334151 4.411245815379194 7.611302199712817
Bi 3.0424800147000886 3.570516086931588 7.514581622355405
