39
Energy = -141.39197998 eV
Bi 9.620454751475451 2.0279670542845203 5.365752952872222
Bi 10.157848936122756 3.0850348387446482 8.172524684611245
Bi 10.063492311645383 5.747178830452386 3.3472914536721166
Bi 7.220486823848218 3.0125764808825735 1.8252114100200239
Bi 11.959349173064302 6.117519369790398 8.141295926625883
Bi 9.285834891789573 4.773891100048718 11.551793205800786
Bi 8.529111901474568 0.47095823675074416 7.741548579253209
Bi 8.549671398862468 7.738745341002099 1.649644740242554
Bi 10.891949182632535 7.723947427071935 5.704798332560571
Bi 7.028695219533226 5.569508146449905 0.14808357708809258
Bi 4.909565058179564 0.7652309456313502 4.7559689065077615
Bi 7.67349450741762 4.290490077979119 4.548207034309285
Bi 8.925351500225121 5.8314830949100775 7.462665358890791
Bi 9.817221909326653 7.341173192751191 9.942762066736108
Bi 6.812743425855971 8.561287027673147 4.0363504747965
Bi 9.684469938915779 10.055048934479801 7.394001219786477
Bi 4.209742361992187 3.7267503856723296 4.89220582834443
Bi 5.049821037034827 10.883957686398674 3.0104453386930388
Bi 8.249301124320572 11.125354886327052 4.908671985903862
Bi 4.134664551997208 2.9252532794217885 1.905625494141842
Bi 3.9954196506599295 5.719160399613613 0.5940616227559655
Bi 3.5934430967821926 10.871540720489248 5.656961128285312
Bi 6.6043649002217 5.924209562607782 12.466166307680178
Bi 5.563444548108753 12.526807253783906 7.582567107770507
Bi 5.954017253907829 7.775756655772386 7.39641410540155
Bi 5.490545981309398 4.303286288501353 8.218823073840209
Bi 3.613884157645902 7.1205389045006156 3.2541074817816305
Bi 6.720889301097796 10.752556369526454 7.534172544040524
Bi 6.689691184661821 3.345364741461361 10.867847337999544
Bi 2.23780259772248 1.687475382893928 5.9784120585336975
Bi 5.637002957194406 8.072820524022935 10.498014017962868
Bi 0.9359136722604314 5.700187967492603 3.5472481763066335
Bi 2.5633913917240205 9.503041334990927 1.7517309314111766
Bi 0.9636495807182494 10.55919141095859 4.105304092012449
Bi 3.496134602151607 6.05383957234985 9.786155447785294
Bi 3.5795729954259277 1.9712124227217767 8.737393705253318
Bi 0.9828886723843 6.160647707586976 6.537439884232669
Bi 2.9021575081121904 8.270738944839316 7.573365035075567
Bi 11.9593491730643 8.012101481684354 4.724406677005494
