32
Energy = -116.14930234 eV
Bi 6.445243456141069 10.976325382103292 4.8962011860339905
Bi 3.9275833172150776 11.134759044670924 7.833830265925878
Bi 3.4478205279440326 11.130585979443206 4.818322134755568
Bi 6.519900068822337 9.512955083194365 2.251589431614491
Bi 3.7772915817413644 8.169099065278097 1.8426133128177957
Bi 9.633493562079122 10.454383940329745 7.676203706454491
Bi 9.34787832158271 7.867879212076933 5.168488317481855
Bi 6.70751662695436 5.492493540199357 3.5439945579661414
Bi 6.752840726290435 9.306844047503835 7.6736440499138725
Bi 2.718646424779308 8.532570496139781 8.293452526593438
Bi 8.758048594238206 7.441902596529271 2.2625959807070837
Bi 10.490531561779667 10.369222602817306 10.622581111461269
Bi 2.692066743786559 8.18553605239376 4.643522311170992
Bi 4.1954633173168565 5.136514278441325 1.8326500064657187
Bi 10.83597083183488 7.887415975132961 8.877114702479194
Bi 6.315985455547914 10.513837144928216 10.529456267538844
Bi 5.027594216404378 6.7192929880175685 5.9968746148008725
Bi 3.6106051278090088 4.188605014245761 4.711104320662109
Bi 4.90138319467321 5.817172155200091 10.191152074921701
Bi 3.9914886638737364 8.586482931754437 11.059124147136618
Bi 8.281136722851071 8.611216139489114 11.763872472804497
Bi 11.970596437138056 6.276662606813759 4.860681363664291
Bi 6.019802825208383 2.4595080426962452 3.803579586543357
Bi 13.367978793166312 6.922547271520331 7.45588606838006
Bi 8.659343255034731 4.908422727147297 6.535045882241796
Bi 7.823474152277347 6.5168214673520275 9.40272571913566
Bi 5.990827344220361 3.4659891437329637 7.862964250834012
Bi 6.217510061962255 4.245667138748581 12.513421603232468
Bi 9.018723370102387 4.535901266600553 11.394801445407628
Bi 7.8497247918917346 1.8821185509923728 6.110472138807426
Bi 11.721424810277364 4.378666234111078 7.229436372868792
Bi 7.216074092831296 2.275210330210009 10.420598190958017
