35
Energy = -127.79268717 eV
Bi 11.536368223920453 4.582105976297868 10.07809828052808
Bi 8.552936696044053 6.085746342731407 12.90507472241117
Bi 9.932629087408829 7.1253393095713795 10.434585260549577
Bi 11.721779559764018 4.395166169362243 7.072395209048484
Bi 9.98565729690674 2.1135962085169844 10.940553515951363
Bi 7.443026770868628 3.398222502770615 12.037721486711945
Bi 5.751546241157287 7.255038922990461 12.711607872812829
Bi 6.0210551525608285 10.142056620511553 11.774057648605151
Bi 10.023783457897768 6.784421212907899 6.0735811902384125
Bi 7.830219309119914 10.138665954947538 9.321015842769366
Bi 9.782110419188076 2.22017313348444 6.214662611241491
Bi 7.804572495709647 7.187391120804129 8.251339214614369
Bi 8.219583023921173 1.2175973747572626 8.625921716928964
Bi 4.7542380749011155 6.944897544991568 9.797610615603354
Bi 6.8109329397311615 3.925167744403474 9.114269847159587
Bi 5.968290170846934 11.778814464522972 7.545495789428138
Bi 3.2307338189674013 9.415579951587066 10.84543120754909
Bi 3.8623471272456356 3.954056742288707 9.979730582751246
Bi 7.911877514320953 4.565611736950377 5.532572298967506
Bi 9.394563322603602 6.589856346567876 2.1297467328774555
Bi 7.684267483770337 8.412821173489618 3.806726499751848
Bi 3.1498574478567516 10.822612235067208 8.16708261111434
Bi 5.02381444298268 9.086603910118086 6.477711633206782
Bi 7.728565284683611 4.083081775437522 2.53418855289604
Bi 4.493171520268025 5.5829042275403395 5.819956201550514
Bi 2.3424827945570175 3.9507367590278055 7.322366610234995
Bi 9.949150397967458 10.117717859554814 13.272605892068999
Bi 8.264452588639834 10.902406050899407 2.120409662462798
Bi 8.56755326346662 7.441529904136236 12.905074722411166
Bi 4.781750594837421 4.9518724630913 2.786941416036795
Bi 1.7716107611260925 6.889069075327757 7.764566727896204
Bi 5.209862626663222 7.908192267822659 2.1291579864496595
Bi 3.33118156094289 9.526429534930472 3.9804712010337346
Bi 6.936522237548346 9.994143741613298 13.108139798655209
Bi 1.95004685635822 6.9146603745791575 4.730101140336911
