30
Energy = -107.95750121 eV
Bi 11.195210979838105 1.8067620529734036 7.066050157792905
Bi 8.441670897705333 0.04971315445958903 4.023344120690508
Bi 8.978250485981684 2.9599705627935418 3.433445449855725
Bi 9.415995824004563 4.1810795574810635 6.170620091743116
Bi 8.476283716118436 2.3496622132448075 8.420424516476833
Bi 9.494144845048645 9.768246544323176 6.591051534262338
Bi 8.979931808189109 12.624430391852428 6.975816547894801
Bi 5.499085677491332 0.28878485271421195 3.254621881494748
Bi 7.566558054455441 6.471614810340312 3.09301551061496
Bi 10.022369940107742 7.453448024579903 4.694730691967382
Bi 5.524052700361338 3.4049863002588023 7.210404559977151
Bi 6.09481021494912 3.1696726715982457 2.3554055194113617
Bi 6.435731078815493 6.307742742549728 6.730568887574006
Bi 8.272104730746596 8.881714142846956 9.49617519139526
Bi 8.592361140868224 9.284488641514146 2.6838440119748883
Bi 7.339014411937573 10.994614576233996 4.938346746062793
Bi 6.355917166021872 10.571345076548113 11.408783563125978
Bi 2.8849515409684847 4.114188592377196 8.613271245065786
Bi 7.0673369003034425 6.058831797032589 9.712550447296977
Bi 4.143190823403813 2.6360578945225464 4.612435110929244
Bi 4.630377454803142 7.420068757763983 3.159348724053661
Bi 4.233168051587129 6.868296975999717 8.851368948006204
Bi 2.2911865222325303 5.57709322269159 3.6954757044988544
Bi 3.7812558066149595 9.713439338960242 4.8683718258759825
Bi 5.959139519686925 10.023131649971415 7.727212755370522
Bi 1.2363663814374255 5.585732620971585 6.528942835950608
Bi 5.647567656623667 12.624430391852428 9.331721984922627
Bi 3.729675622114559 10.390594174674122 10.012365046639857
Bi 1.7200662167618372 8.591867971268075 6.8138546211061835
Bi 1.0940730598186412 8.481934119028173 3.8225678805629295
