36
Energy = -131.15306554 eV
Bi 3.952124883688435 3.3864773947680136 11.656345047808975
Bi 1.6454617064598325 5.188172651165972 10.83529004328974
Bi 7.930067861410349 1.070962041758865 7.016074798800169
Bi 7.013113276348252 1.1162365336964553 4.111067982791481
Bi 3.9836348877206906 3.4792934010091483 6.748622474583192
Bi 3.320429995685723 5.940522160574515 8.4122895842165
Bi 7.197574708326915 4.971739974084994 9.376709316542197
Bi 6.0281923255064 5.596241551366703 5.908824534119648
Bi 2.607605219248101 7.715650292920204 12.28748734470765
Bi 5.34349102829531 7.456344566885194 11.115477709553625
Bi 1.378835947642204 6.722808902318149 6.118895972872165
Bi 2.61131780652466 9.45312170918272 5.60635603922184
Bi 3.7383004973536 6.956755170075807 4.231025227178677
Bi 10.555663582256683 7.343815952286912 7.789819802839265
Bi 4.390463036180518 9.295339923064692 8.088869555532725
Bi 2.9593744068552152 10.361462775700128 10.633918474704528
Bi 7.151163039320474 7.708962747277708 3.1291882738896306
Bi 6.902907464356131 10.69683864926801 3.777931423943248
Bi 9.427975763351197 11.182442344128726 2.113208318767189
Bi 7.726838777693463 8.566775171686277 8.092940805081273
Bi 6.404836790024752 4.90913138063329 12.424092649032227
Bi 6.257587117400339 4.047930961293468 3.2283205559497166
Bi 8.34001490018264 11.091040877204199 6.41393102425544
Bi 5.730539695572871 2.3233877807908914 8.977592799485869
Bi 8.999746073868817 3.672879755252275 6.033860715604872
Bi 9.764255659930543 7.384857382461758 4.790680896011485
Bi 10.175034755807436 4.505983891556629 8.772475394055888
Bi 5.8603153104558645 12.024313305199293 7.972459666510219
Bi 5.5836134998330715 10.32656411343589 12.191158782707499
Bi 8.742406853571955 8.573002798725948 0.6537914918493692
Bi 9.933573756045398 1.8499383318017495 3.647414906953695
Bi 11.510546212161664 9.663200574635932 3.7665324221633445
Bi 8.990149275092373 4.081136635563867 1.7611239955717284
Bi 7.731103718857827 10.984779405180822 10.103284594989912
Bi 11.368943492700058 5.415704721700192 3.1028286368840665
Bi 11.667033849564506 7.8741443595224885 1.2938272503019435
