38
Energy = -153.25352786 eV
Bi 9.218681516831769 7.245450280597378 4.0385638378482644
Bi 6.291913802873092 4.759743487736084 0.5459488525771088
Bi 7.068405965851866 3.6265508908875552 2.73854152759017
Bi 5.411242328594457 6.017945395999477 2.6400164362696805
Bi 8.304040019251442 4.8874012775659175 4.795473951044801
Bi 6.696493025087543 8.301882080326669 3.9939233409800776
Bi 4.388024285920511 3.4512273104663223 1.6675564685121496
Bi 10.97589487815924 5.51501815060933 5.3951625789059605
Bi 3.0486268860014785 7.191282726930135 3.995180567025798
Bi 5.05752646523681 7.209129106259807 5.710289611193878
Bi 6.967698648120006 10.43778762465012 5.684269295645262
Bi 4.612311430626749 4.123851143690317 4.167181338460572
Bi 10.743896786280729 8.61757962820411 5.876814687234306
Bi 2.2573555613800944 8.4218972999098 6.182764677066293
Bi 9.81306002048439 3.2446191862685185 6.229605938970488
Bi 5.660754960656363 1.5286802558175012 3.032889791430294
Bi 0.562113483457934 6.5476608623743076 6.693200708674474
Bi 5.236371403225779 2.0921127596991314 5.528352307653293
Bi 2.6600984929067804 5.352859615822861 5.779349126192454
Bi 5.02710240702078 8.749690420330797 7.701743826899911
Bi 8.144470390317654 8.124134960467382 6.319247546630465
Bi 3.524536835868752 4.4336840558927095 8.016314456334507
Bi 6.438063652949873 5.172983687007054 6.4723044618214605
Bi 11.921683443283786 6.869730939789601 7.473129212850988
Bi 6.330359180680498 8.124719816764577 9.905427850893462
Bi 2.8334718758353987 10.143225125962424 8.044861723222565
Bi 2.1945236680331512 6.512565169189845 8.613557948256156
Bi 7.325369487025213 2.5602483447647404 6.8508846241283425
Bi 9.200419415939432 10.562249036490083 7.016352755967079
Bi 9.939983937079118 5.192340088770415 8.015089034480742
Bi 4.157511054044443 1.9487232984865364 7.865991244892227
Bi 9.914072508293609 8.177972361017867 8.556278664334094
Bi 5.053408742441907 11.422647620097955 7.31578698106957
Bi 7.698078248264106 6.57234258674682 8.293176016381368
Bi 5.901357660696222 4.13543024545854 8.838074332081957
Bi 3.5546599632771625 8.322721490693059 9.882280650483866
Bi 6.4720944477391855 1.6579762554507744 9.081178042731107
Bi 7.01310087458157 10.362713167122793 8.66201333758312
