37
Energy = -133.8637379 eV
Bi 4.8336672132049685 11.759312029529267 10.289113064914062
Bi 7.494777357545681 12.373322324799327 4.890791311919464
Bi 4.3341926137246745 13.372523147800306 7.747766238828883
Bi 3.64671501425455 9.45274077290969 8.544488409910867
Bi 4.148059073862444 9.290402243912412 2.4514566643269884
Bi 8.358179438144571 8.349712620371816 10.3186087975941
Bi 7.77252949906334 11.771553014387676 9.594805814515441
Bi 4.831861047186063 11.109130887892361 5.6409537819744004
Bi 7.81955554202862 10.113207180212111 6.958783364438068
Bi 6.859710014867678 8.847095787406746 3.7675679933911708
Bi 6.049376344002202 7.581618183561645 8.33071432246118
Bi 1.4938737190115605 6.749202358985971 7.706108578917482
Bi 2.380991647689396 7.423133105897928 10.527816430784414
Bi 3.27096491088562 6.401342003801098 1.7815518634597343
Bi 2.390996188562372 7.763672155106362 4.442288558319309
Bi 5.0836614591316165 6.544737658952039 5.278970323319935
Bi 7.278882757257764 6.844162656881077 1.446950232981315
Bi 5.125282938413352 6.056697225279191 10.818267486152353
Bi 9.803633261255689 6.837728466859659 4.67261118928431
Bi 3.108650265044398 4.4318937240012195 6.827565439167412
Bi 10.502692881270182 8.623101382013495 8.198770975257531
Bi 5.575304003109161 4.676781210680388 2.79562402971763
Bi 3.6680947584038295 3.5425805070087004 9.630459855225807
Bi 10.298642138853273 6.275124953773393 1.6954455272722095
Bi 6.831870308166125 3.0842757318408793 9.377694312163332
Bi 12.558380028258982 5.777475957637683 5.561181731420345
Bi 8.605769054003368 5.23760625136169 10.903197304871654
Bi 4.170932181409758 0.5643008009297115 8.444841697987915
Bi 7.153257808563364 3.8043287968973387 6.397335829922777
Bi 9.557440265969941 5.713499833279176 8.043721846043226
Bi 5.934010176950109 0.9106897782198212 6.024950489232861
Bi 9.226771300219001 4.068291683750321 3.4235048962062686
Bi 9.594695227275627 1.9342361388087395 6.722916548677976
Bi 7.091567909639221 14.016581415665796 8.665707158619927
Bi 11.913375159758294 3.7366950152701754 7.789522207178284
Bi 11.834931701119102 2.9056641037378235 4.6703895278772185
Bi 7.2971901013047615 14.016581415665796 7.518041505074964
