38
Energy = -137.52460079 eV
Bi 6.045449910979333 2.998090895781184 10.459925297257193
Bi 3.666702361356331 1.9032873454808588 8.907570657432265
Bi 6.085823390581273 0.08311120178886039 9.583324244958758
Bi 2.546052738610369 8.209787653374276 8.590982236465859
Bi 4.975714471514192 6.455647149662953 11.056977916576189
Bi 10.013812875096916 1.5932251745250086 7.472419148677063
Bi 1.3692409844411206 5.3301116001399125 8.668497127039233
Bi 8.649295429086692 8.738861049548785 11.216885555004055
Bi 5.799646415087732 9.333648918641956 10.330886004618353
Bi 2.039678210838061 3.7877085430471453 6.196996763824548
Bi 7.950559727977874 5.891341611503125 10.156553209918254
Bi 5.658146516291217 3.5959461232927747 7.293139038163568
Bi 0.5536788189659276 9.653072031673105 6.8029440406593045
Bi 7.125522312851931 0.8862758422096503 6.829960986063382
Bi 3.465767608682401 10.560485752992962 6.591629524684054
Bi 3.3877530640477898 6.553509396373228 5.182339039550997
Bi 5.741460472555945 7.101992861641543 8.206040899380614
Bi 0.5754298243295536 7.530356384408415 4.588191692050751
Bi 7.5098283332747835 10.487731457075421 7.241131306391349
Bi 11.877855332690691 5.283263647243108 6.395621317086129
Bi 10.283368427669341 2.666241134706336 4.666543974129429
Bi 8.10861006081697 10.797202448248845 2.5384492265544862
Bi 7.370665218450727 5.197278648326033 3.8447804752567176
Bi 10.048118193754785 10.128520242075377 8.887088329932617
Bi 9.225504329295186 8.137828390151919 6.011974057542946
Bi 9.197896821908861 4.522065797467703 7.113322507824343
Bi 3.4459822169845773 9.579802271777488 3.8183906606896265
Bi 7.81336271449135 2.3765872984830203 2.7992972371302116
Bi 9.018703627139997 12.214023307914754 5.1307661085824385
Bi 5.107739057135061 2.8148444147811347 4.105211097885408
Bi 10.914870915815698 7.072236614413367 8.363557752216833
Bi 3.8092000935566306 5.15808838799262 2.4561128906789382
Bi 6.346884577356257 8.67962072839473 3.9000931749926155
Bi 10.264668961332857 6.49252169260483 3.296902634717865
Bi 10.850714891103188 9.397369247569282 2.4462108459333383
Bi 11.350674574511984 10.226651631395564 5.352353885996207
Bi 6.237193723683935 6.773618058509782 1.5075385767202647
Bi 11.877855332690691 5.541548222630654 5.695976870231935
