31
Energy = -111.61776189 eV
Bi 4.42855319456159 2.738852681742606 9.16961606991038
Bi 6.836577231210485 1.4978962960032698 7.871943292983933
Bi 10.760471215131087 3.022120065203586 8.594468750456882
Bi 8.256278897107268 2.53121598039946 10.462058409537033
Bi 6.517749561865563 4.246671878041004 12.583533527597648
Bi 2.7396129582703828 3.792705875943115 6.887505860951666
Bi 8.422436443013495 6.586255429468183 12.858410755863565
Bi 5.070540758439269 3.0061085778455 5.021530405352062
Bi 8.726011850379388 3.853773134272619 6.490241920059619
Bi 3.616303187237301 6.457615871187052 8.185678226456377
Bi 10.677832133274762 5.91445705364148 7.8943401128455735
Bi 4.63706776613883 4.481995735271562 2.3066383082940027
Bi 5.75037949258252 6.897641212641753 11.480809384015405
Bi 6.843514572667877 4.81353878961012 8.909603544822142
Bi 8.751209370616518 7.279401966020299 9.88009341289303
Bi 5.303285012367302 9.517733959227186 7.991668705283515
Bi 10.1824446701662 7.423721759403116 4.436767282027854
Bi 7.105440554581945 11.86418554080256 8.473790186597691
Bi 12.138772128753503 8.853362539756052 6.118294346767664
Bi 9.924549534644871 10.233807421694545 8.072321962625962
Bi 7.951338753960868 8.479739389325267 6.474259391290434
Bi 5.6886686844555525 5.968658900161768 5.572461874581479
Bi 3.2917543779394363 6.889902688846936 3.9800987820392026
Bi 1.792430243845823 8.217386066648903 6.485158715681094
Bi 6.776511467281968 6.575752689701598 2.556207214059929
Bi 3.7192223357260445 10.364175039514166 5.5673147742713125
Bi 7.076341663162223 12.97849695080028 5.692151045878804
Bi 10.996132203950658 10.331167207467182 3.6906035909958894
Bi 10.08834466286773 12.401618430992388 5.850214854162949
Bi 7.604141499785569 10.400290342882382 4.123310927535665
Bi 4.986714108748938 9.169710113911576 2.8132175639750496
