33
Energy = -118.9728912 eV
Bi 8.96117614179679 6.876200833853817 3.1169791248496432
Bi 8.73093671526331 7.089027921295484 13.012254898790893
Bi 4.252496518045654 8.83887636161143 8.019904382684302
Bi 6.685889632314426 5.1067737747992945 7.765225452791353
Bi 13.879178849057208 6.5653963430135445 8.342717303647943
Bi 12.631077574032604 7.088131216395617 5.594491295232991
Bi 4.207857294929121 7.225613104764388 5.347131448726386
Bi 6.3636471012845455 3.316421547716761 5.267758121280205
Bi 10.49320105526379 11.500266357204131 7.6774558048279715
Bi 12.584518618419109 3.796958759923561 8.407722628557105
Bi 7.804608884302949 9.26446480747681 4.665320820327123
Bi 6.943837968713558 10.281917661756067 7.9561313473943125
Bi 3.786124053845245 11.564439462156024 11.064477474014318
Bi 9.768868952693847 6.0743655587708325 5.971022765517572
Bi 2.3356396305350406 11.901523683138072 8.397702295724946
Bi 10.703118693805298 10.154509493955679 4.928610209855045
Bi 11.376045647645366 5.9695410556023605 11.917651841448341
Bi 6.143091297559614 5.76025502162699 3.4427355997840747
Bi 2.449128902375989 14.23657442923081 10.324135017133013
Bi 4.480597399636417 14.024216901068904 8.038692104442015
Bi 6.436031294140695 12.617431245972378 9.932796816783512
Bi 6.718736737276486 2.1886935414435422 8.613876188068822
Bi 9.76024892793266 8.637636807985466 8.759488165901114
Bi 5.474585672420712 8.16520220454558 10.823486697845432
Bi 8.645213129776195 11.9826232873733 3.5840809004559273
Bi 11.986688909231413 4.081279878953289 5.4080174062364685
Bi 8.22125301253153 9.563132062364868 11.252792923526743
Bi 9.901038750720831 4.8918397946999885 9.473988632857457
Bi 12.386713168323649 8.347285354654339 10.342726025858779
Bi 7.952098638635336 12.812832755649994 6.460445223346534
Bi 6.918309773600392 5.47450874645032 11.137794222855362
Bi 3.9125343857376857 4.489333138846132 6.687811416914241
Bi 9.08149774976054 2.088717967308567 10.240566523928747
