35
Energy = -127.88778012 eV
Bi 13.400984800204368 7.109058751438686 6.1412954106079205
Bi 10.817243162871753 2.798853658987552 8.014236098981172
Bi 10.511945386942964 3.41779301208566 5.0486850880396
Bi 13.510769986851333 9.848046333391212 4.848775908240891
Bi 8.343741573326575 1.1439835702776049 8.770119978499144
Bi 13.470202381617202 9.6155084381015 7.86523891111995
Bi 10.366585584291753 6.4621484842958115 5.923611591842157
Bi 7.052110621620027 1.0681675879907047 6.025177213078087
Bi 10.198202224815578 5.668325043695767 8.944844091270742
Bi 7.534340088263763 3.984412029226232 5.4552963010318996
Bi 6.784431555812201 3.180709920856588 10.384049735573189
Bi 10.37182354802294 9.215742758408634 7.713200121126855
Bi 10.693108350339552 10.958051655894227 5.243605275067088
Bi 8.828680453174247 6.93048831599282 2.970325057984791
Bi 7.221574312384898 5.4264888482481375 8.426450138976213
Bi 9.107776426220058 9.957084098354462 2.862391293919649
Bi 4.0888099267889695 1.2899235781973883 6.641549326220317
Bi 5.568915545943641 4.01121341230127 3.0867493706681355
Bi 7.423383689756341 10.16623641351134 7.934232219477274
Bi 5.8239088005070405 7.013919698422599 2.612127108042315
Bi 6.340999906813198 10.782173819337176 3.88925156022905
Bi 4.058493870448703 2.1539868354897798 9.58535077691168
Bi 6.614978968129966 12.60710254839204 6.369399335814502
Bi 5.839971639623973 8.205710892915487 5.487642879248309
Bi 5.3440087700219845 7.735483533352429 9.374877014720628
Bi 3.11820017501588 3.641381784171344 4.899621507421119
Bi 3.7007506636508114 5.780823232779445 6.997698387847355
Bi 6.255813163622196 10.304796014426477 10.760522000626773
Bi 2.164569747930382 4.539534345489154 9.284283898403068
Bi 3.166091866444757 6.695454023319551 11.228109889172238
Bi 3.635441985500739 12.039308525955148 6.904120024872907
Bi 3.151829143875028 9.59924160537014 5.146489195580253
Bi 1.4028897092255252 7.783817494427601 6.868956736879349
Bi 3.5238785866503197 11.283899963165267 9.847631348553563
Bi 1.6105181145039604 8.878323756848566 9.716920949688383
