36
Energy = -144.0721212 eV
Bi 7.412984628904854 11.274608096109265 6.397582939632998
Bi 3.8844088375801324 8.913595127191119 5.129861280225678
Bi 12.442848587159492 5.896057682322673 4.131022646978393
Bi 7.337098037284821 8.765748850976607 13.66408926898646
Bi 7.330349433513377 10.81592394353839 11.26977685307187
Bi 7.637734377724324 5.469109659381465 5.350550559742763
Bi 8.94390848292086 7.862280831464254 8.130748046455807
Bi 11.030242839231438 5.97429231542889 6.435186794227687
Bi 7.208525004142038 4.642343116473156 10.494291478493036
Bi 4.995061892700137 7.479540387273194 12.825791243734619
Bi 6.013218606519498 5.612010455786229 8.267916635100711
Bi 7.525375029741122 12.929352090844942 8.566761571063735
Bi 6.629389451330757 13.637211713323717 6.026152785567903
Bi 13.471219373997235 6.797703748973857 6.505883245245606
Bi 11.047475680071111 7.78958485328531 10.89402815733764
Bi 6.27701420003768 9.736156403525491 4.5120751306060285
Bi 9.73802139295931 6.56611915934219 4.142684322712628
Bi 9.746393892765928 7.209977661935365 13.279454251053387
Bi 11.48440617109274 8.51132737867545 6.76417689678062
Bi 4.815896090089922 6.1817979843160975 10.4931233670027
Bi 5.163769929686091 12.473081270888011 7.814915847684785
Bi 8.684559389547282 6.779002019901787 10.720598529147836
Bi 7.371181619015425 6.109523787569848 13.278079345366276
Bi 11.117845923027792 8.085611341105013 2.670529465466063
Bi 5.436629689742953 4.653828190305355 12.520026937049563
Bi 12.996995739872652 8.477411000263695 4.484126869380271
Bi 5.016057216000665 10.058997296581781 7.071863948632566
Bi 10.19080666348394 9.453894849213889 4.728390717078111
Bi 10.785222015669811 9.618766366479495 8.968326806110458
Bi 6.366208211270454 8.330458804488671 8.380220563117073
Bi 6.650600684432277 8.363851290625917 10.952787148663365
Bi 8.081730508136307 8.159528060327938 5.679312452133189
Bi 8.388172985297963 10.539912912432802 8.844821981678416
Bi 8.803942009182613 5.229374616369448 7.694617646357084
Bi 9.46205283287632 9.562472227647584 12.093448657934784
Bi 5.63482723124641 7.161719163886328 5.938950268435356
