36
Energy = -131.04825381 eV
Bi 2.612266518682934 10.24089039963603 4.268813307278181
Bi 6.485813762655823 4.333652928904211 3.2113250998989122
Bi 10.864111188918915 6.81411930105863 3.036235045769584
Bi 4.1998020067348945 7.772406990613066 7.6904519147408665
Bi 8.992907291117838 7.629236483499684 0.7898186352121871
Bi 11.342279957594247 6.777716603662441 9.647194720146478
Bi 3.3359872803571387 7.4204102237953755 3.4297130897405874
Bi 8.51766222287701 9.054674528237967 6.612311215825233
Bi 11.83809195277253 3.1439055899453363 6.662461347976627
Bi 5.367741617210144 10.75464024107005 10.901182055463904
Bi 4.436301847335534 11.936444318903249 6.054489100079179
Bi 5.249681035970114 4.6436039432197695 10.696156531451301
Bi 1.6829691219465146 7.861201504411354 5.935662401692761
Bi 6.206973906122433 7.091368208055846 4.60909433239997
Bi 3.396556756977739 10.558141479477507 8.582713007246666
Bi 3.9904909236089035 1.2203173981812636 6.722364088665341
Bi 9.299972346448643 5.882663268605867 5.506255287236156
Bi 3.9764183598899345 8.418792561072408 12.351154763167838
Bi 10.159571955533945 2.2671753478145114 8.993636916028976
Bi 2.5571676594736727 3.0219023091699144 8.669459170823597
Bi 6.999086521569371 5.175231069998967 8.227116443941222
Bi 6.559580136019609 8.820578955719585 2.129967968870185
Bi 9.837484517335142 9.418713005338574 9.386723553151691
Bi 2.893479817398832 6.546630234712033 10.136912314711317
Bi 9.163142731515956 4.804211828052697 10.36828767752714
Bi 12.087196471470437 6.123690640536694 6.773968568158507
Bi 3.8134777143461767 4.219626880700048 6.15813529447089
Bi 6.63776951601509 6.834530134391832 12.417585495044118
Bi 8.369285634762763 11.097975789228343 3.079277115844385
Bi 10.64824432305203 9.670660126339849 4.522810220684066
Bi 8.878179466117043 4.678441325178681 1.4075455871482467
Bi 7.4226768360847935 2.238225240731752 7.4541472973337
Bi 1.3399836301645207 2.497553181255858 5.947052537005787
Bi 8.814936201833767 2.9428453938576857 4.787633671739505
Bi 6.992994171634407 8.40766396512476 9.840372867490306
Bi 7.479848106635439 11.836619989220068 5.911848324996687
