34
Energy = -122.6752461 eV
Bi 0.9647355271073672 4.106785579653484 0.6975468127555349
Bi 1.335521457430357 1.5918233253036602 2.5295889744100344
Bi 6.1663842420260435 3.4812316291961807 8.853272037309447
Bi 6.575042223053776 7.574744158372056 4.136762652779107
Bi 4.05767615335372 0.07238902816411386 2.757008342859767
Bi 1.1541887566132187 2.5188172390957893 5.422079579269086
Bi 11.63472929803571 4.513762299383262 4.875962567116412
Bi 2.0535275279189573 11.581405207971988 5.283259662846988
Bi 3.311116018071136 1.1877293255592303 7.42497753062756
Bi 6.344435287823657 1.0271128120217787 6.996491493213072
Bi 5.895498471641268 10.434413981574197 4.9133181028027435
Bi 4.83865527055943 9.391122200509432 2.274667252301521
Bi 8.518933616393308 7.073863361672254 7.492951057411544
Bi 2.597225759731913 8.02906905127802 5.288428911785007
Bi 5.175024809873991 7.9076803961792566 8.540407928491422
Bi 7.806332072917023 9.9110547613042 2.644368180022143
Bi 10.24804766624064 7.168917508579811 5.184769422602706
Bi 8.181383141521785 1.3974503861542027 2.822531496613164
Bi 9.090650401891443 4.496923172650243 8.908185029000766
Bi 9.881618728186753 2.7465450805081035 6.596732527538686
Bi 2.2279504477194783 8.698153099319338 9.098993772286786
Bi 2.5196027350726204 4.605153410651201 8.399977241075776
Bi 0.8626824624477998 8.016438538289794 2.726487453175261
Bi 11.63472929803571 5.225904897988143 3.1983636405265
Bi 2.9775941120806704 6.481262107297947 0.898344066502673
Bi 4.482041164267015 2.365421288435792 0.5602112763449703
Bi 0.6506824848185698 6.842523007640402 7.275653597513718
Bi 7.483506890461838 2.9301557206463387 0.26197902464836853
Bi 3.527792539145999 6.453414271285204 10.671572866780345
Bi 5.595973637867521 4.786060644235135 1.8929839600955398
Bi 4.993876958523817 5.415345174048599 6.769319775780828
Bi 2.6390914956885667 5.287023410049855 3.820923616565275
Bi 8.66566472545567 4.123657943554436 4.1740747708337205
Bi 5.583155548793458 2.230289804756552 4.2669947859266
