35
Energy = -126.97252548 eV
Bi 14.053449358370926 6.966312235582027 7.180627268874894
Bi 13.15810070982523 8.19055879417447 4.5718591020842405
Bi 13.82587052860516 5.247363345667424 4.692604154062771
Bi 11.18800158779361 8.866944087485713 10.147296437888219
Bi 11.641224506394824 6.167462248439676 8.82560759696061
Bi 9.590638661701938 5.8745288766637715 6.616469283687096
Bi 10.123461033282013 8.168609182451265 4.705046345178515
Bi 9.931002130478905 5.86343822066091 2.6849372777167293
Bi 9.184706783182714 7.697442698309157 12.12669139052116
Bi 11.077114355059948 3.949685281783386 4.7888926918493055
Bi 8.935015105833806 10.537432134723892 8.855395040424234
Bi 7.59770878561113 6.150770566593849 10.044114990810844
Bi 7.00511675707006 5.397554141491123 3.5196971532568995
Bi 6.873768065971174 3.013316015811419 6.249041769771595
Bi 7.2501243207089345 8.284300442133892 7.721588968204974
Bi 7.85728170256592 10.416976429264908 11.768826339693856
Bi 6.129933432158105 3.580986845520517 1.2384282876778776
Bi 5.811766086955576 6.601060849480023 0.9828244812967648
Bi 5.222236435278098 6.637003817750016 11.885991089750524
Bi 5.28000907313857 10.365388448641365 8.6681607107466
Bi 3.375125279823642 4.859824604874783 1.5347402558222418
Bi 7.040507220573448 10.32043581556128 5.003436746019744
Bi 4.821875242240559 8.877046265826943 3.6042669130222267
Bi 5.1898957878126515 4.2113934095897 8.535436978029168
Bi 4.76902066362459 1.2868189653004296 7.585412073413507
Bi 4.468477238501465 2.192082246764438 4.650014365570385
Bi 4.90260126984623 9.609553676895631 11.585772831174832
Bi 4.27625049123598 6.90789257584561 6.088771625811579
Bi 2.947907913140215 9.743074980357527 6.799192728542168
Bi 2.7157755626865168 4.692455189327066 4.5318561583920784
Bi 4.365768919869546 11.680894263649973 4.713834090171567
Bi 2.3585687095727828 6.218730809821026 10.846337936502563
Bi 2.146419154496208 4.326250950523466 8.41641658198586
Bi 1.1753939970948395 6.833215484794793 6.930753154784421
Bi 1.2842015482614852 8.656549768089503 9.350642339041075
