34
Energy = -122.61830412 eV
Bi 6.296919101161172 6.274727426300097 2.6795033894011455
Bi 4.321885762466721 8.616308716337928 2.2246327420674774
Bi 8.776437600908643 2.990683686936329 3.268868932246498
Bi 4.227360386585774 2.502675621180901 5.662261145914433
Bi 9.399333069294585 5.502607492287832 1.8163332871229443
Bi 2.8068652429323864 7.1142711484052805 4.384384252985849
Bi 7.907399195002121 8.563109194856496 4.897121602023983
Bi 10.554536422276813 8.19071031473529 7.406332628382275
Bi 9.16515076605015 9.448450214003936 9.779798223297709
Bi 2.2698371908639356 9.60172459952404 9.693009197679576
Bi 5.017996590037098 10.19241943974384 6.7849629465526995
Bi 10.971181877100802 5.858740221931429 4.565756153385527
Bi 3.3862456471228373 2.838139533899842 10.485837325864988
Bi 11.678862135173723 10.48616058656521 5.990197009477255
Bi 5.807689758921839 6.96122668947477 11.787841114411465
Bi 6.7193469378213 1.496390047446755 7.245240791486229
Bi 7.39044675502781 7.018356712339408 9.19274471674553
Bi 5.800516084208632 3.823332625600812 8.932606768877678
Bi 6.855036143437488 2.205369966743058 0.9146270681571911
Bi 9.353703245068836 3.064137437719912 7.514133161503698
Bi 8.285397185367799 10.669327845329443 7.08391383561058
Bi 1.8466432177103018 8.579996144843768 12.423032229159741
Bi 8.124422243453377 4.997182707720524 5.53944016353298
Bi 3.9176850958483236 4.453709709041586 3.2994249153487
Bi 2.261855323226331 3.554817098188171 7.802981231732273
Bi 3.0407515616025513 5.959423149004181 10.93460242791312
Bi 2.334929454693065 6.819740835693814 8.061506284886516
Bi 8.579305368670417 4.380369321489212 10.199413265878047
Bi 4.550954818825947 9.75351648208223 11.685540041604247
Bi 10.757918444065488 8.800651014337673 3.6303059280038923
Bi 5.000633953019893 7.120023520239365 6.5482490442986
Bi 6.150886257892357 4.921343367830072 13.001100756024824
Bi 8.85292130654395 3.706450303344856 12.423032229159741
Bi 5.89678231158375 10.6580259402648 3.9184132208291533
