32
Energy = -115.72591791 eV
Bi 4.7433854629055805 4.192565180762505 11.855210758306525
Bi 5.075940493101361 2.1580899410185697 8.31763869081644
Bi 9.426872838107434 4.914813821160825 7.94934856104365
Bi 8.091822519745602 2.3253757281438294 8.893864560472716
Bi 8.602669711103815 1.6193981433228595 5.983757139004059
Bi 10.605026468918286 7.074101560678132 9.826325992066849
Bi 5.75583012009595 4.435477363274469 2.6400567887783093
Bi 6.664596580349005 5.985858211318297 10.286777116698637
Bi 11.42535218148704 6.3307747392636475 5.196861584146085
Bi 4.314589193916005 7.18248766308903 11.976599167667418
Bi 4.018670237266158 5.096186385439187 9.029453378824481
Bi 12.221025994650331 8.255502880134834 7.4929727781446696
Bi 8.664292614935789 4.1286338802170865 3.8771293273154552
Bi 5.412803010896113 4.830678495034271 6.001790010242156
Bi 8.289696325837008 8.734753177731166 8.650317762890793
Bi 5.645693359915659 1.7749079288299918 5.315608730670621
Bi 4.639888339416493 9.971649935499789 9.606660221704416
Bi 2.5191372038886666 5.506317329652573 5.209005707530078
Bi 9.918395097357081 9.90019006587261 6.275545265870807
Bi 8.387488771222259 6.715481140113275 5.504191922398511
Bi 5.3441837698742205 8.548354997835506 6.952073322241104
Bi 8.627182914876093 11.755739596337438 8.342069810516486
Bi 7.53174863486774 6.476495933672948 0.9989793632924403
Bi 2.1698998750377068 8.284679682882167 10.011811158239608
Bi 4.675411929408536 7.095688025663331 3.6587371776006976
Bi 10.33574604265135 5.429106937952737 1.495537508674451
Bi 1.3372127371374174 7.646045775201894 7.0756756003560435
Bi 10.886463104964854 8.13687001719202 2.741314411379115
Bi 6.4592354367084726 11.38012235123289 6.191683072954667
Bi 3.7136829439026484 11.981967638281251 7.500157140429363
Bi 7.8317175396020815 8.712090148461737 3.0494906589817266
Bi 2.885321607194293 9.739737767916422 5.5385880830436856
