35
Energy = -128.06456968 eV
Bi 11.022937374747817 10.154399598649343 3.107934364385919
Bi 9.320515748194245 12.709936135247826 2.718131319441619
Bi 10.420619771655355 10.535223436994317 6.084475681792367
Bi 12.709610685507672 6.4442876949920604 8.287918025456923
Bi 8.349070243792713 12.714119695499596 5.61275050763357
Bi 11.595600205025505 7.00464226725086 5.463166136005865
Bi 10.561084201203673 8.265661692308116 9.469342503506327
Bi 8.369020078021546 10.055023631269782 1.6559443499165882
Bi 11.303611593825996 3.7184229226624708 8.327821613268137
Bi 5.791701209864615 8.033144131352351 8.472122521890086
Bi 8.979890714358524 7.932859250413503 6.81415798744174
Bi 9.260874611892255 6.09603225331861 11.125642882659186
Bi 11.472583114257887 3.950915562490269 5.27442854955331
Bi 6.8495087960474885 8.708066218543586 3.923439737215787
Bi 5.748305083750712 11.36449771073451 4.876173666678708
Bi 8.385970625340171 4.707070164339749 8.480327674611472
Bi 6.823041890474215 7.8788279799524945 11.360244953604447
Bi 6.590227514158068 5.138347488109041 5.18073725578307
Bi 3.964832922110947 8.64296630414447 2.841765591417417
Bi 5.602977350825643 4.058469951928966 2.4976355762253935
Bi 4.9993763912408005 10.97323087424387 7.821221245219225
Bi 8.62618551430223 2.9373710679585314 5.62604181485973
Bi 4.830435138880398 5.740011552371642 12.35580767317942
Bi 3.1620263041479566 8.567037905767377 9.947337150180227
Bi 3.6560710108771275 7.44425342688926 5.636096467819036
Bi 7.682943004288173 2.10961614049302 9.894874429690077
Bi 5.6541308662717285 2.8246207208081358 12.04214687456838
Bi 4.253391535452046 4.693407382446502 8.151762976301736
Bi 3.1542236422094976 5.773339456483524 2.0184323297010622
Bi 2.291258846998474 9.682651907311728 7.2249021263567395
Bi 5.0274372042389315 2.481716899866753 5.010676075991708
Bi 2.4733367214465245 5.639016913900794 10.430447900206307
Bi 4.697029843044086 1.8999577908216663 9.31764372172523
Bi 1.4448925337079117 5.6838794774498185 4.5454188041996755
Bi 2.3289594669140716 3.2876998397176935 6.185035499007444
