31
Energy = -111.26026526 eV
Bi 2.4713579343407015 5.8131451895785595 9.633282053889346
Bi 5.995993244727873 5.073540224350561 11.979222724315733
Bi 5.511846001226377 3.1805634089144212 3.34046892313828
Bi 2.017615599695785 8.963634761367306 7.588587994795742
Bi 10.870125954293545 8.666687993267725 5.2464976750534325
Bi 9.74665866858703 3.905386878074194 7.115211479508057
Bi 3.0041992101134176 4.660036399822763 12.420304376076935
Bi 12.572033256683055 11.1492245656987 5.071290863462892
Bi 7.837475834067919 9.001291183277926 5.720539102047095
Bi 5.638775739228229 4.088061105035088 9.059026106960156
Bi 8.607995562560996 5.388882226091044 3.6738344574255195
Bi 7.7819852482881595 6.454921080860698 7.479946473004199
Bi 4.942306120726917 7.962918734212228 8.5445128742828
Bi 10.633692191056287 6.062380633146916 1.468579233401645
Bi 7.7184092133420314 5.315580485423036 0.757428517878818
Bi 5.771238371775057 8.065879942674755 11.504786963836548
Bi 7.8145020952526405 2.0989969166458096 5.826773278225131
Bi 10.54894750185792 9.028732610231348 2.26474592123626
Bi 3.7950497117612345 5.179692057170794 1.6765725929813382
Bi 13.397138857082068 10.03644180451839 2.5751277070660668
Bi 7.15251465336745 7.812157126708315 2.3771484845150326
Bi 2.99995241682097 2.774557403887696 10.027205720957419
Bi 1.0183613000981682 6.696093521899884 5.840692851384746
Bi 6.904114790058024 10.416749150062243 8.302009826443594
Bi 2.4206631952535838 3.1519812078178617 3.4921368798758277
Bi 13.397138857082068 7.11724299842572 8.642973520830411
Bi 5.357304101525958 5.443548997700153 5.4660400239550855
Bi 2.706404855054503 4.195079589578362 6.383140177645289
Bi 8.385607306535418 8.401879695628267 9.980023263203961
Bi 7.968871918326921 2.1065317472940333 8.82613806596567
Bi 4.287015061411567 7.544405712844431 3.4719772188449416
