38
Energy = -137.69961643 eV
Bi 10.601761828743863 4.6512456843013785 8.951725640283408
Bi 7.857783977214474 5.903224935330252 8.26711987638307
Bi 10.014138331474507 6.3473457020385675 5.195323964695142
Bi 10.20499712612716 1.6356502738904402 9.046310611100628
Bi 10.749846054791044 2.993147618760087 6.400894127877473
Bi 10.68731722543262 8.671651804564966 7.158907371134691
Bi 11.723263137852696 8.413365342411401 3.444592795094096
Bi 3.7679065246537244 7.212751412032648 9.153452528194876
Bi 7.811776169728085 2.2497036206713217 7.213977354227696
Bi 7.4646416000416655 4.060743227109755 4.086296065142625
Bi 11.069777596415078 10.968590067872947 4.943843868631553
Bi 9.037069235201317 7.425717595759366 2.4697428692795516
Bi 9.184703652296808 8.09468833638827 9.913389482540863
Bi 7.978410136832692 12.236344932424448 5.23477391436261
Bi 5.375555418715234 9.411805937892668 12.930174685776587
Bi 9.128173018316485 1.5746237162557293 3.0904633130916888
Bi 5.691465247298974 5.272373919356824 10.44103472276035
Bi 7.929724170141135 10.172421617218268 1.9662234023917895
Bi 7.734062653952081 9.398911637527043 6.587042626456443
Bi 7.518452996217726 10.582359972102712 9.406110679144264
Bi 2.4689062935301527 9.0344131501057 13.728754277408829
Bi 6.157750025957442 4.380403848976916 1.3215501034176296
Bi 6.679858885317089 12.411111739618239 2.446203938537736
Bi 8.170115523536355 11.694426734697517 4.572061985581546
Bi 4.315078940971766 6.65489454651123 13.687370676340938
Bi 5.020593644624181 2.3904714893236916 5.062101162946362
Bi 4.774132795191984 3.1469416023194166 8.557490572371654
Bi 5.676502518394064 6.908699382132407 5.635719080857436
Bi 4.597345807929561 9.989063052330701 10.064321608399013
Bi 5.113765761749849 9.229825962136058 1.271815633449458
Bi 4.413875062680741 2.004684704141931 2.0948856860585074
Bi 3.4753202209910308 4.784537607406035 6.318507029359788
Bi 3.711256162805787 9.297657341559688 6.158743811191111
Bi 2.044489198286769 6.822220718661786 11.669047479257527
Bi 4.575646373313335 6.627463353915858 2.739855922619444
Bi 3.0101112256917837 10.190052229116844 3.265276444113812
Bi 1.2984332087569808 7.504092027991559 5.867417617913072
Bi 1.5324834844988053 7.564837949960221 2.9097783547786644
