38
Energy = -137.84970363 eV
Bi 9.547958314709089 12.433231832989888 8.515065663778309
Bi 11.752890402026033 8.483147154262134 9.637930423769498
Bi 11.214103662841728 10.437671972796235 7.09997308746558
Bi 12.088491390570729 6.823249549051586 7.122730885600375
Bi 8.636222612108865 10.11942457699969 3.382165814729256
Bi 8.901633944576515 9.702153256291174 10.22627797123248
Bi 6.692956708686953 12.365419601653484 7.491968746627303
Bi 10.123266962025054 6.178988618672081 11.180718786082801
Bi 8.04383251608524 7.788503891883251 12.625402342269576
Bi 9.203921686238779 8.394401719913935 5.885051823558878
Bi 10.879530288800188 6.771018523466678 3.750573447580278
Bi 8.194352041800006 5.780524772340985 8.876354171679218
Bi 6.057081369912303 9.782619402282517 9.036966451613965
Bi 6.401004374766269 11.838652204964205 4.501112547534763
Bi 7.013030599830482 7.51168725269456 3.2558668168986076
Bi 10.935526728440234 4.246872296906215 7.814764068854575
Bi 7.5195100253841 2.850744198649459 9.425708250653518
Bi 5.801073642907454 6.673463871322393 10.834539656648849
Bi 10.385676072175377 3.9605612367800567 4.807526632181005
Bi 7.450408936615529 4.242872018641377 5.568059624559313
Bi 4.0996495795816 10.133560177377094 5.53814670538599
Bi 8.908919511313957 5.896477247719273 1.5281554030138251
Bi 3.116083052414695 7.534646603387685 8.571673101663746
Bi 5.578611324547469 7.751845452227097 6.752795125240931
Bi 5.232616304765049 3.6743009126051627 11.280961878925364
Bi 2.7471347818173064 9.307672096805828 2.935059393662679
Bi 7.547954881236471 1.4788600427674945 4.327843877809516
Bi 4.8627867981479405 3.8463161216706263 8.258462805009481
Bi 4.406940688296469 7.026307760078271 1.7342133543997813
Bi 3.8391372532143295 5.723395553890017 4.460033664894663
Bi 0.5235439143417998 7.830798955393517 6.919824504363194
Bi 6.759156686097758 3.9025169264580084 2.59504627152656
Bi 1.2566481142019414 5.128248895300944 8.107727023415343
Bi 1.0974761270194926 6.9863559160256665 4.069888698994342
Bi 3.529097993291492 1.2316838058358037 7.515872481683112
Bi 4.60322342815694 0.7289910776202208 4.6790376780726115
Bi 2.9700363806601597 3.0005704816186607 3.4464306609846136
Bi 1.3239857973890328 2.818644872551525 6.062937645470256
