35
Energy = -127.77789027 eV
Bi 2.6202825766914857 8.68677366986541 4.082320398212638
Bi 4.037080841350197 11.383140421453747 4.214201639610946
Bi 4.761310088117672 9.375205826251083 2.0450296299928077
Bi 3.6040693756543845 11.11860636175364 8.794439152354043
Bi 5.532964548761216 4.742460020414048 3.9007377131346606
Bi 6.081765284240087 1.9164696059279485 4.760909165611152
Bi 6.136790693255898 9.520838737364349 8.21124883386405
Bi 1.942618584051287 8.790215587942193 7.769094118675919
Bi 2.6719116891713974 8.91997508379471 10.721384023206186
Bi 9.068828297412033 2.3713644536717737 4.12917792254916
Bi 5.177721805000364 2.1302931546285873 7.666778372548891
Bi 8.053547186222389 11.349951930133729 9.810623356133709
Bi 9.560017242409144 8.780812943145362 6.685435668850432
Bi 5.322723223317595 4.949224308732515 11.061080189696016
Bi 9.61876244133592 2.977367548644733 11.224809165263888
Bi 8.057752061398096 5.352652769395578 12.330518533014542
Bi 11.075130886753017 4.922552492856243 9.332261732240804
Bi 8.813574922586128 6.93945592419459 9.825627558131863
Bi 8.856370922285516 3.0961399725569003 8.28567676473085
Bi 9.944633875821065 9.406534092955674 11.19603053406211
Bi 6.335866289018912 4.9071212363862635 8.166598182419799
Bi 2.439856664564849 2.4708748582174858 6.354365287019328
Bi 5.51944803039982 7.991516784467862 11.103340630051965
Bi 9.022416724614114 5.303693738449046 5.140750134545718
Bi 1.6054321281889528 5.335458226759261 5.770926644965007
Bi 11.625632717127568 6.559601166256198 6.0946793502323136
Bi 7.582802268108931 3.6696015870930485 1.767859547370855
Bi 10.793907291405306 10.786058854514406 8.614082069542421
Bi 6.87217672947315 8.2136165446169 3.9560837779102798
Bi 6.806254534862676 10.878040645093643 5.429295282817096
Bi 2.7119658601802485 3.6099290932044683 3.512831332441568
Bi 9.916488042575866 5.635521624483773 2.294666981108094
Bi 4.070860780333098 7.1144795901206095 6.280203615441506
Bi 11.413349196485772 9.051423731108184 4.292222813029263
Bi 9.28071693882295 8.613105487980077 2.1376304930931664
