33
Energy = -118.86613628 eV
Bi 6.491764596611073 2.5250040606037403 2.224905452088443
Bi 11.573131440549464 0.933020543403595 2.9389894819262574
Bi 9.37508801281335 3.438589756808094 2.3569397882971845
Bi 4.800003339140468 6.045233941024419 3.6946538738837837
Bi 0.28470941671896705 3.876666234503673 5.4922485245120205
Bi 3.4244641677412684 3.234312900541238 5.502967293679115
Bi 2.49387419267712 8.789354993092923 6.629546545045252
Bi 1.3285099508916303 3.371771309614455 2.411708859740089
Bi 11.567870172445906 0.9392712063339796 6.234522784450475
Bi 6.705889150871368 6.614090898280651 0.43699896451279147
Bi 4.1901645892015615 10.294843590816027 1.8100442338725315
Bi 8.279928094193012 1.1992428349458257 6.298589883205453
Bi 6.516818419476576 0.03495127404170094 3.975621769919045
Bi 10.635038841116424 1.6508395579272641 4.451477745554016
Bi 3.469711121320694 3.1846732968133895 8.550003525941673
Bi 8.797925294599333 5.933929998631826 4.721755894314288
Bi 6.72250659823061 3.640349457149747 5.0682199576175115
Bi 4.250308430968729 10.76666561479084 5.148692021554294
Bi 8.037575066318624 6.309493986840564 7.708026708191831
Bi 1.92421649439371 6.8991575845352475 4.368878534266112
Bi 6.47678264878413 9.042149632558019 6.077439921021307
Bi 6.463950045960512 8.523975704749155 2.9148574880332054
Bi 1.573824292328896 0.7923666342470826 8.710144367303547
Bi 1.0948463850897487 5.098410948373254 8.287296119583473
Bi 5.095002609359931 8.699986363927335 10.930864811901367
Bi 4.810200327037581 6.554529815109941 6.869098450952292
Bi 3.6517195696895173 6.1714029856980215 0.12280548742080008
Bi 9.208746418696537 3.630747637257294 8.31366280256343
Bi 3.675425735116797 0.21349422048840974 5.147637779358139
Bi 2.701332980895205 0.6462234319167832 2.3014007975461905
Bi 1.9864988919592022 8.257389851419891 1.61109786996139
Bi 11.081124847403238 2.756576234549921 8.83324028571373
Bi 11.081124847403238 4.276762302008744 6.022456004404472
