38
Energy = -137.91100429 eV
Bi 4.952048144948372 10.874863201635744 11.411456592585893
Bi 8.315057885328706 8.923077704048612 12.276843577848773
Bi 6.085330508217181 6.914713041747548 12.962883816395285
Bi 10.259817292928888 6.719725928318441 11.665862710874736
Bi 6.457632675719426 12.21591260311404 9.094805197669782
Bi 4.0889163813239255 7.404531424906681 10.74999030240867
Bi 3.447082478577782 11.863167813756322 8.950114582894978
Bi 11.506665765114331 7.752754183224211 8.959847202794755
Bi 8.859513512699221 5.957034113081444 9.140612511512298
Bi 3.6948741825812794 4.290706591434977 10.981685817589387
Bi 6.725277516370937 9.103175371815091 9.620122798907584
Bi 9.802640776628344 9.933876805818382 7.609183172166888
Bi 6.374580644477411 3.915412316155641 12.40982944448383
Bi 9.708463937049745 3.1141387289188294 8.512640441458908
Bi 5.762679025858332 10.454883369950224 5.835744254228776
Bi 1.8980845363761685 5.9844677331437195 6.931601566303912
Bi 5.10668551345755 5.1147563668229425 8.35059148483948
Bi 3.6015253569033012 9.146113687786473 7.524746941163664
Bi 6.855806865243838 2.847775764948504 9.571255857859834
Bi 1.144820223238055 8.790449494232286 5.730211759194394
Bi 7.839222910399053 8.211207394361828 5.897874644187316
Bi 8.372990365206247 4.169182769283031 5.954158391639562
Bi 4.194558156110052 6.05327111389343 4.842626700997536
Bi 11.087939485248656 6.5379077970813 5.949575523473485
Bi 4.933444996875179 9.791395158530491 2.882257547222197
Bi 4.141800587740955 2.6262434266941104 6.616854428204069
Bi 2.109066156353661 3.898857348123585 4.722431552816986
Bi 9.45654501435641 6.033502019257987 3.0921992663835893
Bi 11.731773534025603 9.44714111957407 5.242575996644822
Bi 10.38557262995301 2.632806416671037 4.200990689467317
Bi 6.4304463834549495 2.2489289437765345 4.598368402812012
Bi 9.05269407543903 10.129895605362293 3.835764060001359
Bi 2.5243995354566424 7.9746516722184815 3.153274428683047
Bi 6.074868772051095 4.202033423036878 2.2789315128369916
Bi 12.3311995443086 4.939672025653847 3.631711974255649
Bi 6.209209020943708 7.406888129112637 1.501796498175238
Bi 8.967939773296827 3.471725603446553 1.5525881377336264
Bi 9.065175219103063 8.440090474519888 1.284056221877642
