36
Energy = -131.13947304 eV
Bi 12.907444221622024 6.3020826076580425 8.182992915597707
Bi 10.671347820693388 6.11730651377571 10.24013288979423
Bi 12.337580557898688 3.8117113031897323 6.518435656730621
Bi 11.489622919379189 8.64385278814074 6.762031322357906
Bi 7.926001008387875 3.885079230562713 11.294912418163944
Bi 10.534806244961613 9.17037057245366 9.627728300131144
Bi 9.64645035036584 2.7883194540772007 7.4855517763113255
Bi 11.597121882089898 5.6274253596713 4.219983777931301
Bi 8.297968112130684 5.304629713916677 8.531220510620932
Bi 6.466414865113865 6.117854551461695 12.706855406221186
Bi 9.22920567996781 7.0037326104719995 5.51451425226133
Bi 8.610176126341274 11.600470147155946 8.889084246698433
Bi 7.464943368462197 8.435994174478813 10.826327083178041
Bi 6.7990098915719 11.370791330538712 11.271002854942447
Bi 9.63208614828115 8.576706885483164 2.891961244369586
Bi 9.949222643335425 3.714650998576843 2.5803380316341618
Bi 8.497846330668592 2.0810307423851704 4.755321070152823
Bi 4.879727466286394 3.8452998126557976 11.487627827427893
Bi 5.777380720673292 7.964331162446482 8.23560257585645
Bi 8.720364267031224 6.169666336839203 1.2237692088406738
Bi 4.624926632353272 4.725765219222858 8.595523196939277
Bi 5.628982380020077 2.9790539514509393 4.345393957181459
Bi 4.0506479529309445 2.1982199606256896 6.854574783582316
Bi 6.428430994283523 12.3259113468991 6.754951708057901
Bi 4.785481696112681 10.89237670721033 8.848334185617716
Bi 6.811891664069525 9.588575384220492 2.2500630206208987
Bi 6.129371282998275 9.643777646422592 5.2950275958236706
Bi 5.819179776147501 6.69187928395824 2.051241381448858
Bi 5.669268695646712 5.941476915741762 5.038949763175934
Bi 1.6197307867132362 5.204974607074684 8.662148125782897
Bi 2.6232058300089656 7.898807646383337 7.565272996345047
Bi 1.9550564421741696 10.879420617558063 7.4800726789425775
Bi 1.5697228965840284 3.7405284989276955 5.964629819622595
Bi 3.2210197380902668 10.585682050780312 4.739678501494861
Bi 2.894346936276847 5.564373769719889 3.8528915097243903
Bi 1.451739395301991 8.077395749737796 4.807037096429935
