33
Energy = -120.51006109 eV
Bi 7.562777384886167 1.776234101528753 8.4423911917642
Bi 11.375511265859124 3.640726009218178 10.40549905827506
Bi 9.101343171230207 3.036264897290325 6.118446512673376
Bi 11.484554722584353 4.410966815448378 7.476684949452678
Bi 8.39897380058603 3.443931873479967 10.846812741841775
Bi 4.668527956705687 2.785663316628882 8.516841728175002
Bi 3.419800471602403 2.8524830804372665 5.709737952397515
Bi 5.842275318085461 3.4244942524527193 3.9674402368265613
Bi 11.099376817953619 6.356310216072589 11.801443854548157
Bi 7.4870105918630045 5.559799931987621 5.369446791584724
Bi 9.400463335362474 5.471880978607535 2.9955603424419657
Bi 9.893203875799703 6.9565041492494695 7.658730258991136
Bi 7.611891276249661 6.002987776318478 9.463645407954148
Bi 11.67450451776142 8.369526558860642 9.64742131011917
Bi 7.9158655566689085 7.668797000304354 12.004394260609388
Bi 4.587669135714915 5.813355276101792 7.981678413828535
Bi 1.7954365116581326 5.19463278926081 6.887694997709614
Bi 3.413924357542642 7.35127807790667 10.37305451042775
Bi 7.631479565945865 4.839539765118557 0.5805698570811962
Bi 9.580774904412447 8.415652754571363 2.2117925427635177
Bi 4.823370182242116 5.099888829742203 1.637068212341968
Bi 5.442070906475717 9.463548251451918 11.108613746619643
Bi 9.234706210620441 10.025395286963555 10.599637319452615
Bi 7.007320623887621 9.435235680386132 8.513581234231475
Bi 8.355909602455542 7.618139034487049 12.004394260609388
Bi 5.142720108439837 8.256982744643597 5.362317674731642
Bi 1.865399213001259 9.194055186665056 8.464097481900955
Bi 2.1145874366839266 7.980560467249787 5.675053661825212
Bi 6.889664848303253 9.480957212731678 1.3594873711965079
Bi 4.4588100704136675 8.02487762890413 2.387601248921198
Bi 6.139481620538967 12.193183497336303 7.5783935749704385
Bi 3.119621265270818 11.828848678469702 7.5640446015387734
Bi 4.716078838970629 11.282403345900025 5.038837599741492
