31
Energy = -112.55137982 eV
Bi 0.11584169678508853 6.14783965204962 6.136951024935294
Bi 3.107089687086807 7.7803119755554615 3.1440702094752173
Bi 2.613563937755823 5.216517057884889 4.682400385695864
Bi 0.7560137546919673 5.1532988088641405 8.928875400378937
Bi 1.1153943041647625 8.072420662643855 8.221125785099145
Bi 6.1428885231973815 4.540417172448074 1.7676704768985019
Bi 3.6835403664288955 9.897038029961278 5.273168836518937
Bi 6.565412460665822 10.838033695363531 4.42726425828542
Bi 9.208371759137986 4.851426580720038 1.7249021404737963
Bi 3.3832587205442683 3.644201015666406 8.54693981866908
Bi 7.149158844093682 9.229615994500236 1.8711627984254477
Bi 4.8389166366378165 5.5600554882199935 6.716544448892586
Bi 6.188482480302797 3.249920113809904 4.547824098313998
Bi 4.134807396076724 8.337666904694597 7.906015406277377
Bi 5.997676696690965 6.993125361541651 3.5245017405299213
Bi 4.43614578302499 4.728218733478611 11.194104228881821
Bi 9.237550181072676 3.227881886420294 4.3225650272217795
Bi 9.821920588798067 7.795413306235369 2.299402822733242
Bi 7.376991438386007 8.900622714427572 6.629181260391606
Bi 6.754920631444121 2.8718374280515535 11.84732103080766
Bi 6.187098721546427 7.1764833111492505 10.751468847883807
Bi 9.901027914405612 7.652155134214765 5.325598267320341
Bi 8.698924718073563 10.577540727556647 8.753894605653864
Bi 8.060769223391736 5.7834753214453345 8.387707168382555
Bi 7.962696235014255 5.554080817818157 12.693468149804644
Bi 10.55354151793915 4.937917777998045 6.399073829209925
Bi 9.243177826401972 3.908721999209197 10.456195986939264
Bi 9.63105400036558 7.906617057343615 9.964183255610582
Bi 11.583181122955603 11.233186895991286 7.956580552822729
Bi 12.448347201618638 9.138085922727022 5.993507556113317
Bi 12.526715056706426 8.481968117241518 8.940023148294884
