35
Energy = -128.09036837 eV
Bi 10.611385316492143 9.028585420068495 10.793364119523462
Bi 9.794686750420773 6.1998095097682535 11.608182928292036
Bi 7.966957173396017 10.287667011027123 9.852939366971592
Bi 6.7678707171652634 6.714956754761157 11.553375365573414
Bi 9.075532917785036 11.702919171567606 7.375686647654469
Bi 11.370616291069442 6.651361922355516 9.05317554403531
Bi 10.807440093790527 9.50932838488361 6.257660609503641
Bi 6.56654231907629 7.826591227636901 8.739374292772562
Bi 5.026538814291937 4.319998075744442 10.743144346164813
Bi 4.130375671670862 9.009466295492716 10.16985761358265
Bi 6.6526665327259735 12.243593898258494 5.565421329670173
Bi 2.746079246904241 6.392883010839702 10.917957975000936
Bi 10.413361844396208 10.117774041186095 3.3167385745831246
Bi 2.553321101552438 10.126737012544636 7.794758428130499
Bi 5.072734457916827 9.708474671334221 6.105626463800056
Bi 8.59674040132056 3.6662614539124516 8.723980980564837
Bi 9.359165949279246 6.8508908723644035 6.7582825447137775
Bi 7.6377468265098605 11.320409689265412 2.832720690870186
Bi 10.383488408536119 2.413195363378456 6.635727082090308
Bi 3.5244569746363603 9.199342796843693 3.542867128922825
Bi 5.401862032994772 4.480897632861706 7.716919391817821
Bi 8.224566095518485 0.7489125749751181 7.916146060259373
Bi 0.8975016023325929 5.733982811172969 8.586260095252722
Bi 7.302298452503276 7.0197905790198405 4.010266096165851
Bi 1.4120506710056444 7.702932517262606 6.349941130930712
Bi 3.9779902754106082 6.565776109635201 5.183055260105675
Bi 9.867378326296075 7.259097104176473 2.4013132968116215
Bi 11.345269947040505 5.823239379532091 4.647126703250516
Bi 6.078858648587439 8.85959685015198 1.9151555362823642
Bi 5.41726956615646 1.511178949132554 6.9618953170052125
Bi 2.428836008394702 3.3937160867014295 7.398325803812073
Bi 9.878166969807952 3.2985240352533496 3.7767724159278617
Bi 7.125841232065908 4.207789267266408 2.79077650455217
Bi 2.5195901783016033 4.005015507418662 4.409370716826582
Bi 5.096926925922056 2.292379166130485 4.032680337624883
