32
Energy = -116.98112884 eV
Bi 4.173523146375716 3.4303542699812817 3.1583264538592504
Bi 3.911085049812467 2.2733818659856078 6.007962557876157
Bi 2.906660317324026 3.136724400636709 8.828680521846119
Bi 6.917019378555007 2.09292345265108 3.6071481266955914
Bi 4.145509840471695 6.506718577191156 3.165640997171444
Bi 2.478632847170021 6.014542272725097 9.758437984047882
Bi 6.557677915495111 3.736256070230966 6.118965293858106
Bi 6.857712290740071 7.4873959955488365 2.0592512813273456
Bi 9.432019825072304 3.77427909119729 3.087914325830113
Bi 8.513396723558794 2.073450225306879 7.7780175482097045
Bi 5.2636002259079175 5.035684183605093 9.066818708212729
Bi 4.7336204329954175 7.5368167316005525 5.948704633395471
Bi 1.8974845366961446 7.313816808306148 7.077888055825631
Bi 10.710006954488643 2.7269374212374546 5.6850003847642405
Bi 3.195464107994543 9.865981945058799 4.723878901454937
Bi 8.359945595652444 6.27626918614112 4.438224902151424
Bi 2.170948503421424 10.349904617926033 7.552594710508492
Bi 7.551175413725038 10.24552138531807 3.255339528405509
Bi 6.2759543085903475 8.458215858949181 9.231568119496924
Bi 5.25004756650604 12.032127595314181 4.273920649598383
Bi 11.732282796230322 5.421325285686373 6.72663922343662
Bi 9.111785692733298 6.229207556302083 8.026318281724176
Bi 9.45371381726421 3.988169058973347 10.001847648767221
Bi 11.215757012054809 7.419187305000022 4.47531413822229
Bi 7.820370575083893 9.405231584612778 6.194866254525622
Bi 4.70925073660036 11.075592703404908 9.102532623578194
Bi 6.932588895117884 4.748035248057839 11.610999376218754
Bi 6.931929494414403 7.798649747410004 12.130092685294363
Bi 6.650536440123995 12.129946346446332 6.974804534902258
Bi 10.826452086059293 9.751563890470672 6.501117724993601
Bi 8.696943864406732 9.764082385346535 10.580673536908899
Bi 10.983844260095278 8.268647584114913 9.217450937630199
