35
Energy = -125.81923892 eV
Bi 11.088609780647259 9.332755667888987 9.06999534191794
Bi 8.073481675539497 5.617385059810712 10.158889449670353
Bi 8.34026531799482 8.691038639727548 10.20454474239454
Bi 11.182259833485107 5.211935300457203 8.876943773934094
Bi 10.848102401250985 7.298364739066349 6.723005287624979
Bi 8.621785656993966 9.494489599687558 7.248228803855149
Bi 4.70995371592602 7.488259193679037 12.537337732233544
Bi 5.34243291234081 4.7368600359802135 11.45376341819479
Bi 12.853899785295148 4.348859912684828 6.389710568485988
Bi 9.45866404770587 2.685794009123196 8.516069708217021
Bi 7.134592540958206 6.971224694174845 5.517086673503246
Bi 4.961299523029346 9.051055659498761 9.891682474679593
Bi 9.475377042890404 6.869992171715164 3.4852179453638734
Bi 11.401758005221772 1.6887933927359513 6.254835431283869
Bi 5.322988980041263 11.46266539534386 7.1576074787323565
Bi 2.1152124941282917 8.291497298430341 8.709807390576623
Bi 4.85248896988924 6.427503589526309 8.38146812605024
Bi 7.065124101030018 3.965724673971033 7.0952638039979306
Bi 8.267721626397076 2.3616939274715314 4.788280595873027
Bi 10.912421287011092 3.788117306579443 4.0566926815271405
Bi 2.472128428956472 11.344664667879252 8.245724891725306
Bi 4.284310051793877 13.6181655167647 5.198458924489377
Bi 2.1833883132755254 4.6806172993521935 6.192898684101519
Bi 7.2877778300490474 9.150715664571035 3.2480366520265265
Bi 7.530044603792086 5.6360983077727385 1.4499503127361535
Bi 3.2264895707729524 7.529158267944953 5.928287968282969
Bi 4.650410893889385 3.3766232551512623 4.830302516374401
Bi 4.436907883488577 10.724107484866428 4.3333200961496665
Bi 7.245010924435409 2.6629398276837435 1.9300880863024303
Bi 1.7524032422998364 11.959324129372444 5.34786338519779
Bi 2.7437483839497365 1.3135598930844097 3.567633484906704
Bi 5.2280288657386365 6.871194252160577 3.008987739965776
Bi 4.103345616779969 3.3254521127581533 1.7385482185147876
Bi 1.3947695709018133 4.009673854009386 3.3336567950020353
Bi 7.393981822673014 6.199039606081314 13.151677772594818
