36
Energy = -130.51486089 eV
Bi 4.369212927700199 6.278644174358258 2.5786566502066317
Bi 12.824211090968976 11.14333728028043 6.730027581304358
Bi 10.14135583326809 5.244603282088882 6.740593477162727
Bi 11.398612889296658 9.550126680606846 4.587523430649409
Bi 4.582590375084187 6.179656274547299 9.239764172878603
Bi 8.467607948166158 13.039569230751656 5.769788113363495
Bi 8.349089871962729 2.6104764947161265 10.784214305224644
Bi 9.107747150518145 11.18078557323886 3.4761702311579317
Bi 3.24472672319623 7.8101007327178715 11.472894350282777
Bi 10.62344057971344 12.73182958522876 8.18780109619171
Bi 5.485153238923814 4.095188968719017 11.304541597686606
Bi 6.197142492294576 8.124388084107204 10.935956646104882
Bi 7.3220067979204515 13.450647625275252 10.783814451200397
Bi 9.869883769464645 8.932120168194222 10.970574428609673
Bi 9.89343503846605 8.440768919728482 6.987318203751764
Bi 8.72139393385825 11.261101107148951 12.504874934118105
Bi 11.387696939733035 11.485883355261914 11.092944938409673
Bi 6.173243300061049 11.303780173761153 6.544483143905614
Bi 4.62673742682136 9.267087736703882 3.145451117978416
Bi 4.359986481369553 12.7504399395788 10.921654445726656
Bi 9.30507204154761 1.6351810292683888 6.516323889940458
Bi 5.731684684248417 1.522241506167843 9.73041800594304
Bi 13.14225468173243 5.967618563171125 6.915309806234149
Bi 6.543665934110506 7.567118063135057 6.510473263806672
Bi 11.593480597472682 4.927742232609242 9.31275106728018
Bi 8.367483636084634 10.671954604639735 8.753919887553497
Bi 4.199244582626164 9.990084354306534 9.55623150267537
Bi 7.499953258379468 8.513154573242748 3.668126252016697
Bi 3.722071115053429 8.714424501342162 6.072366454849251
Bi 2.986885972024127 5.792265920332769 5.243819127044463
Bi 7.31205428320574 3.54934775874231 8.128609722364668
Bi 10.12937030569726 0.4054090772085656 9.089387101090598
Bi 5.557302366860965 13.726256023670283 8.302723307749746
Bi 12.559653547042506 8.581178376249865 8.478512685339032
Bi 12.0514083570244 2.2715904706733787 7.772005164778123
Bi 5.887463399691155 5.01822112981521 4.924299017008371
