34
Energy = -135.87999243 eV
Bi 7.438322928561111 13.045800988179934 8.634559541965729
Bi 7.284195253138785 6.962452865483232 4.65854453739579
Bi 11.199938649064748 9.19512501476038 11.24889006513411
Bi 11.623907138813578 10.34301019704795 7.2055946930360895
Bi 11.7134523090456 11.100902846904605 9.647714453908831
Bi 13.385641421473457 11.507385400102095 13.978273409582428
Bi 11.328829665854302 10.206469006848105 15.275813359755286
Bi 10.778354574487226 7.832716983452358 14.36011059840392
Bi 12.768492332600095 12.644356786997927 11.478801044969984
Bi 10.103966157642848 3.974639838491508 9.136940975120709
Bi 7.123987139379614 5.572553889408543 7.260346509269661
Bi 8.35105883307922 5.717578866572263 9.514118826780155
Bi 7.513344426705973 7.238512705913719 11.415869023819592
Bi 10.131983794243693 6.9949423979048335 11.895717996489743
Bi 8.151245480022338 13.878943906238927 10.933706618048914
Bi 9.188418509718113 4.29778681546926 6.698807778144868
Bi 6.4899084529914175 9.460918723265415 4.158078258331511
Bi 7.551093692552098 11.139027805143861 6.0434755577308845
Bi 8.067351252173442 9.038123217642466 9.715946677266686
Bi 6.178481347533539 9.788780284011201 8.114673862675893
Bi 9.55696866002813 14.510702577765759 8.278493119989156
Bi 10.94173174070017 11.231399623981744 12.958981930397039
Bi 9.627330510306267 11.957403014897885 7.3473744222620025
Bi 9.896470137247512 6.331047159238864 5.376431967446476
Bi 5.2352799120359395 8.357615705729545 6.136349989161608
Bi 5.093611727414063 5.8354245414637145 5.810286082149989
Bi 8.853494103617994 9.25793904063758 12.821379960879964
Bi 7.984068307233568 8.639028217549653 6.5125799726143905
Bi 8.972038252207264 11.394328099035524 9.999009378793366
Bi 12.843606045666728 9.158610467585136 13.208683688475714
Bi 10.880503918789362 6.100710675441217 7.907523603747519
Bi 9.990316213157731 8.480572969576244 8.057136556641993
Bi 10.607027395897607 13.533428477847446 10.442973635153088
Bi 5.502745959642246 12.112088049896418 7.235042878977015
