31
Energy = -112.81932642 eV
Bi 12.445757990130883 7.922393733327868 6.867007343691541
Bi 12.240871950262026 5.885413750986097 9.1601330827662
Bi 11.10476122969173 5.899390859281864 4.950187715300877
Bi 9.695950299056216 9.910206952431945 3.5525312608515076
Bi 11.085250512238629 3.8028200589541417 7.199212411778526
Bi 9.818201568122994 11.831496489615311 5.965460780714071
Bi 6.950542960347338 11.17329556357274 3.134331668389335
Bi 9.768298468959038 9.226279003421528 7.540787867776896
Bi 7.375860484174197 6.768707544633133 2.0721380336162536
Bi 9.670689037398503 9.68320541660256 10.533745227744012
Bi 9.711358587572473 6.6475542988862335 10.717136550807183
Bi 8.420002530699408 7.440191460797638 4.877258410276167
Bi 5.243586480754344 8.671524045329427 2.9969242471174367
Bi 8.592994021354079 3.3021266783087055 8.90335619943037
Bi 6.738070817941778 12.077683027781053 6.069282902830302
Bi 7.695627447205532 6.185725564122214 8.466770814307122
Bi 7.234127521116358 2.603010677741457 4.437813558301149
Bi 6.377584274095562 9.272281101280411 7.2453183222614586
Bi 6.523764776757745 1.7944559287191033 7.272289956981455
Bi 6.558932601549554 9.864506868398264 10.29628924444065
Bi 5.625090833357238 5.211114800195513 4.080809227796891
Bi 4.494615403135374 2.5894954426636625 3.082705266164577
Bi 5.95825465506479 6.927968992345618 10.906379926521065
Bi 4.669401301295613 4.29277882431231 7.432978333109449
Bi 3.9121009058304312 7.460476343654387 6.596643100103538
Bi 2.823947504937616 2.676209067140106 5.653796798595401
Bi 3.2323101331432835 7.383010949350525 9.623355439873402
Bi 0.8907764543057456 7.440419031469868 6.077375550680294
Bi 2.491285333330865 4.440927554514221 9.580300589785681
Bi 0.5329160249661385 4.598342019999795 5.07616442917625
Bi 12.445757990130883 5.264542109970961 7.984732644847761
