39
Energy = -142.04784462 eV
Bi 12.470202629500669 9.19842251834249 5.341157375967442
Bi 8.198902366820658 12.23270960941265 6.392368623285629
Bi 10.804835255378746 8.927499948982842 8.998038007887963
Bi 9.126203214866086 8.593006376441249 2.7695167901927773
Bi 11.101591330494385 6.710580089780826 4.250537328860807
Bi 12.090593488783151 6.823146702007879 7.223155508238055
Bi 6.3224011245186915 11.08817240460786 8.554259799509449
Bi 6.202817291515404 11.37639774223081 4.223369288177151
Bi 9.521912793590008 9.491711369072851 6.294311952648249
Bi 7.873151881885942 6.746609643716135 0.6655798364571311
Bi 8.616658307266997 7.4312052229346 10.591695383380708
Bi 9.094396596908519 2.20400547566076 5.9260223717713725
Bi 6.4860602721828755 7.997040519558288 8.463367683284922
Bi 9.775059016544821 4.8862605963720585 9.379170029432453
Bi 8.94164932304566 2.328343283262468 2.8504379560323314
Bi 6.533457352185463 8.367841815320507 4.36158593021977
Bi 6.222631190654365 2.9505492273533025 6.562249308510303
Bi 4.0793615744215685 11.03592584849082 6.453005287358261
Bi 8.449331565498715 5.117649078310043 6.625284373418907
Bi 7.550774410678002 4.996367679450421 3.103919542038107
Bi 6.0145945039120425 2.595356126820704 1.9786892612510991
Bi 3.5389045736391713 7.981968183968556 6.432970452047674
Bi 4.395728047397503 8.873293634794022 10.604648467963177
Bi 5.164402487312259 7.974914206916814 1.6191889136494413
Bi 4.2615932656952396 4.9699679939189725 8.760937115859138
Bi 1.8730207561598728 7.797916468939134 3.8939063170564014
Bi 1.9055192347655538 8.975800141942273 8.820712162129594
Bi 3.946881523957227 5.638930984049041 3.1889435386928606
Bi 8.021663036430487 2.9911929471684515 10.999091027557698
Bi 5.668895573844026 4.850615627677409 11.458458173180903
Bi 6.384336120705605 1.2785887413479295 9.10330826968569
Bi 1.9372852896660202 1.4768688402188905 1.9047597393728628
Bi 4.13481962858785 1.4046194042429998 4.049461948965216
Bi 2.397541913751874 6.563578950704043 10.607472076657407
Bi 1.642780222473567 4.526324922024096 1.5210509686150315
Bi 0.4292081858180908 4.906972650021294 4.2625509530040455
Bi 2.45128872495247 3.221228261425554 5.861186592659382
Bi 3.915197019645991 2.510603360297111 10.493758081724415
Bi 0.2430169239418999 1.6192707466231262 4.411922357313695
