34
Energy = -122.00999816 eV
Bi 10.95866018405131 4.435012004962522 6.023763537495055
Bi 2.459392968495744 9.564139919789953 4.787636872862438
Bi 7.684216980249514 7.038254571050299 14.290896011057713
Bi 4.5896596750313785 11.698135917728575 4.123301819722655
Bi 5.2133264111862685 8.054897911011413 1.7681449769214244
Bi 5.752199035132259 6.15916062017711 6.0485027235830415
Bi 4.549364622135911 7.292064475886881 8.647399411815735
Bi 7.735706241303147 3.6059347830697495 4.150745821692701
Bi 4.032948569509056 4.268574070362107 9.374903302095905
Bi 7.687446419652971 6.3291358480560636 1.9107913323783658
Bi 9.528948112993325 7.924941427061157 12.263172764182135
Bi 3.912746222247102 4.180992957524747 12.41143038139961
Bi 3.118408916445866 6.5814500858667175 4.476785656421573
Bi 9.502000340606475 9.607170163118711 3.816291152901374
Bi 6.635759497404666 4.087855987560981 11.039408532092184
Bi 12.163157690921604 2.589825542596987 8.209095045849006
Bi 5.8896917893361636 10.139283928231405 6.380215383416903
Bi 7.233726205068929 10.321831187952393 1.8480239072498217
Bi 4.806091842720656 3.135269652199021 3.4950279792934
Bi 4.188798733115069 12.627859126234089 6.95821745118734
Bi 8.70674225585491 7.03689965463638 5.31505828123573
Bi 10.06708884141747 8.480374104503431 7.628356465978242
Bi 10.31815675084352 5.124889821465485 10.597992758776515
Bi 8.128950846192058 7.127680317841653 9.622023674617655
Bi 6.928114175967059 1.3867823805884574 2.2148112573955423
Bi 1.9283466429037004 6.554008887512545 7.255533881982488
Bi 9.43201976694841 2.2846817125987426 9.547215888937991
Bi 8.181654600124157 3.991009727552975 7.299607342418102
Bi 12.406606393775533 5.6348600437247605 8.411654161666434
Bi 5.5781120951425756 6.733374635100769 12.178241211890672
Bi 8.837787991165783 11.072346338665827 6.412741101295919
Bi 7.300532800114236 8.268692580098215 14.290896011057713
Bi 2.7469968256313493 9.866607827412357 7.743561442337947
Bi 5.988803134834514 3.93102431612027 0.820545372008011
