32
Energy = -117.12190171 eV
Bi 7.439657617424242 1.0276951421324556 5.206875653610704
Bi 9.583035431999713 2.0332917736325458 7.181305692818184
Bi 8.181921626537086 3.354500006426808 9.515508564919372
Bi 4.642010651081246 1.8701924923498323 6.031388050798208
Bi 7.576782210497068 3.0991946179794767 2.966877310816673
Bi 4.656679982133587 2.1308614226738234 2.980772470856776
Bi 10.631886432097934 4.24112197726057 5.440070707566002
Bi 10.619784857506513 4.9681246371344 10.319188169482809
Bi 11.696971389333443 6.072744697780877 7.630915914630685
Bi 7.859381079913205 5.442192945814101 4.957765456849725
Bi 7.04935573552202 6.101592043342322 8.661733769165023
Bi 4.265987499241418 5.917686733907514 10.074658515963666
Bi 8.242570979688828 6.539918772841054 11.465624549319104
Bi 4.807234395116924 4.945324409974444 6.431088628780513
Bi 2.1916835985959895 5.126680959912343 7.974023073882668
Bi 3.952573146000577 5.134745892126113 3.489157408646577
Bi 9.525179502096137 8.152940472520937 7.432083399590382
Bi 10.74967928229969 9.9983848791524 9.488771756470902
Bi 8.36044133219142 7.413554735471566 2.647271936090399
Bi 5.435942688799853 7.115934761258046 1.6979626790164695
Bi 1.166484767358932 7.717599813375374 6.803213516261573
Bi 8.691632143144874 9.543278136602098 11.646198338454763
Bi 1.6577545633697137 7.228790083972392 3.776551707482968
Bi 3.6625615143709007 8.90719456293285 10.18253699208625
Bi 6.0554718452611915 8.772095382628526 6.350857944132397
Bi 10.370771894712792 10.266645364291408 5.373626261036244
Bi 9.517279579987548 12.135119821677696 7.681515614660798
Bi 7.704906251126849 10.046095042694127 3.963603392186953
Bi 3.2281813592883815 9.825926272167791 7.338022751879382
Bi 6.117331641734269 10.795447690708407 10.553907324370927
Bi 4.086340329512976 8.976186326756023 3.6565169551328407
Bi 6.547551452976292 11.5470482450353 7.682912192330989
