38
Energy = -137.59269052 eV
Bi 2.529452222866545 8.589181146074814 10.388921292774937
Bi 6.361547865003257 10.65200991094837 10.795732720668099
Bi 4.068785635950414 8.413587388185851 7.643443901077837
Bi 6.712762627594238 10.841272717548986 7.751966931718062
Bi 2.5419255064701884 10.321854985469578 5.7352114846879525
Bi 4.26528560055732 7.446735576890633 12.57515106582611
Bi 9.346238761856492 11.424052351151568 11.002614529345784
Bi 3.0157185852107746 5.624222477822168 9.735139929737505
Bi 3.8233734840386893 11.94466507241412 2.0526934435119806
Bi 4.758159018315034 12.311048262621584 4.961919411934836
Bi 2.152568737086573 6.403441281325928 6.306019711402608
Bi 8.37480783932458 8.294600134957033 7.748684154710696
Bi 7.0187395503369565 7.775439140190347 11.429440299625137
Bi 9.034179068760945 12.80481441865246 8.284812424290939
Bi 3.944003197652218 3.807208648926394 7.098690266038536
Bi 6.354263525866387 7.4143449615617385 4.728125159784772
Bi 3.477352774988646 9.047295656778198 3.1258390110171708
Bi 5.1704082980816315 4.335614153442064 11.576368231792026
Bi 4.3268484798305344 1.99896508590989 9.62927897199909
Bi 6.048286961809335 5.868564963390215 9.024935857856317
Bi 11.402599126111518 11.100232881352456 7.340041530708453
Bi 10.70689408338215 9.091797022445633 9.558962247248516
Bi 9.872988191901822 4.844740967848336 8.359549087090711
Bi 6.251136088406902 10.459097446375317 3.051015734374688
Bi 8.258967228466974 5.077278037534935 5.732701435532963
Bi 9.673552847722702 9.59162171648741 5.29878355631449
Bi 4.193778979330523 5.348961910873791 4.1476055953245705
Bi 7.212776508471283 2.3383122797038354 8.772139547343095
Bi 4.951983037779823 5.466709736946803 1.0444330593305498
Bi 7.63613906379986 6.501288579501217 2.0291442794340475
Bi 11.911942350166786 7.638890234390989 4.627720236027576
Bi 6.7843949101834715 2.435205135943972 5.638185541079654
Bi 12.31941159460349 5.286504652390085 6.492259685492357
Bi 10.70380102304295 4.946785976026232 3.9010439957971803
Bi 6.909575222875573 3.5716483796858784 2.158213742976821
Bi 11.100627073998723 2.025730167372841 7.87701230967167
Bi 9.057085173561227 12.80481441865246 8.485743900970961
Bi 9.47401630666416 0.8306183355808859 5.636832267551675
