38
Energy = -138.85085522 eV
Bi 10.851041660819174 7.065771115044498 2.3027576095000453
Bi 5.461324413386807 13.50860647906855 6.8182063198789615
Bi 7.333248828533349 11.987661924919506 2.62735271129247
Bi 10.205125196200559 8.79477711023487 4.740716667247753
Bi 6.603618490013604 9.112456839594818 3.352429525950989
Bi 8.091921568091108 12.91819223019973 5.455999250092014
Bi 11.903389952591008 8.011052966817601 7.130083553124475
Bi 13.062964977649205 5.360280267830942 6.2167598750205295
Bi 8.68997436836873 6.178019359650992 4.251830584705441
Bi 7.119144811185175 12.666111623821637 9.246148548307985
Bi 11.265702027292757 4.554003603486357 3.9309670910150065
Bi 11.030216616800429 3.960009652785496 8.056091804008048
Bi 4.000683163674247 10.79076405593017 7.085171888600043
Bi 4.501244097076819 11.351054715937712 3.5264442712201904
Bi 6.270747278028077 8.800796300249976 6.829756613033042
Bi 8.616476491074689 10.629725016733822 7.425694430807316
Bi 4.905783775811105 5.427586333863623 3.992562587254225
Bi 9.501458667067155 6.598144549740054 8.437073025374719
Bi 11.369167346392326 5.558965502393593 10.60448081820384
Bi 8.139748732349151 0.022423160547765268 4.502420379416409
Bi 4.2350214169443765 9.145777487632934 1.427078762290385
Bi 8.070620285996291 2.7656065781212553 5.78827931466296
Bi 6.184175155238632 8.326681097850214 9.973789664405333
Bi 9.40868152189249 3.5406046121435346 11.822185418473657
Bi 7.364888833043414 3.670547106202479 9.537072772290083
Bi 5.300122976470125 5.416932737641048 7.044033859725159
Bi 2.9881430832591795 7.825512023175461 3.945265668033002
Bi 6.087402596665838 0.6037535098767987 6.6502780576616445
Bi 1.8981390501305764 4.95614120844626 3.7850161897038155
Bi 5.800570826335543 1.8654064673847879 3.94055588698669
Bi 4.706621791947154 10.997952224976085 10.108074389748285
Bi 2.9226188831385094 7.325502757503009 7.438782342046349
Bi 7.001596887358352 5.393403589068386 12.01143283593071
Bi 3.3573078547757307 3.1239245720332227 7.669855359786285
Bi 1.0897022272572092 4.941705498923301 6.753128190050888
Bi 5.487038020673744 2.7892042927864025 11.755763104188626
Bi 3.3718087625467996 7.115037200485425 10.434550458227847
Bi 2.974044767450893 4.071391630428026 10.553397575264441
