34
Energy = -124.05360797 eV
Bi 12.70215552256998 7.331574482740413 7.311862259326556
Bi 12.892063976829819 5.491482442572945 9.660478881487714
Bi 10.367486979718235 11.303397447202649 6.581325526612046
Bi 11.407262260003117 9.568486418126922 8.806951113482027
Bi 10.266109653298418 8.859431356518682 4.818357050265837
Bi 10.42698517261522 5.355698584383962 5.891577704987905
Bi 10.494449459107296 3.7370108295481783 8.486971645721141
Bi 8.738203232077774 9.699273042288281 2.257458902274206
Bi 7.594101744330155 12.018524312809005 7.796984083058015
Bi 10.077105015014178 5.696604988616887 10.760006473404632
Bi 8.064435588525594 7.2033261279078795 6.271388579686684
Bi 8.624878338983596 7.959744821033957 9.285692662981845
Bi 7.688388093003446 6.874348964292104 2.7187769430324975
Bi 8.557719605998559 2.8074602528460026 5.015364312376213
Bi 6.2894253674919645 9.317989434456413 3.986763024379721
Bi 7.785373759220205 10.726492769535438 10.483331930319933
Bi 8.438267486238257 1.3196046710495122 7.5647121933373676
Bi 3.809424317860408 8.996772522505575 2.171432024806539
Bi 4.791630682894262 11.009706010963312 10.212461455836067
Bi 4.800003635339005 10.880547344255286 7.114739767905351
Bi 4.658499079730587 7.8414398758098 6.876195174886831
Bi 5.178586695873764 6.578668522148168 0.9508308078932368
Bi 6.386006944949807 6.415005319998272 11.115319744899539
Bi 5.724263000356104 4.881320551679369 8.584111581675979
Bi 5.999429596231737 4.498775500930401 5.19647729566481
Bi 5.71967468661077 1.8407009764530111 8.814101698449088
Bi 4.3865830661955165 4.14304641743622 2.5987017262109307
Bi 2.457397685685343 8.119219019750004 4.753086104678757
Bi 3.960706604925537 8.213629023255267 11.198005976185135
Bi 2.265026164118656 7.659654552783235 8.730872972097195
Bi 4.521232536800218 1.9397547733341778 6.001384243231867
Bi 1.9180597103327302 5.2189523233590265 3.9737365552665262
Bi 2.7639239899814645 4.69290920814095 9.15282135851145
Bi 1.883985690126384 3.4382924543069726 6.4965635681044684
