32
Energy = -115.97974392 eV
Bi 8.149847424809797 4.689731251262279 3.2093164252435757
Bi 11.291507461544517 4.761570546033638 5.069144559677673
Bi 6.031655096405815 5.9563471274772235 1.4142547504108929
Bi 7.490597996593781 6.8955885557099466 5.276931823613951
Bi 9.97872153799192 7.1001633218819915 3.5682292726031637
Bi 3.61528994030863 4.926531616147427 3.0054914198449665
Bi 12.87932314047872 5.530301781957215 7.540109198127135
Bi 4.569960529797489 5.052558626294479 5.967553721191301
Bi 10.127906388990274 4.45437046378816 7.865532721796378
Bi 6.166117599252963 8.549602907971819 3.0270965522356605
Bi 5.723645905769887 7.473906569606268 8.875940089705821
Bi 12.515417885206604 8.435488691915243 8.889665125567348
Bi 6.579452286700292 4.543931241876496 9.040555378547555
Bi 12.599596004605948 10.851568760695072 7.127019160959207
Bi 1.7630371081306575 5.520640622671221 7.078746325106864
Bi 4.160901504865055 4.058279031003287 10.879602736868346
Bi 3.4018511762203216 7.8884815897315805 6.167194123494894
Bi 3.146587263350535 7.9216443308419295 3.1065122028661745
Bi 5.746172256560411 5.548241185964513 13.036299744771547
Bi 9.606620786043496 7.562348495813677 8.51899020979481
Bi 10.476032446687112 10.677917677784508 10.490171593996452
Bi 2.8791769383604016 6.57373280913518 9.737301965523585
Bi 10.123095915010808 10.772501151208244 5.345273101940764
Bi 6.151678243529977 8.319275566206546 11.750518376023257
Bi 8.283349542931123 4.563096047563848 11.618248488177285
Bi 9.08944523916443 7.51890882222777 11.578641672819113
Bi 11.139030003093305 13.197064603595345 8.786928185996242
Bi 7.900558705061853 9.905040190799907 7.21371871452917
Bi 11.15328387464881 11.783590835147628 13.279685575844836
Bi 8.272153461996757 11.720918288385372 12.394032740499645
Bi 10.012747058720812 14.067347619622618 11.717869606873625
Bi 8.640938563024168 12.845008955536233 7.089123721205599
