36
Energy = -131.04808384 eV
Bi 9.253258267547585 11.061862331114343 8.640257334800198
Bi 6.132164673801865 10.978747929621557 4.157929700387191
Bi 3.0840116407223017 10.565934997780692 3.8697112465746915
Bi 5.974943659449947 11.483967305954165 7.156700801017668
Bi 2.8739720618034736 11.519984327571436 6.756375462927497
Bi 6.5552126303429015 8.481586310523259 1.0998116905815345
Bi 12.28090732669337 11.245413339985584 8.223517622961849
Bi 8.24076188866441 8.867466958680023 3.5957886495138998
Bi 9.858292488943547 10.436660144521554 11.54701736340495
Bi 10.663163035090028 8.905937126850347 7.036536820302413
Bi 4.010982584376579 6.417134678136432 5.006005999072839
Bi 4.6986703429243395 6.110952131433611 0.7528235762192993
Bi 1.632757675000601 7.927077856507337 3.853195058159475
Bi 7.664129083953235 5.9154774762070925 12.216126326989253
Bi 2.9616646728292424 8.98802252743857 8.445641200697148
Bi 5.906037749024776 8.474889941176984 7.801627985007879
Bi 5.856892140270888 8.371545909269178 10.888918719838511
Bi 7.456713371668794 6.202274473174867 4.815939924889497
Bi 1.5553426060303748 6.915575784608278 6.730592905298118
Bi 10.135343525866222 5.4284149078127095 6.084876137858211
Bi 8.563953033628827 7.791455017593591 12.216126326989253
Bi 8.222284099792043 4.306460695870365 2.5427215818970494
Bi 12.222590102616753 7.271603775908955 9.060662707343155
Bi 12.718064225174496 9.672148010739077 10.8463741449222
Bi 5.321851894534047 5.538395440064736 9.770189957555441
Bi 5.360991026438702 3.421495080759362 2.0494542249748364
Bi 5.708340867931414 3.58313598707545 6.813552016894019
Bi 3.621549426302625 3.4304762580922676 4.571343271529877
Bi 2.3045024068745747 4.841744232799318 9.738571901555769
Bi 8.560031781509878 4.830894167879879 8.63044447492493
Bi 10.379889823391451 5.742908615264533 10.892713143427045
Bi 3.530119001342651 2.3007516027759367 8.673107138438876
Bi 10.01594074908598 2.3966223550176724 5.470186703172956
Bi 4.202298086385287 3.265515216561944 11.482705914630518
Bi 7.430572775376579 1.10720782578144 6.404949556383146
Bi 9.523206559570479 1.9073322001467996 8.455148739498057
