37
Energy = -135.37018511 eV
Bi 1.7776772748407959 7.695253225789754 7.782890159323386
Bi 2.407904470603352 10.575481567601376 6.87499745073419
Bi 2.853114671420644 9.844472749461579 3.985630796336248
Bi 4.467962756956342 12.087114269279008 9.923063632450111
Bi 5.064581905662476 11.832368025839937 3.2794391971159866
Bi 1.4980803637056757 5.4851520928726725 5.6357470557284755
Bi 6.908215213824044 11.713770086686967 5.733672786208525
Bi 3.0569986316567257 9.817221762339267 11.344124731052611
Bi 5.269771850867833 10.095391872067397 7.779656004786444
Bi 4.549528865250184 6.5161873376574535 7.972291200882877
Bi 5.998390326725538 9.365198623597914 1.7300553967252292
Bi 3.84264072259723 5.4109834544771305 3.5861181337314605
Bi 8.44238819671556 9.149388925106887 5.224393422049194
Bi 5.252100590288094 8.018463145730985 4.408844053946447
Bi 4.036173822263601 1.96375422718709 6.28689388257485
Bi 5.695209454223814 10.985014750888894 12.447160002039197
Bi 2.6457489422581433 4.052176052518318 8.063378138706216
Bi 8.943394125897283 9.870865058711686 2.3212387581477643
Bi 7.224819141291976 5.6805546003617025 1.600188282908164
Bi 9.916087500357088 7.080518182239512 1.4657458516147184
Bi 7.382696440693967 8.596971991436961 11.548745037863899
Bi 8.607770140536939 9.417610889925339 8.861893665172367
Bi 6.552116990610984 1.8309893914846784 3.277905368226826
Bi 8.17659176036846 6.410823086609027 8.208687307487581
Bi 4.707297109121249 7.244189659091087 10.960662642285358
Bi 7.936363325687996 2.8690319232933668 8.787782998509273
Bi 9.070104538059939 5.615911870861898 4.012851880793171
Bi 5.951216951963008 4.043528261722628 5.273738517164662
Bi 8.99323226813368 3.2455149589638497 2.0570243666005164
Bi 11.307861718526967 8.099115297927538 9.7083573070595
Bi 6.245014596503504 0.48250897070846915 7.811340442360641
Bi 9.667137069972563 5.764432834863552 10.85945115620194
Bi 11.09391633418091 6.279124392568454 7.19993898430574
Bi 8.108832084428649 0.23352393723459447 5.36617223707211
Bi 11.918291697473748 4.26909590617732 9.408826238439643
Bi 10.64188253427719 1.5315022649770185 8.852194261975383
Bi 9.682670962968286 2.7205797026537377 6.252684002334046
