31
Energy = -110.85066354 eV
Bi 6.975594597007143 7.103817854157115 4.373244921356882
Bi 4.241395557952784 10.590692941796712 4.580999049829848
Bi 7.430491995653335 8.178264530378238 1.4501986139870564
Bi 4.544676120415858 7.805732225124386 0.6439764205723012
Bi 7.20214362779796 10.16516236241063 3.9963432010394477
Bi 10.013310980678487 6.867481679882476 4.573574776708182
Bi 3.769895419938516 8.161644329793598 6.571893080962182
Bi 6.697226337413728 4.9767548470909855 1.1484139554608368
Bi 1.9387687351334484 5.22039915079851 5.21487557476975
Bi 3.008832712608081 8.23934896550905 3.192454903581991
Bi 4.24229378389518 1.9809301763672433 0.8956161836871311
Bi 3.7818386341775887 4.922538178958847 1.9950961728748984
Bi 10.055048956123164 6.883803011170441 5.738654995163311
Bi 10.050304147267614 4.829780665750125 3.5244297717801696
Bi 3.008284393661894 1.9552965062525567 3.626461406698848
Bi 6.683082359779072 8.868176021162622 7.04583921753257
Bi 4.542826536585226 7.895834121173741 9.74788423896627
Bi 7.428453990057053 7.010827155352012 9.669009518487625
Bi 6.975894858078783 5.011169322739465 7.2751197880473555
Bi 4.244027576118253 3.0983179514378505 10.192384445245615
Bi 10.0137806560466 4.966024811512828 6.97066769929215
Bi 6.979914019353218 3.5500229538879857 4.012412489250431
Bi 7.20449155286428 3.818808907235685 10.116475408578811
Bi 6.687663927752712 1.8138803552398053 7.462883647999667
Bi 3.007738514849754 5.47310128673322 8.8450256278972
Bi 10.017536685543835 3.8400996358373956 4.125538909391553
Bi 3.774265373957554 2.5844379711908947 7.093864416291402
Bi 10.060724703123867 3.9389684789482153 6.40992678674686
Bi 7.202924279640041 1.6869068014547293 1.5561508242513873
Bi 7.429350487751699 0.47513038333252466 4.551892933575043
Bi 4.542619205702511 10.590692941796714 5.277060443222616
