34
Energy = -124.09007839 eV
Bi 9.021802068998106 3.6055144124524086 10.129464677090796
Bi 5.9418171489466 5.641065864347431 11.90126731300714
Bi 9.674693784997809 2.2411001113087172 7.480147309243636
Bi 12.09770786321763 3.737187040179051 6.351309530701599
Bi 8.313199046977415 6.762188573852551 13.393461443188711
Bi 13.25671761539292 4.129764120553595 3.355304596375583
Bi 6.905160088577722 5.450518694628133 9.010371079728534
Bi 11.448018985856251 5.307203363246033 10.706955749061903
Bi 10.107207817692325 7.967705939320793 11.297637719834091
Bi 4.334832676032149 8.100941613398932 11.21060554082981
Bi 12.630830874795032 6.052976284192806 5.584122681845288
Bi 12.630830874795032 6.1673111182381 8.070026669129456
Bi 1.2486194710032144 3.8937848938040407 6.006291421515952
Bi 8.027514081462245 4.17747319892345 5.816511120554262
Bi 9.140434743779378 3.1433001425894136 3.228506655678173
Bi 11.361095081796632 5.149016117987886 3.7399341540340445
Bi 4.456630189990508 9.834510237266874 13.693369670952602
Bi 0.4755616347513163 7.063599679934896 3.039050023671232
Bi 7.463825224729384 9.621248643507794 13.927860072095392
Bi 8.169925275382644 8.215898786189113 8.963511293579561
Bi 3.792051695246059 5.5493902474693515 5.969556757623699
Bi 6.610552305255658 4.663296499198335 2.270831020586658
Bi 5.332161517612612 3.2468265938701317 4.664321703386731
Bi 5.984705700721562 9.04297367750689 6.094828691102285
Bi 6.226842518447783 10.468334749025868 11.292472511664128
Bi 3.5005507819666204 6.967501394924246 3.3177972362470616
Bi 10.329131829443941 8.065903176679008 4.388009704544879
Bi 7.357592979222865 7.22357903584611 3.9354758509641634
Bi 10.764698604912695 8.449932027909831 7.349944520393057
Bi 8.283752671846296 10.725808089342232 5.345416139307192
Bi 3.642515169829765 9.83547744379908 4.360789007636434
Bi 7.15373505171817 8.742186101146435 1.3092821111909316
Bi 4.940224918918211 10.739576254491082 1.7945461736345174
Bi 7.776178429494552 11.494348922028262 2.4784628987593815
