31
Energy = -112.80608955 eV
Bi 6.784776137007807 12.765314638052958 4.5502838462579716
Bi 6.022936121325902 11.1154085010056 2.1290960253915
Bi 3.909424764725914 11.859826436471769 4.166766602645979
Bi 11.207019311304345 8.448852451674863 4.98921911826429
Bi 7.307736762125442 10.269005811582632 6.155514134097105
Bi 9.455462954132418 7.561720145947067 2.6446492431428887
Bi 6.435942113620211 8.131665728157316 2.6187374804940124
Bi 10.22807866716166 10.504566629593644 6.9880698577046045
Bi 3.2361084213734137 9.294113423998391 5.6863015580086165
Bi 3.5366530738511424 10.433347855146069 8.500008458523292
Bi 4.050162030601899 5.2562648624744215 3.687365810859
Bi 6.48407909952555 10.978447369522835 8.976942555480235
Bi 5.61192330765657 7.372154176754187 5.482986968366848
Bi 4.041491899395294 2.24746336544313 4.25576031535211
Bi 9.147695905246206 6.275087087630417 5.408588036659532
Bi 11.729049373826859 4.890865074804142 6.154887481411625
Bi 10.177667288735137 8.60497130770112 9.438333650517066
Bi 1.5999817446030804 3.971799768181478 4.883953892901103
Bi 3.073930667400291 7.905375065924968 10.192249187201096
Bi 7.202681639836537 8.020199133744097 8.997892547025264
Bi 6.7397250666210144 3.841800288868167 6.289138142880136
Bi 11.034474952743482 5.692664307704937 9.006008012268895
Bi 11.182366936397498 1.9202643077011718 6.757564937478137
Bi 4.182240742939614 5.749158561664642 8.28751576078827
Bi 4.604521539945193 1.901180706542627 7.275395840921347
Bi 8.099876284093956 4.501337411804514 9.05059723505476
Bi 2.118472725281568 3.5830978852235673 7.887174639898255
Bi 8.283553881221225 1.139235023431176 6.363927340424029
Bi 5.7224742858869355 7.436807687674057 11.619762445877459
Bi 5.385463694741384 4.50943200574005 10.787615581783632
Bi 9.358814770212433 1.6914727208995117 9.15943523459728
