33
Energy = -121.03882291 eV
Bi 11.274717250780279 9.829926209116199 6.107887586774072
Bi 11.607086527193362 6.775486418519178 6.028979466512636
Bi 9.121388679945866 9.917588861364392 3.9032123906125546
Bi 9.722181335315675 7.334524039555928 2.405837077636044
Bi 12.137552798424363 6.275736694351177 8.922125468710338
Bi 9.84886876363932 9.441416271773717 8.770595568539177
Bi 7.0734300648921575 7.664209196904854 0.9408273925981786
Bi 10.41346554215149 3.1198764515555792 5.521745367534777
Bi 8.511950543040957 5.245663147482218 4.326634745519939
Bi 7.721469003039018 11.658257526777357 8.827261383679028
Bi 11.162985105806795 3.4214857308828384 8.475403565622722
Bi 6.707422278995761 8.889331245390895 5.451724227184726
Bi 7.677741850322786 3.1487278708317294 2.298610470767654
Bi 8.810314251164467 4.876304868665498 9.710454022031632
Bi 5.569703283138697 4.973925242025585 1.1227178274818648
Bi 8.766235329692412 6.912314581551907 7.391404597916393
Bi 5.882985239880161 11.679127802102004 6.381878129862975
Bi 8.04097908440498 1.4163518734552059 6.470779069288311
Bi 6.313471580644898 9.883079040088287 10.811386534108367
Bi 5.87870409369945 7.380665081272008 9.172998312327767
Bi 5.820663517515785 2.288244126171375 4.547810592151756
Bi 6.798668574804852 2.604193629116473 9.026689389650628
Bi 5.53004314604278 5.0646744498778 5.866098042844154
Bi 4.9657522521542425 8.683754731678762 2.945141223201584
Bi 3.7882226879112992 5.890108123144435 3.4768968669068863
Bi 4.436420745033093 6.360182914837006 11.612063451871137
Bi 3.1770187594557466 10.848239028155161 7.534445551171866
Bi 3.5352679111575185 11.00361279636476 10.539104807832079
Bi 4.048657392182487 3.1823346965315946 7.834247630250645
Bi 3.6330002668400914 7.890799689949142 7.150362163712529
Bi 2.491345688725748 4.63254575117163 10.031229462671089
Bi 2.151896916667961 8.406936570976443 11.432558054374178
Bi 1.2299299264104893 7.149915729433047 8.810429949726336
