36
Energy = -129.53813517 eV
Bi 6.493735498200291 12.468284114514681 11.191287542919467
Bi 4.942757250945647 12.367613407598435 4.34571180834223
Bi 5.136352480590454 11.727473275928743 8.581599202943233
Bi 5.222224199693088 9.659066521306213 10.875352366083238
Bi 3.4617798007943685 9.726751840091437 3.4142304645949944
Bi 8.839811197757536 8.984966242485504 10.054859362115032
Bi 8.185721252551765 11.705475325778023 8.772069803240894
Bi 4.4071692671310405 9.09467581184601 6.238354500109183
Bi 7.066594447489884 10.405972182244383 5.293994224797252
Bi 6.2061709936668805 10.449066621094303 2.343691814844176
Bi 6.6938902222587195 7.559752050825806 8.473137515610807
Bi 2.3658099666678547 9.302313438737702 11.916689681396685
Bi 3.631184337355658 7.039714077567684 13.436374563694313
Bi 1.1635209820662789 6.8977667708189285 4.7180778023896215
Bi 3.1181507600384424 6.3432648330542305 7.008622107436698
Bi 5.995314814661264 6.095346832306077 4.132559389222093
Bi 3.3044327375950955 6.024696574587391 2.628964891617011
Bi 5.367577274896159 6.027173195171805 10.964788798164884
Bi 10.763397938163411 7.402724509464159 2.9322007386719906
Bi 6.232802487380729 4.098253164239423 7.610179757782645
Bi 10.594965731854515 8.71962520369416 5.683079695831197
Bi 2.444820539051797 4.190997575063571 4.856470250250923
Bi 2.3620906005449855 6.482549521030192 10.724795937545432
Bi 7.696679798378952 7.252243701236534 1.9142623723602805
Bi 8.810619671232072 3.4606063255597297 9.158482231991462
Bi 10.138986569945013 4.29319722009848 2.5467572704111996
Bi 9.698116466385823 6.883518529534502 7.942713614915197
Bi 6.0807927607653 2.7172887133675983 10.388605442872175
Bi 8.775367773818587 4.364321776417805 5.274737030802416
Bi 12.726867704124544 6.563763328209644 5.190549525153963
Bi 5.878290285790011 1.0095948639158296 7.816477035845956
Bi 7.031309216848578 4.353649701395177 1.7716605317664524
Bi 11.555041826768852 4.139519774141311 6.629392677612695
Bi 8.893305426261373 0.6511128237673616 7.89577449580488
Bi 11.791400312974138 2.2101677772394064 4.2241098156622945
Bi 8.936553492905727 1.3255169914542575 4.915153397878318
