34
Energy = -122.81018295 eV
Bi 2.454992176030318 10.734211318444395 9.896825747140035
Bi 9.9369624934301 7.730769660081871 3.4487076899934253
Bi 5.766734053299059 6.053056855475892 3.364379341088084
Bi 6.579877892441868 4.7200532388885845 6.959066455112465
Bi 5.011896379760007 9.568408525396801 11.070932099092596
Bi 8.475513470956386 5.078366380771013 10.564401938771237
Bi 10.888581260422157 4.553892650641316 12.392062038455677
Bi 8.750810088156829 12.055847592338202 8.675936250938545
Bi 9.867741688096064 10.24455687719377 6.456108882416668
Bi 12.388930525588654 6.6358783069463145 8.798156284736228
Bi 3.833016893602841 7.438918920327355 12.975695013679843
Bi 2.9583901886514496 7.742172115229017 9.700808929771071
Bi 12.796756665640768 6.8231763371482845 11.819188927090549
Bi 10.727065575866177 5.11046943522323 6.20543831568796
Bi 6.5588383037059 10.122497930244133 2.8656024261113173
Bi 12.59934307342722 8.432429578814885 4.733709608366713
Bi 6.708751501272898 9.861853706347684 8.25387088151414
Bi 3.8945073294730532 4.9206673859918 5.484828738504399
Bi 12.632915153926369 9.54711278699634 7.755356569826093
Bi 10.149865074307 3.205259250550279 8.503840895546732
Bi 10.23974845949419 9.785670997581496 10.04611862846551
Bi 4.346271401180574 7.622778694393625 6.86549049365088
Bi 9.4144482782442 7.100209346244104 8.350988924671485
Bi 6.326951481641919 6.159089240355498 13.518168773706684
Bi 10.478005105107554 7.286836708775687 13.715649132410414
Bi 7.27053969766789 8.17101730171011 5.159971882975437
Bi 10.925450951318613 10.592391387678473 3.5059280730342857
Bi 3.5854430415640217 10.611973659765809 3.175298354658562
Bi 7.819593666499283 1.9575518879550706 6.940158361593883
Bi 8.143117551475022 8.065057186714325 11.953789075028256
Bi 4.246174504238093 11.63615693000993 7.546212042981152
Bi 4.5225515274406884 8.2473627244515 1.5657073208259775
Bi 2.48952642101036 9.78950627722927 5.896537697663119
Bi 8.36145355569519 3.882402358916331 4.6280064242543455
