36
Energy = -129.86530016 eV
Bi 11.869509513955668 9.68178421230902 5.252471269189981
Bi 6.026709893576401 8.54114957406701 10.28079003701916
Bi 7.388346319624452 5.43465716077523 13.020771062664283
Bi 5.6727696966064505 11.70139714482642 4.174391309840717
Bi 12.410659992950524 7.387838840074064 8.229370356540748
Bi 10.11262363350173 10.220589891831283 10.66750457219692
Bi 4.176340142511675 10.589813904419293 6.567734974338906
Bi 8.827616681195718 7.850834735399002 9.27252932123951
Bi 4.534914146385133 3.390819206551228 6.993899177174726
Bi 8.136085824378974 3.24500668265951 4.64718095774704
Bi 2.595364033051613 9.496746260580311 4.21084449168873
Bi 5.7727777867378975 7.677427739928613 6.837730029949032
Bi 9.090764969795396 3.240129138216847 9.30205440351583
Bi 9.786118410466585 5.61130946075975 11.15071700779378
Bi 13.429414524279503 8.49613081098715 10.88675802417194
Bi 8.398781772871954 11.966259775878871 7.568855288551456
Bi 8.493771260365556 14.129297162459501 9.697370269641597
Bi 10.719574316505497 8.295599059371442 2.834494315887316
Bi 7.139061392616991 14.013334808516067 5.675625047795599
Bi 3.941140322575591 5.840415513836409 5.200199085041022
Bi 9.331085627525182 10.74544033311119 3.9833919969980935
Bi 15.387512027785972 7.390558249670357 8.86947071623453
Bi 5.935023473246983 5.4536454459564485 10.268699716723624
Bi 7.475513144173674 11.645013620098247 11.288027129676468
Bi 9.022854011385522 10.241390016861763 13.51499124785749
Bi 3.09618381425933 4.661475238004738 9.378080213969756
Bi 13.534950020046137 5.530762993783531 10.37052694016047
Bi 7.327713649646623 4.705852009455944 7.260464734124214
Bi 2.748359045821248 12.481289273621297 4.510123463065565
Bi 11.533813575404887 3.6179614370184408 7.552491154928865
Bi 10.652874583846874 1.7023908981721847 5.319637982759952
Bi 5.849329999211682 13.403030820075287 8.359813216812315
Bi 6.621438719571246 8.355222659786293 13.308010456051107
Bi 9.279918330508446 8.108190084425049 5.511068884395382
Bi 2.8559739971569984 7.208205354404744 7.680303428602605
Bi 10.798419770255068 4.689974822118296 4.75112769911607
