36
Energy = -131.86272271 eV
Bi 11.676048477249001 6.848008545170765 4.349763079357248
Bi 10.817880287911734 6.221779256216108 10.393641558250499
Bi 11.33931121036225 4.435229996304202 7.936026537785347
Bi 10.848915858058946 9.801978293774038 4.590500707239003
Bi 11.441678356042308 8.909731980406354 9.139143462367185
Bi 9.800446126741205 6.581373572062029 1.9485045657089093
Bi 9.661010910400272 10.751230885975671 10.813501910893171
Bi 9.269750451119261 5.714295321107171 5.934043099131532
Bi 8.748268459431163 11.990390125123316 8.16953976417172
Bi 7.849757915487221 6.2182732866221215 11.03607780993346
Bi 8.417979642700644 9.193517930610037 2.793755294144455
Bi 9.415225518615149 3.9017646982097665 3.494546951243941
Bi 9.216953989794579 9.189637190054523 7.073011756521213
Bi 10.09715925705314 1.8842539906508526 9.091433895256314
Bi 8.733719806933177 2.037970062237968 6.321846336066833
Bi 7.304253067502842 9.146497180151306 11.883695598852407
Bi 7.584664563606997 3.551545344655745 8.691477195117118
Bi 6.466069418244011 8.323690162499842 4.9797919637322865
Bi 6.342488826648085 0.4429463380191399 5.241867414452996
Bi 6.4741878693562445 6.854904428291052 8.36378325281718
Bi 5.46335641918976 4.824851850527863 5.09854432454776
Bi 6.518343605330048 2.751248121726953 3.1863611432630026
Bi 4.9655684606556685 6.8131318080859025 2.7878551992018044
Bi 5.579789273390422 11.25828603145285 5.2700387803366615
Bi 4.996685309088664 2.2152229225059363 9.53778674216434
Bi 5.730507675600095 11.724929666097847 8.278603990044216
Bi 3.079016649080638 7.826818682177848 6.8190368452463455
Bi 3.8925531278179895 1.1774732171040927 6.899291324636278
Bi 4.211882964431402 5.1575793489289845 9.734887352256514
Bi 2.730608525868287 3.5422312203343242 5.371248804779175
Bi 2.199148157085137 7.123514102707882 4.006322816506651
Bi 5.0562983274835025 9.177028432973279 9.80804770812787
Bi 2.59750946840696 11.860511910987931 5.326537480709601
Bi 1.8648089133643513 5.192487578659947 7.811561402288541
Bi 0.7755700432210968 9.845548185573087 6.67466567561127
Bi 1.020382704171644 9.936171984626602 3.627944219025399
