30
Energy = -109.49595543 eV
Bi 6.841812199683023 15.247247981615272 5.018052150018151
Bi 4.097903069427646 14.242945267215191 4.086939667479777
Bi 8.188552227499628 13.425171224909239 2.985374564224224
Bi 5.46955694492736 12.43800104897418 2.0505113871070226
Bi 5.264354285564393 13.310592301278048 6.725743115765417
Bi 9.065742964159 11.454162513908845 5.0759275933905865
Bi 13.789674519551227 8.50241174363575 2.9343052010410378
Bi 4.818453691183028 10.02893587395607 3.7187849002925972
Bi 12.731265518276947 6.119787649393782 4.515837922923467
Bi 12.745025203742856 9.985937368154524 5.387581930025623
Bi 6.420341276762986 10.556123958039796 6.19308493818737
Bi 10.566272665373374 7.856568862347814 5.869429161249267
Bi 9.520243461407476 9.0405226867844 3.291461295251116
Bi 6.721008144101916 7.906134824847264 2.6757876781148844
Bi 14.960192724359125 7.863002877641895 5.61409282228524
Bi 5.517732593701682 6.401278960487369 5.041809377711924
Bi 5.706940282610488 3.708574233643688 3.6032363556819824
Bi 7.8106527705532525 5.44613543436376 6.807849659677841
Bi 3.3673863659512837 4.488478795689818 7.585563282403148
Bi 4.450718231269755 2.189204056946587 5.937253083410817
Bi 5.789367945023578 5.59246022005832 9.082115339596708
Bi 7.438824479337427 2.5620801779890434 5.848008334283881
Bi 2.5158016477752825 2.1982811251504035 9.418348148604666
Bi 2.236147110118036 3.694864056643311 11.997190762320306
Bi 6.849001305121313 3.2944211959922893 10.729683005098414
Bi 5.072971354521533 4.302314247441733 12.922136157791304
Bi 5.239970561656112 0.9753628684876613 9.685811868107029
Bi 2.275874737659992 1.0773831773341775 13.560488329403785
Bi 5.117086384444888 1.7036222276505626 14.523372757994714
Bi 4.664211168507997 15.247247981615272 12.367305044830706
