35
Energy = -126.15886448 eV
Bi 7.643959313933993 4.46541770860871 1.7711412788576153
Bi 8.608992463524173 0.9888389930788634 4.29027294227409
Bi 6.896473702155698 3.4830232629636675 4.566830416827335
Bi 9.603064306353964 5.273732174739473 4.21864768499583
Bi 10.147654159464475 2.825582049558913 2.4547574714109146
Bi 10.204821337086488 1.171546737641462 6.901320468900996
Bi 4.304878828649006 1.6326757120147388 5.572332758991814
Bi 12.293886387366019 3.31183959347708 7.505823354182028
Bi 3.184380667207078 4.505721174208015 5.547463283386093
Bi 5.266961881468221 6.934514278235234 5.655907781137476
Bi 8.182533124915022 8.75886165295799 5.57430670166783
Bi 6.7521095995277385 7.632695033659209 3.068452177092988
Bi 12.349308410171929 5.779411836686641 5.659692703062428
Bi 5.579432927471378 1.3289743769086522 8.33144693587452
Bi 1.456289053234262 1.6715593906573583 7.059432426250477
Bi 8.298163550656255 2.6654859299281917 8.689597615800011
Bi 0.13789082174458264 3.9077808502393494 5.577872953046047
Bi 11.254915815749294 9.094942988535001 5.2873437517128075
Bi 10.89670634583645 5.905111239305723 8.281089346523805
Bi 6.244815998094897 6.02733602640834 9.84184299299895
Bi 2.0357245418973675 4.370610338273938 8.365306792554911
Bi 7.585074599466063 11.49834837016312 4.539670701762452
Bi 1.7566126340649437 7.795177118446248 7.008211126394317
Bi 4.0701986707066276 9.072372136583853 3.920175863797673
Bi 11.864510664037894 12.127301287968393 5.588984547957866
Bi 4.513685263996285 3.5632139985438385 10.1021194865326
Bi 11.049710127067549 10.481151086709128 7.966956553482899
Bi 7.948718582094857 5.369243362380041 7.3250013038801995
Bi 9.16869075920991 12.65682782827477 6.863685528793806
Bi 0.3483555418386721 9.463620075603698 9.172447599677582
Bi 4.760047928701207 11.422827085844764 5.74287353619522
Bi 1.0713842883794638 10.777380975020192 6.542904907224129
Bi 5.244646314592522 10.484727479465816 8.602590140624015
Bi 3.818942283074516 7.919891400802457 9.315862623064902
Bi 2.473571455548415 11.691225547490586 9.061407291437302
