30
Energy = -108.02381288 eV
Bi 7.253998167590608 2.992194846162674 3.329834611835831
Bi 8.823933166196703 2.4004534494209584 7.3009622513419075
Bi 4.183928705668465 2.6572951918227457 3.311716158135774
Bi 6.394054608543993 0.7204335607604931 6.4750912696867235
Bi 5.452709332570514 0.6753696091961774 9.418552219742281
Bi 7.896751369095017 4.848722119381858 5.72260097541786
Bi 11.825507470019032 6.904547569372854 3.80549889902336
Bi 6.635198566060839 5.24941842361445 1.3183799197771335
Bi 10.832906114752415 4.19898629523033 4.795754657415786
Bi 10.042144603659015 7.613573585825736 6.118106296409874
Bi 7.734817249635155 2.59731034026007 10.164854305709786
Bi 3.6374366966059055 5.31546488947264 1.8836467749614765
Bi 4.685463410812947 3.2212861612977433 6.265648709327247
Bi 2.8983771016701305 2.129077610567644 8.55961556312175
Bi 7.106352177982433 9.097562317892264 5.258224731670056
Bi 5.680277623173876 4.62831662272335 11.032846737489942
Bi 12.595730632288927 5.9413378230610245 6.552523051857662
Bi 9.655824672576749 10.698249115068561 5.7187606711107675
Bi 6.277835013206925 8.053670930464719 2.4972792705850275
Bi 3.752328289194508 5.0934236422793475 8.813121927307588
Bi 6.09549472706224 7.594582719647723 11.75658919971934
Bi 8.040700536927794 11.736511411470241 8.089525739164525
Bi 5.818609592544464 11.48065121681473 3.936438506440885
Bi 3.974533066401845 7.325325417736901 4.297080766771432
Bi 3.3158471999121675 7.75249314197857 10.602236569892785
Bi 5.394976534806218 12.609117869538693 6.77219470718002
Bi 2.9816288263197483 10.23854722475343 4.070801353847377
Bi 6.137920751493683 10.034091381350981 9.817483971133878
Bi 4.806565320439216 8.194934834748986 7.877953836135299
Bi 3.081866316268159 10.575712982957123 7.125216346552481
