38
Energy = -138.08637838 eV
Bi 10.924781027371578 9.518870102172206 8.753737340074276
Bi 7.969083892897095 7.050334349644276 11.041819296057154
Bi 10.92492952442045 5.901588170774181 10.324739500952258
Bi 8.442873635776534 11.242501645077347 9.352001193136452
Bi 4.766595160253849 10.297592264264875 10.37009808064921
Bi 10.09413970498525 11.703529465976645 6.841578084019336
Bi 3.920496716210504 12.051676012101925 8.034484535385408
Bi 7.652196608867319 4.203511868906428 9.821246901198597
Bi 4.879420908907524 6.182353833332482 11.515788226184988
Bi 5.772922478817557 10.137701701003737 6.18410024955858
Bi 11.609929700867953 7.103890589055118 5.848201520358137
Bi 8.074604093119472 8.42404967832891 8.233135825427205
Bi 10.234793036011006 3.0491319761237325 11.019412479449747
Bi 8.417178449991622 10.778125605692917 4.382132913761258
Bi 1.8037538605662045 10.59584198417586 9.88245192795086
Bi 4.829760996308559 3.249702899089512 10.984245643496928
Bi 11.250264589684233 9.495266755770643 4.0076923143725915
Bi 4.709183641832035 7.6366622684016505 8.769747385117554
Bi 2.198465073485621 10.28232878639481 6.062884262908909
Bi 10.365605895192532 3.971365033273341 8.139259901116413
Bi 8.694229512597394 6.166761286101661 5.656254508234263
Bi 2.6774885084594477 2.874023867904507 8.858808764442125
Bi 10.762435292783382 7.807648484919522 1.4618632553289757
Bi 4.072238178306972 9.707678950123137 3.682680266797381
Bi 1.7382613661808568 8.08791280337963 8.09306617692389
Bi 12.805522507610906 6.189028177014087 3.1063538314705275
Bi 5.935285976210121 3.118757177235827 6.463091575353325
Bi 3.6193161378541814 5.0610812003223 6.911883793864341
Bi 7.855638682621119 7.912339872339673 3.343576879287647
Bi 10.52536883831115 4.783479031507591 1.7259059335049305
Bi 3.9757371246696214 0.8721656210373496 6.939175646820993
Bi 9.297982229975348 3.569323460634232 4.210142804053322
Bi 1.1784587033802492 4.317642928009179 5.22743604014744
Bi 5.079895380714292 6.9342284949104585 4.430815866610202
Bi 4.993861525887437 4.907147464422466 2.1284213045693043
Bi 6.452060402527361 2.656231095612926 3.4905743086420875
Bi 1.8484938731344718 1.4046296920879529 4.805307600300215
Bi 2.334960362425617 3.442109002095416 2.5840974616919947
