34
Energy = -122.62322534 eV
Bi 11.762259125463231 7.141470400679628 5.324633184227695
Bi 12.01297312229791 4.647360218558568 9.448775567422299
Bi 10.969393573859314 6.222190013041484 2.4307431392150636
Bi 10.402711263135096 9.792409551795332 4.623287966678287
Bi 11.642873972945036 7.544590086308592 8.725940221681
Bi 10.348308624692518 3.099444677024162 5.515074044907551
Bi 8.803698772966737 4.195084266504515 3.14510601775866
Bi 9.031570258207198 8.640883414652661 2.2528432269704814
Bi 10.769391069005545 6.554880088877838 11.398149422383359
Bi 7.920192420592184 2.0827428190458668 7.108702813571781
Bi 9.03212998350316 5.871861509355162 5.792778949956432
Bi 9.001429388571436 4.521004937369066 8.712001620695814
Bi 6.0867870757578775 7.0678636724211055 2.7103989465173988
Bi 8.748240466198139 9.55455771256824 7.454460071498647
Bi 6.784465060394693 11.129463161080624 4.050307927473847
Bi 6.720505115953202 7.406357877448231 8.997829363399989
Bi 7.648985165414414 5.771663283679987 11.425892026929837
Bi 6.334302988821853 8.52611995346033 5.609941444329374
Bi 5.477910180795071 9.799885115515464 1.5120409297611663
Bi 5.386155631497802 4.598107200076147 9.52587825433195
Bi 3.7454239370232787 6.357787564024355 11.323525342818787
Bi 3.747298302458588 5.5776918637301645 6.629203539148628
Bi 5.876461712249188 3.5045654439200415 5.339559501069729
Bi 3.94263823926911 1.5961490774463711 6.51055397162937
Bi 4.34311319832058 9.182799478324181 9.82078362302403
Bi 1.8737545135560334 3.5872228624375975 8.100990784533478
Bi 1.2551474571040901 6.32986586957951 9.596328178553952
Bi 6.248972479889578 11.169554869715483 8.027947498691587
Bi 4.1906881714735 10.77851990855789 5.6043640905486
Bi 2.4297776997387004 8.301570811181708 7.619271960743691
Bi 3.433700592190465 8.500490170659296 3.3272245628315122
Bi 0.02786967193409633 3.7846631019349886 5.650759994280292
Bi 2.1885063034570456 5.172517481359254 3.9616697145258892
Bi 2.0716154033937597 2.1230320427887968 4.147848333344661
