36
Energy = -128.92956923 eV
Bi 7.0560553911530155 2.885900211777599 4.1278987262394065
Bi 6.08090297980993 5.113469165166276 10.559805371321742
Bi 11.680177910343497 12.094506290317856 5.9620986425966285
Bi 12.26791154286797 11.288809967718473 11.195532720555157
Bi 2.7998007069982633 10.939029394385553 9.860627099084228
Bi 7.048397468888226 5.911082780968981 3.9421896642938647
Bi 7.921720938600603 11.403019392670735 8.884268372938562
Bi 2.84304918856276 4.270436330679107 9.26475535303983
Bi 7.320133268510481 5.891383450511817 13.221403497231558
Bi 9.87273729196355 5.879923323304998 5.237531577090585
Bi 11.61356291272808 8.25623748731098 11.793544284626613
Bi 12.255313419887234 6.74630426649603 9.217730230060425
Bi 3.7364742494838588 2.9725120000789667 6.717604394321568
Bi 4.344779841932128 8.497588618635518 3.6008807860029144
Bi 3.7907160456284976 11.489778634660135 3.9060502000652217
Bi 9.308559370514532 11.214287688914382 11.648004588004364
Bi 9.144141539993734 6.069526565551162 8.619970593499367
Bi 4.943153377528018 11.593960053909425 6.795056154651217
Bi 10.075111727139838 2.8614575262797852 4.596354494870171
Bi 3.9836483416750665 7.177475340723801 6.449367526697937
Bi 9.661391997153135 4.864137939821492 11.54029760484864
Bi 8.469969733397 7.986341512612655 11.292861760917571
Bi 8.202656843246086 8.78578397006514 7.160034942166777
Bi 12.674387732135232 5.341208232676623 11.871330240552448
Bi 10.361981487665295 9.56291809974858 4.945111495635342
Bi 6.399363539134486 4.557377922285742 6.634416108584359
Bi 6.584827000734892 10.253417282627845 4.568857059059424
Bi 2.4317551854255006 9.931760335691687 6.898137680549813
Bi 1.6404923170578045 5.13576548774669 6.647348809941414
Bi 11.484708514098216 6.400774901409935 2.719637724656655
Bi 5.410122357495608 7.884319508079345 9.414753628911882
Bi 2.352986960465639 7.9351354084533625 9.424632620762655
Bi 5.701858939645842 10.612580562626935 10.894408107284011
Bi 11.277423902075405 10.318121179148322 8.428849166087334
Bi 13.144554279588226 9.459357568204021 6.117687445407136
Bi 11.19692339516381 3.673629483607328 1.9151671286801955
