35
Energy = -127.70656585 eV
Bi 11.263220527249786 5.099568901502042 8.109902852266908
Bi 11.204008846177818 4.354424362274187 5.116529057791468
Bi 10.85263022904914 8.350308989091573 5.136030488640704
Bi 9.670904126300737 1.7466532333773899 4.785084428518494
Bi 9.43041924033637 7.562485813067352 7.712855056203975
Bi 10.908833578119125 9.476548236940504 9.574836209505627
Bi 9.595681445397782 2.6420759898705914 8.838646823374043
Bi 9.613977711736352 11.098352072353354 4.63019788293015
Bi 8.658433917346098 2.4395942504822568 1.9955163009020247
Bi 9.317056690743156 5.379246327758441 1.4360833000452182
Bi 8.86485511139162 6.150174358059828 4.324467760957254
Bi 8.942316262526093 11.786457129137085 9.26396037193071
Bi 7.4432098940720826 2.7817183895658912 6.7258343741679445
Bi 7.400027050408215 3.092455658084692 10.957060023598096
Bi 6.7732511996671 9.624985386740788 9.212115262970357
Bi 8.659062025467989 9.903276738547563 11.59279700776388
Bi 7.249274838483047 10.8925757508093 2.7299931582637185
Bi 6.792747443138056 11.587063488701187 5.650957028119811
Bi 7.148089252030238 6.029879819191653 10.258220077179553
Bi 6.349333847701876 5.702453401638832 7.3232941341441915
Bi 6.283813638519423 5.723182043852421 1.0086655816274246
Bi 5.62194509630268 2.9050680130932203 1.9735767409363334
Bi 4.647371412191276 11.226937379756002 10.694934050755684
Bi 6.214761979232171 8.769634259746617 4.648197038143434
Bi 5.603148877719714 1.6027116007074922 9.02116200612435
Bi 5.405640728254605 5.249487806253529 3.9025397853196457
Bi 3.619395631759599 7.742390081655598 7.800912219410461
Bi 4.439867187483336 6.134262756264679 11.661496272634064
Bi 3.981985004376543 3.7687059512406695 7.614434318856346
Bi 3.242989560057014 8.938572900251113 12.117940556686879
Bi 2.1874330676390725 9.924372903673419 9.46355579598684
Bi 3.3876856113925893 9.30267606111218 3.541759918716315
Bi 2.3963865098221597 5.55469445802511 9.50555886927145
Bi 2.672263011990668 6.391505931959372 3.065154919899632
Bi 1.5965916322123608 7.841140749343868 5.5146088888237434
