33
Energy = -119.53524862 eV
Bi 3.6481896135358753 7.96744484723117 4.933187065656103
Bi 5.748727387320072 7.456868211227109 12.365290537269475
Bi 3.836874653315364 10.762737900910157 6.179097223789106
Bi 5.265044656399775 8.778161611889626 1.045354146027326
Bi 8.131675589490316 9.286266351189186 12.7063811449693
Bi 3.6436373902641948 4.069502315078504 7.657131695113018
Bi 6.223402128370227 8.889053074951285 14.998513067472436
Bi 3.3329593312804673 7.955612230766715 9.588984792843707
Bi 2.0727276654038556 6.624793322372871 7.184467804894454
Bi 12.50807317021879 7.45310803029936 9.222447055754156
Bi 7.197979674829427 4.003152852341044 10.831724748320015
Bi 10.380035589235698 10.944679401277902 3.6887814359764435
Bi 6.107032727635819 5.636931430082513 8.440129780643593
Bi 9.39004474067704 7.59045405668719 8.951606115934043
Bi 6.982523051189303 3.270434005670994 4.37852318293947
Bi 9.494841268238181 10.460718314213706 6.54284157912086
Bi 5.54681345647876 2.8901894767115777 1.7585098150192937
Bi 8.235779680933788 6.226279851751883 3.861413521873818
Bi 6.50507452683431 10.175586918950863 3.4653299144772687
Bi 4.076032878442548 3.910305913180434 4.395150639525253
Bi 5.49439536020681 5.895873643048321 2.416051262415879
Bi 5.448206390604052 10.006933672772037 8.710612579155638
Bi 8.175050283857395 8.548704539132851 1.540264394171399
Bi 12.419999944327591 11.054606240231198 5.9453721495098995
Bi 12.645598634368701 4.65494029622631 8.062552179568666
Bi 2.557398436837749 10.8258974899962 8.955898642402667
Bi 7.883303349954898 3.1982755074061933 7.973838972965363
Bi 9.855156462635032 5.292611107261235 7.0005784440888155
Bi 9.407976242518878 5.986526646049413 11.536259239048595
Bi 12.27917969979055 5.007970675538489 11.02083246376122
Bi 5.333801467893386 10.460637475071193 12.56569565155943
Bi 6.598522454515248 8.044682146547544 5.770849139721042
Bi 11.187748537534004 8.403986040138221 5.127374726415886
