36
Energy = -130.52318192 eV
Bi 1.7690433847330862 7.651870087620974 4.015218239708132
Bi 7.830188468388825 2.0597971928873435 3.7541040590459356
Bi 7.606907296045275 7.013542491753808 7.986532851464401
Bi 1.5259176812847584 5.0256105606086585 5.781723550391867
Bi 6.84663563746685 12.774109708029894 10.397324340597375
Bi 3.931092864822968 6.623493642284602 7.080038581828336
Bi 10.138826931263711 3.5488002437634085 9.365016587455033
Bi 6.206545804521597 8.764026589546942 10.090917180220881
Bi 12.00713807323079 5.288842707329899 7.638251196794755
Bi 1.9216812349565315 3.6625042466875857 8.631375952889806
Bi 7.133794049035542 12.780803712338193 7.3425551687773165
Bi 10.966495492455415 9.964116507083313 5.9791496516285445
Bi 8.676748667966425 5.853060280277465 10.732249783177943
Bi 5.789500349173527 3.9232521755647483 5.146686291300855
Bi 8.15720621206263 10.319879574315534 4.861870659744926
Bi 3.0970999256114036 3.047988389999956 4.01689217585568
Bi 8.276172725117242 8.8415771772537 2.187486269974159
Bi 6.543417890509174 3.4635743133871357 1.2786902196109495
Bi 2.022832991413441 8.358702040034514 8.630503516274063
Bi 4.5560844030294145 5.330399539196175 2.63327215143036
Bi 6.580729047780912 7.666604452157427 4.4282163849581115
Bi 11.242134942948676 6.880689547894404 12.170126444146671
Bi 1.050846037093001 5.9451097675305755 10.337954468892768
Bi 9.307464639717693 4.23629819854217 2.2138933398341165
Bi 7.043323059937562 3.9612858258200423 8.136338247778566
Bi 13.450205111681093 5.875714254825089 10.41122930869237
Bi 12.777867162277245 8.826550285183995 10.393973039983646
Bi 4.009098339693817 5.299670257330942 9.999757610129452
Bi 9.41908215788533 3.718850920132476 6.270173717408794
Bi 4.935514635076301 11.105168031674577 8.638323568960747
Bi 3.651817182321183 9.475981790231586 5.462293147942111
Bi 8.768800496484847 10.358667003191036 10.674888324962014
Bi 0.6773724256297251 9.529803887175515 6.094136728765132
Bi 9.450408026079703 6.720626092129372 4.07808301484257
Bi 9.893998893410958 11.818255879228907 8.197413140303537
Bi 10.66714492321612 7.995031997411388 8.294659978769404
