32
Energy = -116.89531121 eV
Bi 12.426181115274083 7.4120368340944625 4.366890409677523
Bi 10.331749376391944 8.952588016819272 2.7790647805987088
Bi 11.04279013426079 8.255416931224527 6.952484761536703
Bi 10.609348114976486 5.957755404317147 2.3991141360860353
Bi 8.355247507619426 11.701669193570883 5.841023659839275
Bi 8.303523861117888 8.724682368141245 5.079583809569711
Bi 11.33311728627679 5.826640425102925 8.660067970432923
Bi 8.940179057210495 11.422242082599812 8.831404076170623
Bi 10.050564201433243 7.179416633803724 11.078013844908394
Bi 8.137118794522253 8.473064488685688 9.044328226847957
Bi 5.789859270248963 9.692807751224152 3.314262847454683
Bi 8.20429505094553 5.319682391653181 4.150940823471699
Bi 5.31999251793364 11.767983734503764 5.527801300343449
Bi 8.559424347132339 4.861344196712993 12.435656783687815
Bi 8.672435792580348 4.3126704133425 8.087429236423976
Bi 6.294475202936422 10.738067776978957 10.123651221783973
Bi 9.140654558840946 2.7308317166186464 5.481477826050662
Bi 6.137338990569761 5.719892875361614 6.945430158960953
Bi 8.02102194967244 2.5683865593624624 10.518188819288438
Bi 6.290954761662672 3.616706773192456 2.453200869250768
Bi 5.121939427454744 9.545779629073545 7.580657345113918
Bi 5.701114474499721 4.214737150646864 11.522375038416842
Bi 4.418204695326366 7.362934939160914 4.709041202402636
Bi 5.139552212107673 6.616493384774972 9.693272525458147
Bi 6.322702515250704 1.6835749673952347 4.8345740430947215
Bi 3.6808177080477273 5.173883412889669 2.71673877583624
Bi 4.661291239307645 3.073885798813417 6.950728272381706
Bi 1.570765034545782 8.27973360302971 5.195762275305284
Bi 2.0811977759554163 9.277081605612455 8.081819205039658
Bi 2.089441614613488 6.430752529622719 9.226506729438174
Bi 2.4432294870283537 3.5247746880320476 4.938572675728905
Bi 0.8577729242413137 5.63078272362292 6.528237349385231
