39
Energy = -141.05307776 eV
Bi 13.282339641310045 6.3027598945787915 7.925864553364268
Bi 13.264280778392864 7.037988877553527 4.9939317083657615
Bi 10.359390253812416 5.287967475447485 8.201299469797657
Bi 11.334899186757916 9.217292686956716 5.705964602760444
Bi 8.421190079146463 1.5565941476631935 7.8112932878357855
Bi 9.82473805450478 8.0320835424564 9.868676642913101
Bi 10.79618175622005 4.146673496435443 5.159742363571535
Bi 12.35052768827189 9.132458904344583 8.626491968030159
Bi 6.797317463314631 2.7842786440406186 10.1058197485077
Bi 9.013694755609327 7.223657096661097 6.224624940758738
Bi 10.301676923985378 6.508091869490907 3.400168167500831
Bi 7.169047664027518 0.8870616528245822 3.8817521308278526
Bi 6.201531572342848 13.018586988143888 6.550146341968878
Bi 2.2012436281753107 2.801558853137843 10.033428893956755
Bi 7.818503943791338 3.4365974267390564 5.509219855345314
Bi 5.428778997339278 9.186563182375481 9.245346398574668
Bi 6.8225322102548285 5.709722002836936 9.195517063780738
Bi 4.060252944454389 5.402950375501263 10.720118254923777
Bi 8.128519033970562 9.813026034779767 7.974699543145066
Bi 4.708428696616465 3.7126301924175946 8.106705102975402
Bi 7.340940011821756 5.622926562995383 2.4165590835865007
Bi 3.8390270227965066 7.67094069436664 6.995803513133716
Bi 4.30130023966235 1.4306036178019985 4.7449179136520625
Bi 0.10161347725339917 4.964634597143247 9.545661551890426
Bi 6.079089633994862 7.737195762928672 4.31473644310553
Bi 0.6846593648771011 2.943597418001669 7.4195820245406425
Bi 2.0929576337563978 7.363909063073989 9.507026159091025
Bi 7.75980025437506 10.275992574714042 4.720492705892386
Bi 3.5667436630688414 10.691270694429086 7.341258728540943
Bi 5.045089294684542 11.653039916765692 4.872444578045429
Bi 4.607047943157479 4.5193847530424796 4.5427946494766855
Bi 5.976713930282815 7.9817239014093655 1.078061893542528
Bi 3.855062682518376 3.7779236323726026 1.6704833940636596
Bi 1.6084396671198138 5.135061890158616 5.338498453154465
Bi 1.5892150561889948 8.326126090703314 4.499779976474077
Bi 0.8714403831731882 4.1247182094431905 2.5275215932028803
Bi 3.7699015756761285 9.622098234446394 2.88363300806703
Bi 3.488266194788384 6.418731794718 0.2324338323667648
Bi 0.9014239668740177 7.123293545817688 1.7633306572055718
