35
Energy = -127.1262965 eV
Bi 9.92457674228844 0.015940681180540973 8.018126111764499
Bi 11.37058699246176 6.985431972927252 4.121589371748066
Bi 11.37259891943238 9.586461053860866 5.664856128314802
Bi 9.499498811172463 7.287756943962007 6.546010717679645
Bi 8.779435536380538 4.204869837009327 9.25028940917227
Bi 11.465816564882912 1.9383608996695516 6.253379910572366
Bi 7.57231302926778 9.672585539726688 5.926251477461861
Bi 9.551175426738286 8.213731842572251 2.012383711098572
Bi 7.404314010705498 1.4193081340845852 9.156336851531968
Bi 5.820224418006715 10.235415277133367 9.099918764757872
Bi 9.304838254436978 10.780139995447248 3.691910250495081
Bi 6.747013735265817 6.517779260555225 8.794572687082855
Bi 7.001585151391743 5.206767792751085 11.491818001764567
Bi 3.2463996129358144 11.250693927848255 10.426120389850643
Bi 9.510160495166101 0.009296246789410224 5.018111755185891
Bi 3.3026910856018175 8.691719631144084 8.43949318713824
Bi 5.717975416347768 12.604989356230611 7.167262509953744
Bi 5.389352241295124 0.8539400678900803 6.926079195577677
Bi 2.495841770628219 1.4574400956090325 7.9749634492769
Bi 5.768140764618274 9.512023365428167 3.4157516483763133
Bi 8.67384808187921 2.8989381032003876 5.4728757939183135
Bi 7.5928731529128655 6.448160612911118 3.500124228561389
Bi 2.7567392373278112 13.03119867379019 8.018165162579727
Bi 8.788230754108158 3.783913200811021 2.546893593376182
Bi 1.9392868724818575 10.53423101038211 6.426941483955264
Bi 5.1079495925577065 3.980042439122883 9.316442556929582
Bi 4.132736482166821 11.73582240155544 4.724489354357421
Bi 5.7914791486563795 3.0752847256261875 2.5060193655864196
Bi 5.195686739571038 3.5689736210004828 5.497992545620948
Bi 3.3547448432674374 7.585137228447609 3.283681600142269
Bi 2.06808786419521 4.208013444917326 9.31913869194295
Bi 5.2602818386340155 5.93395008843849 1.5434818748707104
Bi 1.5747689109642673 5.543358521220299 6.593085399334415
Bi 4.324890716669652 6.7400399565613265 6.0238226932650045
Bi 2.22945003225007 2.8341639060864128 5.24775150956912
