33
Energy = -130.85169776 eV
Bi 9.906224404987386 5.437138364263758 6.046278555103931
Bi 3.6447253545120164 6.761574457554241 10.751314731794668
Bi 7.349110096873347 6.3397347938941335 7.185005966417994
Bi 12.472926916720356 10.48706207512057 11.458912788134677
Bi 13.07975247174973 13.409069217227755 11.550715952756002
Bi 10.45981955142914 11.632939693486945 7.732188795483067
Bi 8.12428415493653 12.814789976552037 11.111204132474066
Bi 6.796569409767271 10.578103415503513 10.791168424350351
Bi 7.725511317144776 6.237784376207579 4.588107427068601
Bi 5.906125808128027 8.27927843624866 4.962545977624337
Bi 7.171648250794018 8.343401343283622 9.585564212522513
Bi 5.209775978881643 5.838214659140123 4.265845839953701
Bi 9.36532392661188 7.844347866194706 8.29180464118853
Bi 7.122712403993824 4.770964154568654 9.22799969597207
Bi 10.099809765469686 5.484624618912228 8.829356882202312
Bi 11.706554163912688 9.251731366023051 8.414608001413368
Bi 3.29559348892385 7.250992368215348 8.206262004884938
Bi 10.491553599363938 3.4491862517328515 7.292320019180918
Bi 11.928019604831665 12.294992734903321 9.66462984055742
Bi 11.970653755811039 10.347410566324326 6.092679171003248
Bi 9.810753022266685 10.306199698336501 10.247058677967111
Bi 12.331221604397415 11.90536809860411 13.590193267607559
Bi 9.078006811710875 3.259123732241686 9.559314542574741
Bi 8.267509311734589 8.898004151477988 4.120579750751375
Bi 4.446414108959664 4.8450741797903 9.339375334740726
Bi 5.856839379178972 10.875206217250495 8.44394015728557
Bi 6.207744802486546 6.348714893921692 10.969606313090944
Bi 5.543301187825995 8.399629222333024 7.537812545441916
Bi 8.105468973146914 12.121551360240545 8.651280436031492
Bi 10.55961394488566 12.480511206922744 11.91301254086653
Bi 10.231851713033622 6.893538712077213 3.9970941206916097
Bi 9.985262860393519 8.807608550363883 5.953167537614603
Bi 4.802593299803635 5.776365310038676 6.829316909900941
