34
Energy = -122.60871907 eV
Bi 11.303004391462004 9.850297111946237 5.389909359694973
Bi 4.7923037392258685 9.208768818412183 11.056631597690373
Bi 5.248583680553478 7.503061990000553 2.6412291228550235
Bi 7.645378159302438 12.173899365804282 7.305977238114194
Bi 9.623747236730583 6.506174001063706 8.229347707919931
Bi 3.9898703973471226 11.566596203616815 7.6589498839902035
Bi 9.648433786814808 10.021017427485237 8.175768413405295
Bi 10.0115946917627 13.004151937527448 8.988943468462457
Bi 11.935093803154205 1.320987911536734 4.316428372399986
Bi 12.501627901270153 6.2190971941786 4.488719708584136
Bi 8.300804685678628 7.724760299680587 2.226578681355025
Bi 1.229524578419083 11.60804074429387 8.936912458964699
Bi 5.2316699701704 9.549057343907403 14.076539157541944
Bi 2.7008776938137546 11.402160338888706 11.651603927498508
Bi 8.122420156816327 2.2226039182165422 7.2309635364966205
Bi 10.314959739758397 12.868327810048912 6.022594464427842
Bi 6.801082573750112 4.900474440655462 8.087834712082248
Bi 2.526071611259689 8.977039570961997 8.240809732219072
Bi 6.864209171442083 4.114423739765704 5.223780950123748
Bi 12.440386869230416 7.490788426783142 7.120021290976449
Bi 7.225320236236922 6.413214376570821 11.420587555326758
Bi 12.936777204559746 3.601228493255118 5.979965614594909
Bi 8.808178190831347 9.014050620526403 11.274775107984976
Bi 10.910516892085734 0.38413377709084373 6.805169976700164
Bi 5.4074121416170575 12.060662085698835 10.390875490441093
Bi 2.3712501614779824 8.63625396038161 5.162549918272357
Bi 4.914338347247512 10.05583304515557 4.325831731094172
Bi 9.338696058395168 5.865999445405872 4.436900147956648
Bi 8.4407725853535 8.728380523254618 5.096862174959898
Bi 10.816145185127315 3.2982724480297687 8.151058155750041
Bi 8.264914583309917 9.642088516346568 14.259211884571304
Bi 6.85157824897968 6.988007354373113 14.44382294362702
Bi 10.248323007902751 6.343000064678083 11.251110325031439
Bi 5.109377159847956 7.33270612116014 5.677776855790058
