30
Energy = -109.10219222 eV
Bi 12.982970267325362 3.982963164589348 12.856549872364846
Bi 10.184393667999855 5.184063908843358 13.007501318842058
Bi 14.167793341466828 6.698280890255991 13.642358531778925
Bi 9.810532705562968 5.338114804904057 10.032795893395164
Bi 14.309170586802107 5.723587383908679 10.774268626208451
Bi 2.0909588132721715 0.680803603535531 4.169556143947521
Bi 11.361418958307167 7.881093943255361 13.800919314150095
Bi 0.809380753682789 3.4264416774415256 3.710350641279196
Bi 3.1789497841869907 4.4218742928698 2.0852146625191836
Bi 7.581420720196931 7.350162219320407 10.546907200243364
Bi 12.077861583378805 7.154799375858748 9.266625755033633
Bi 3.4569900113346055 1.3724469910780017 1.5527995897790778
Bi 5.065849927576433 4.447823508096446 4.458103404936838
Bi 0.4338335823376465 1.113235988718636 1.7194893818421206
Bi 11.820552548608042 9.387497247636288 11.249637490722016
Bi 9.313805074792844 7.612007519772686 6.354037701059198
Bi 3.545362820234439 6.295249937521067 6.274870079191671
Bi 9.940604378282972 10.324038109610008 7.534614072732092
Bi 6.701285360706492 6.288286550906799 2.6137745077904118
Bi 8.97986967539552 10.067469896768246 10.395113702192251
Bi 6.613772376172193 7.120590238589099 7.659971845167103
Bi 8.453481261232039 8.67896763408925 3.6523248274982296
Bi 0.9465544574541922 6.903141492515492 4.761562356109258
Bi 4.308134392879631 9.246915006938666 5.234724241210596
Bi 4.781337961809277 8.512824621454584 2.2521218379854115
Bi 1.83221912989143 7.828512008771814 2.0010907985961435
Bi 5.355530287295029 9.771106935162745 8.27059406550422
Bi 7.322153546560654 11.765737690806226 7.122784870704711
Bi 6.676186792651416 11.071025920452339 4.2397324934198295
Bi 1.4064530914196338 9.859765295146007 4.268432632613592
