37
Energy = -134.00793307 eV
Bi 6.4728256195288125 3.9948739860309788 13.102206209423372
Bi 8.575113224701932 7.136548887295035 13.388135505039555
Bi 6.209369595852435 7.3070595891708185 11.138775329052102
Bi 5.7527142524172925 1.7859022970091627 11.081308816118721
Bi 8.36512522907646 3.3536805331717874 10.813771334134115
Bi 3.9105657265900713 4.1617194304369045 11.411891307705238
Bi 8.46123849617761 10.070028297829525 12.991745597383343
Bi 5.695743974142524 0.6300204306194481 7.542376156950603
Bi 10.46713241534329 6.698360670542126 10.972487240346084
Bi 4.705485654033657 5.521049871144737 8.792171428718609
Bi 6.869672699346014 2.447765594691194 5.403900936023644
Bi 8.03585989444688 5.927436442953723 9.18014399318651
Bi 9.390247042662887 6.180924652237357 4.712830689251207
Bi 4.008859669621564 2.904981365263796 6.46481881165422
Bi 7.153085165995045 10.11310536465212 10.115795951567298
Bi 5.72052637101057 5.775660184522659 5.419646232696955
Bi 11.084290050230823 6.885266986422077 7.509645433913532
Bi 4.678881789997703 0.5116989781686928 4.658457910641606
Bi 2.231140830648527 7.008874175557746 7.8634585227866145
Bi 8.761968667419161 9.677248373355736 4.2024423260385975
Bi 8.928804255246847 4.085666255934101 2.4616965218924958
Bi 13.189068327561092 8.51191584509331 5.891429864777632
Bi 10.158525995653678 9.682609853978521 10.41469658233987
Bi 6.3364924647213945 8.970991089339106 6.869536668810222
Bi 6.070181189632394 5.160820629797553 2.4005600865891337
Bi 10.44654245270631 9.704693843425467 6.951758236797809
Bi 3.64759538041019 9.677927034516625 8.145403878443018
Bi 2.8530788594784213 6.498608888774882 4.872634949393706
Bi 12.13700466625884 6.798260620946355 3.533108200606619
Bi 2.5610041849442267 10.408521817905845 5.379813368229935
Bi 4.801459258034153 8.877428539361226 3.983711712149566
Bi 8.416030225608157 6.951919610472926 1.738286027769614
Bi 11.67620587478016 9.752290413865223 3.376938283960972
Bi 6.64439374959623 12.036911867957532 7.042805012834787
Bi 8.375769654482221 12.693763047154201 4.580660924689384
Bi 5.851579336340705 11.974100228188204 3.070102735684079
Bi 4.22646531185086 12.991411858761666 5.390894768948572
