30
Energy = -109.44682829 eV
Bi 6.0035062909367545 5.499801984165443 11.734303746373115
Bi 5.883866577756315 8.50437488786501 11.45399713456644
Bi 10.366861281923372 6.4326628399397725 9.959094603537304
Bi 8.71646283743694 10.411136320529028 7.9962186026748165
Bi 2.9073024123704503 9.015718335558553 11.36168065306923
Bi 3.6022241195657405 4.4034795594159775 10.17423344190741
Bi 10.710021389315797 8.28536742617002 7.578477030801224
Bi 7.584216268530209 5.4707408776755635 9.123132836029487
Bi 11.134124948907365 4.150530925339117 8.040593596706374
Bi 5.900012811849349 8.880923752340026 8.298329617031962
Bi 8.532309711498263 11.330725169846549 5.078358116784406
Bi 1.4748769460517432 6.584018130237649 10.248495624426385
Bi 8.645882942013788 2.639507633637126 8.979979671465149
Bi 5.659466526640467 11.434090609320162 6.004185683649729
Bi 3.6159169043511867 10.781510556921683 8.964277607596065
Bi 9.638817138177334 5.715653114942274 5.831374107255064
Bi 2.037426932108755 9.659599654691695 6.606020906466543
Bi 11.813743098104656 6.148588389107073 3.7395594444446183
Bi 6.694204990391335 7.230171109784695 5.1950939174161
Bi 4.278454284165806 9.242024412839573 4.519616180282213
Bi 7.1847693762683456 1.8263163345054758 6.374313697613835
Bi 4.432515334424872 5.830409634521683 7.603026157571011
Bi 7.747950931496024 9.143849496391818 3.10661043300982
Bi 10.438019094352452 8.223850755458253 2.0307301395636683
Bi 9.363388975077822 2.86089919651081 4.598171070558296
Bi 1.5340944583829412 6.721317939171889 7.199819910030185
Bi 10.259542491782508 5.292051449072463 1.2720903701674353
Bi 5.450651173670234 5.272810689968523 3.2724645958675245
Bi 4.706151778928385 3.464238036654556 5.598507247829448
Bi 7.814597574649211 3.675010378544984 2.1886234564333753
