33
Energy = -120.53456001 eV
Bi 8.624177029919263 12.038038366989417 6.6641564874409465
Bi 10.02934706608 10.001556555439532 10.435845890720262
Bi 10.382558808921932 9.76328805209382 7.589553278486737
Bi 10.420583221536305 8.372323483899683 4.2230494533400496
Bi 8.299579840088642 10.56970358273802 3.9599885214013484
Bi 6.547036816996485 10.341036355560753 10.841853688336474
Bi 6.438909043302421 10.232928700991232 7.762545634463408
Bi 11.02625628578654 5.7729281777764845 8.145159097856563
Bi 10.305821538220783 6.993651041732434 10.878379260173062
Bi 3.906045250897141 11.722665706899248 7.004226388081574
Bi 3.66638467717413 10.220606485081431 4.386827379427858
Bi 3.581228134301586 9.453057587750935 11.057478528451027
Bi 8.852298547549053 6.474658938442584 6.062618090816526
Bi 7.4552187117002475 7.511292025363421 9.95162691392895
Bi 6.129014022367779 8.486094820507118 4.588441525874797
Bi 10.465109516133449 4.337723210407592 4.5997422037690106
Bi 2.337417572244007 9.420528493505977 8.247129903303371
Bi 9.407799677029255 3.300127657196713 8.939433207646859
Bi 9.401642998868725 7.434807676765174 1.5042000849103443
Bi 6.113704569759366 5.279068092598983 11.537933129148033
Bi 6.562805991682119 4.416911484762673 8.61635643807969
Bi 4.24454032437184 7.062274893321025 7.6179676332137065
Bi 9.200797113823548 4.376306653852853 1.8529308305202699
Bi 9.453848369188528 1.9194615989917474 6.165701708446799
Bi 6.328853183554242 7.7218713887556385 1.630481727150587
Bi 3.4711544724831147 6.458029736511658 10.529328268423294
Bi 5.816300774044572 4.699610197516151 4.99692661969351
Bi 6.14227202798885 4.655990390921476 1.9899050515905063
Bi 6.520528562062881 1.7536250100995223 5.346759203981846
Bi 5.393011440088092 1.654026587738681 8.16959256994196
Bi 1.841372123399771 5.32887910783189 6.8702925413859015
Bi 2.957082571547398 3.7322193843396683 4.519423966277747
Bi 2.5787226997325288 2.3961315364615468 7.21556775656207
