36
Energy = -129.49411393 eV
Bi 3.164584720326939 4.9756655552068505 4.71596705328799
Bi 10.446726713664104 7.161239748327838 4.623209424970731
Bi 8.300746028695848 14.003783686656348 10.45375792477013
Bi 13.77223631216822 8.114956934933458 7.0829950466754825
Bi 1.7052519904518797 8.799558434208908 5.721282918895675
Bi 5.397353135124915 9.268275986877784 8.21051152676203
Bi 11.802869194567686 4.383014644402012 4.421185297148968
Bi 10.43735810498656 10.353013184994198 6.703603492967287
Bi 5.064704076495729 5.218094482456092 9.485071654204939
Bi 11.63468505430926 6.767445638575224 8.808410275964484
Bi 13.452767027128006 5.100650088372138 7.017289486920228
Bi 0.8942724398969523 10.180782839113329 8.313532244443826
Bi 3.5599376250791193 11.750456990783563 8.183908180117308
Bi 0.8340354583249817 5.975530465531316 6.420999930898613
Bi 8.783484283194676 12.613510090366985 5.510767691305986
Bi 7.620903418296332 2.3399727114699327 5.074060335637533
Bi 7.224832219231654 12.240927160634723 8.16627243587628
Bi 8.2172818373885 4.922235293336223 3.5580786031186435
Bi 8.648210450229879 8.70408783105464 2.540615276224031
Bi 6.829817576790005 5.648007467597027 13.53936565686245
Bi 6.4777883534885055 2.7601601494403365 12.657818239146886
Bi 7.521711831494648 3.4470730070764835 9.759658640161224
Bi 7.06578100705318 11.748544639852126 12.050836327228994
Bi 9.710646334868425 2.332276760924522 2.854841096148568
Bi 2.612924970761029 7.637281512364126 8.398338455155738
Bi 8.88894088487192 6.71061496018918 7.40937077147774
Bi 4.510533171211563 10.56021225374067 10.801430112758755
Bi 9.772093777793508 3.775893378717552 6.754073127486572
Bi 8.84448113187071 3.6544245988193036 14.163804721729283
Bi 12.496012334619474 9.441365511163415 4.6502514593441315
Bi 9.33531227001688 11.184620965198196 10.111252779454233
Bi 7.712239580941823 9.77961357339424 5.278772646312983
Bi 7.702187114018802 6.353507231025971 10.501535576973543
Bi 5.716535004011483 5.028634130077231 6.4643585253391445
Bi 4.868513589725478 7.5039085033286375 4.784841523522352
Bi 6.269750665995359 6.858169278883472 2.10544122980261
