45
Energy = -163.49901043 eV
Bi 10.643733662150092 11.197321241108876 9.285838263504264
Bi 11.780641495192041 6.58942780394294 11.071803132019868
Bi 12.48148503134241 9.299902528639821 7.723520973671785
Bi 9.516897467219076 8.611805154028604 10.547122130882583
Bi 8.495774088703675 11.161064352612396 7.0431842935253925
Bi 11.038804737702012 10.649427428836695 5.405565128065832
Bi 10.665641605852025 6.836507352640231 8.261318368311363
Bi 10.700139635113445 8.180161873913837 3.670161090290434
Bi 6.4735636900485005 11.663816210806123 10.117603590048423
Bi 9.907249139698532 3.1395093584100837 7.388330805351999
Bi 9.369973406858103 5.122587887059742 12.258768557899014
Bi 6.586157628376553 9.511160073956678 3.0154073670619503
Bi 7.530825974294541 5.502970854622912 9.825631798873028
Bi 9.492450484174837 3.6363822844826266 4.167074922166896
Bi 7.4341021780053 8.345449465792546 7.47781490452266
Bi 6.411170684363846 9.290614424953539 12.0689453041469
Bi 4.04799362745871 11.386538486091494 8.240001391149839
Bi 9.24265008491333 9.66978164005247 1.444411596473297
Bi 7.3431651617198055 7.2397287742194285 1.0695150714310095
Bi 4.297107999043104 11.45501214334703 12.292839595437917
Bi 8.579206846799439 2.7113205802051086 10.518755279953814
Bi 7.558831696611263 3.523793374615619 1.4301487746702752
Bi 7.921698575375599 7.274579693970383 4.633022615797224
Bi 7.305607195703605 4.216725235690857 6.358383100737516
Bi 7.578728670227345 1.1991349292310223 7.032031162989806
Bi 8.358050413987222 0.7922658720267439 4.078914311324716
Bi 4.666454646124109 7.63993213271409 10.09898560830696
Bi 5.53829106013024 3.617908260849052 11.123732717480312
Bi 5.861635393493605 4.255941405449435 12.295500690261663
Bi 2.5301607079953703 9.837637765004587 10.33095166960594
Bi 3.745214476003903 6.102448366618927 7.082660556632426
Bi 4.4680090546103095 2.953922413780262 8.37088924859977
Bi 4.6842340011070265 9.067654344156331 6.2977985564525945
Bi 5.210670385306302 7.213714378467374 12.292839595437918
Bi 5.3677031810810725 4.989908266408571 3.165605931962577
Bi 3.600981523638675 7.650191479402651 3.2329881002400116
Bi 4.227933309184901 2.623596712448181 4.86980619648525
Bi 5.738766321425513 1.2733184994527391 2.4916371523863305
Bi 1.2772526307002308 6.364088595172652 8.97519088450934
Bi 2.6287265232373227 5.950129445032467 11.693989147909555
Bi 1.5374575960673675 6.06395048168837 4.839246798317856
Bi 1.8975090535151076 3.5467925932712947 9.939434124520947
Bi 3.4161167614557697 4.0489875966578515 0.9969432378097735
Bi 2.578575561164649 6.941783817252114 0.4492476763230064
Bi 1.5906165115034585 3.3233508566452246 3.508923057577325
