40
Energy = -145.49326065 eV
Bi 4.480351058709094 12.85567430757863 8.423727239546105
Bi 4.4915099546667365 11.916378246021157 5.532170747494458
Bi 7.42065527894857 12.800000636809118 5.983735558085343
Bi 2.5019045252941075 11.032188190002376 9.901019121238102
Bi 7.418477403823071 12.326983399634303 9.038878452811238
Bi 4.1896108836750425 9.354541833375215 11.777856219016616
Bi 5.6712423988820815 8.615442649491444 9.23969164751977
Bi 4.542519315018148 8.881557198680447 5.873180368487587
Bi 2.357421195112694 8.932231658229782 3.603394522090241
Bi 1.9027260309255971 9.455422914386682 7.389828285998068
Bi 9.021339587130239 10.538695645212947 7.175719893337625
Bi 6.186701749716939 7.360217488245179 2.798187938775182
Bi 3.8588963692809495 6.559056807041711 10.556612288910365
Bi 8.442544028746322 7.314252616581692 9.647016750363651
Bi 1.3378861676900102 6.876303761231915 8.890486415148741
Bi 0.8703386107396469 6.332979316966764 4.3295624743635175
Bi 9.51358173829077 6.932161997672249 3.5022064179231593
Bi 3.5190473947142062 7.3715284845054505 1.2280284878987535
Bi 8.072346354553552 7.692713727820292 6.658377458803498
Bi 5.356763853642092 4.6000056462707954 4.020565106926178
Bi 2.8361754762269613 5.676181793187566 6.52302175524925
Bi 3.733846110565952 3.0232654924220332 9.451729121979222
Bi 8.480850045043935 4.263646027400643 9.371485788116704
Bi 1.986941333620125 2.8077482114620818 6.979343697942314
Bi 11.127577916136381 4.640932127122689 7.773169852011371
Bi 2.6805346082574792 4.68507603408707 2.4521718259805474
Bi 11.062080294014066 7.283056668294127 6.189566462305984
Bi 7.403049259616941 5.792823071599029 0.3727037947235722
Bi 6.089784292801022 3.182340968407741 1.4152031705046622
Bi 8.931396347743162 3.9459656432055827 4.483495127832698
Bi 6.089039779856051 3.565012384885393 7.5524700297247875
Bi 5.7180419590569835 0.8016395937125224 8.868303613953818
Bi 4.429473727559042 12.855674307578628 6.555546051924739
Bi 3.5069318009026085 1.4622175968984716 4.705198912285593
Bi 10.355376690788422 5.213535872898366 1.1874272569289217
Bi 11.839662306049963 3.3794956236249383 5.0522044548576135
Bi 9.08963314885383 2.3938520379537933 1.8850575471919375
Bi 8.404657360912758 1.334460732087025 6.34415786557523
Bi 10.562492045462989 0.7228567616657701 4.28948492694075
Bi 6.35637951009358 0.25922216521541547 4.433354866925484
