46
Energy = -167.59645432 eV
Bi 12.122481697044503 5.199596351613505 7.559788881125758
Bi 10.521225435808455 5.53033183921877 12.292543011984003
Bi 9.914376376811864 2.1465603167083134 9.623800004715179
Bi 12.315346883576709 2.1584641230699946 7.725427598325883
Bi 9.733753674301875 3.9639578564305875 0.2703865408601597
Bi 11.046613453287248 8.546748155844407 12.451658853371304
Bi 8.25440139177916 7.452104110543012 12.953891245983817
Bi 10.65589006071694 7.811789206830832 5.468964336354329
Bi 10.558974328023332 3.464508888603141 5.539200711445461
Bi 9.630679639488577 5.1974201483769376 9.385755596645389
Bi 6.325550231640577 11.82579735366747 12.43419411194953
Bi 8.944346599034727 11.29825747571245 10.945373854109405
Bi 4.167704099385693 4.461544015515614 12.633268217850658
Bi 6.521589823926267 4.549841422020512 10.544369488810972
Bi 11.482541825354208 8.400427236977825 9.436354752722961
Bi 6.44199152087307 7.642483584377655 10.466106767716195
Bi 8.335141370651728 1.951437084257763 7.018311031098926
Bi 11.808860195066853 7.44215521585809 2.6848346844217654
Bi 12.980084343922009 9.755170891903797 5.916759046794875
Bi 7.039427960045444 2.670035376900468 0.7039796527350556
Bi 9.352338616989242 1.9001590697363002 2.4945219042492695
Bi 4.406016341622681 7.508142094413425 12.795647138162774
Bi 9.486845769482278 6.989661954198426 0.7053387052251793
Bi 11.478957210659825 11.204767712761024 8.17813569879487
Bi 1.967475434514348 6.249223683405655 11.536439269899592
Bi 11.049199885683947 10.247628846494646 3.6143932878709477
Bi 5.673643159479467 11.768710612681039 8.38161654902857
Bi 3.7390478848104127 8.720144588935668 7.953059681757925
Bi 3.2963416202594327 5.741063296938952 8.853457571445741
Bi 6.594674800152574 10.211148238923792 2.246410812872548
Bi 6.860966822426415 3.2192630348379305 3.7374432022220883
Bi 8.849509551951053 9.628258610463073 8.377948130326846
Bi 6.0653450299360685 6.338921771410295 6.562819791219693
Bi 5.761147550192814 3.5213855861289995 7.707935692650609
Bi 7.163025104157316 13.7089765446849 10.235046127505978
Bi 7.799285043184439 10.382070678786906 5.049811558597983
Bi 8.028932072792418 5.966174950205701 4.224522212716185
Bi 3.310884819186269 11.46742447665218 11.891416405393596
Bi 1.3475832077464436 5.272267134742499 6.515206338991641
Bi 1.7948313935198312 8.143669813866268 5.626737483184675
Bi 6.649866661677643 7.189156141421251 1.8196257258477315
Bi 1.7021482703823256 10.03825394934205 9.75134455036772
Bi 3.674821451325897 5.920092439848489 4.654171893485271
Bi 5.863411031890683 12.75631823752412 5.487769566510798
Bi 4.770622612486229 10.025346243610892 4.721514151404742
Bi 2.9098733888392205 12.81091527964242 9.220473807332777
