47
Energy = -171.53783746 eV
Bi 11.92300675458431 8.197511634404524 4.513491370720375
Bi 12.547425040982606 5.425814046653124 9.4986328542271
Bi 11.84120277474998 3.8508486031503097 3.202296154721432
Bi 10.319288218910666 4.349673807060542 5.82557184413297
Bi 10.206827185327825 3.5035754491776907 9.685616896766005
Bi 11.355041901317838 10.989045165227134 5.413015615604834
Bi 11.332644757519319 8.918115082762396 1.653784638318743
Bi 10.248002286934186 8.152268743590655 11.09437712630849
Bi 10.911493916868888 5.299078688683037 12.073121399263774
Bi 11.597312545364883 10.261323377511893 8.377229536524725
Bi 10.561054212761245 7.390773069007863 8.158162356391408
Bi 8.935869676030785 1.6758525077964315 5.1551062233132265
Bi 8.707780423091217 6.419230581378793 4.209574244211968
Bi 7.815380655476622 5.094136440347755 8.53148385063597
Bi 10.279705175684107 6.0181007512621765 1.5997897784304935
Bi 9.41811852244784 2.3327741948813996 2.1861964067986572
Bi 6.162400542597645 2.420733983310479 11.596279516622616
Bi 7.359387414680132 5.3148509547944816 11.553881321525587
Bi 8.478757629212481 9.953104747971993 4.993311105619341
Bi 7.412732668198307 9.34719747561484 11.11443171703175
Bi 8.357681288797545 9.859979753916058 1.8856613350423956
Bi 7.021609567627963 8.80003207856745 8.119721371142774
Bi 8.711739069358348 11.210754152965412 9.014169891286754
Bi 6.881939149678145 7.386838574659372 0.7413182277854153
Bi 5.304344719205215 4.753983732249359 5.434520830999479
Bi 6.859864278157087 12.50879162525502 5.41912331387857
Bi 7.154189750867105 4.581899462120097 2.300189679653687
Bi 6.8492832820422 2.1524774788434295 8.617929051573597
Bi 5.989215499806901 1.954341825382397 4.359652851516649
Bi 5.217380831896307 8.475695008428053 4.645111300353131
Bi 5.276590607805216 11.325545120630887 7.7888513451489745
Bi 3.5722456363404866 3.9799338258370103 12.13243246173312
Bi 4.08786455937564 7.543090796432104 1.9684656779135608
Bi 4.620537134554114 6.849432013113466 11.701137333252609
Bi 4.1985507782109295 6.531611540258341 8.689111667981447
Bi 3.100678901748673 10.459041864638944 5.758184179823555
Bi 4.937332961773137 11.234369650450276 3.408013420011129
Bi 2.231721348513715 6.788466684453254 5.624374225889053
Bi 3.665076463069486 4.555953904753219 2.8104896250234686
Bi 0.14887282367671043 8.603809420279443 6.886357750295057
Bi 4.279268101863443 2.3090415783647433 6.959695387137252
Bi 0.7375315301668236 5.436589774854538 3.3807497201670467
Bi 0.220777830747996 5.950122599816929 10.208871361351012
Bi 1.866107165548588 8.422456556384407 9.449355499207185
Bi 2.47273546894451 4.045108828511418 9.280906746701529
Bi 12.547425040982606 5.922927776036422 7.5241434842902555
Bi 0.7302146408598624 4.071637830140938 6.084051065602516
