43
Energy = -155.96744503 eV
Bi 7.7406596867577635 7.503768803359142 12.605243153654827
Bi 5.565385024323289 4.155878803012734 13.998587334033143
Bi 8.29822025837963 10.356739010020567 13.6694079847072
Bi 9.653252079453717 6.549738049196943 0.44882851314474204
Bi 3.128570536948877 8.107018164168645 2.0607068016005634
Bi 8.492923048992758 3.6109784337203346 0.11734563382921438
Bi 1.7679901054934717 2.653992629213455 2.325087188987057
Bi 6.429923961496785 9.98407690880684 1.744449933241453
Bi 6.623615360246291 6.7728482790545 1.0781122957391216
Bi 4.793011470380141 3.158568373337506 2.4869744083324457
Bi 0.26632494744359364 7.353166771754168 2.7375198780155747
Bi 1.7218462505446872 9.406797948231125 4.437234040809678
Bi 9.304387642149612 9.415085328807844 2.1032754432275502
Bi 10.866481536033836 4.923583075944216 3.599627665315138
Bi 1.2815673133815784 4.897743302909731 4.347722439357023
Bi 8.687181150829918 2.872343540166512 3.119137345336388
Bi 4.200630470270032 5.83756061244105 3.92309202852591
Bi 2.6197604336503177 1.1234428886761243 4.817590817188258
Bi 5.514163152824591 9.284978722814511 5.23066876903096
Bi 8.03316270472884 5.542148788131184 4.441793376637002
Bi 6.5587689126756565 1.4303922657051567 6.71023615222527
Bi 9.631751636053975 1.4804227507360068 6.701991083445678
Bi 8.136906551494762 10.867533921731914 5.535943824908649
Bi 2.0072795686531753 7.457239837446116 6.851884530398404
Bi 10.056109697642828 4.502587569169264 6.544045507862919
Bi 7.136290540428911 4.035672981001028 8.74286875288436
Bi 7.919918573666395 8.201385081230688 6.9983476851883095
Bi 0.48021838232707714 1.2305088936569752 7.009475189689996
Bi 4.458333460140365 11.063657393662112 7.515405641126886
Bi 3.724705957542802 3.237274424155366 6.855304995750936
Bi 6.60330781355524 0.484876646301803 9.579454743933592
Bi 1.0000822203141866 4.178026238018865 7.970153962108669
Bi 4.889274284800838 6.436914169774099 7.286452002175512
Bi 2.9791212722750298 0.8141402356954591 8.756119499926978
Bi 8.57264531643647 6.457171303874067 10.253965783016191
Bi 7.3241605615180925 10.79073331838277 8.511844508744488
Bi 2.5500520330565157 9.36407562114668 9.192602386938416
Bi 9.262182026206599 2.046298241050092 9.706025636773356
Bi 2.249052600349459 3.1648081343511523 10.599068017840828
Bi 5.382632343732715 3.0283440219224524 11.097950438677884
Bi 3.7545121028232646 6.667017665815801 10.145214553197823
Bi 6.219784566137117 7.712110366255311 11.63388394228606
Bi 7.334451495591481 5.0589495369020305 12.605243153654827
