48
Energy = -175.0193686 eV
Bi 8.955126760209195 7.044979633960195 1.4551601763149826
Bi 4.4923376604619305 0.8843374601226086 7.203845634144829
Bi 3.24062733970196 7.251254732569111 3.2217551908104016
Bi 3.4409153946542967 4.185850345060717 2.9689230830736753
Bi 1.7975538165042968 3.7667341009239204 5.518289822097731
Bi 1.211425836491237 6.814058374442207 5.487360569611687
Bi 8.185768208775993 4.700539764631361 12.601500542529475
Bi 7.349522200391799 2.534770811005012 1.6782120481131855
Bi 6.439074337854266 1.0744227797773631 4.861317495707834
Bi 2.672537878165519 3.857422886840329 9.85724005378677
Bi 6.335094251729293 9.829912160889728 2.884764128795149
Bi 1.4997822191347343 10.458887096036575 8.792405829803949
Bi 2.6932875500025157 10.218477083820863 5.971649993741548
Bi 4.08524540140152 7.463207855757579 6.172762726910592
Bi 4.273170731668425 3.931061750214029 7.284088813413218
Bi 7.486519429711397 0.7877748008132341 7.707911612517817
Bi 3.484316153956791 12.738338331276596 9.345157602800677
Bi 6.281170694690926 4.0426490041656455 4.097108402339494
Bi 10.961176006034204 4.780831875268286 0.9957189508531399
Bi 1.253813713630125 6.520967736134088 9.514604174304747
Bi 9.734025537197665 4.4903875291129145 5.274243229537824
Bi 10.14944366541667 2.555464227405133 2.939691836671946
Bi 7.680180575193212 12.339923405834405 3.9445772964500456
Bi 2.3833190455264 7.24165826810597 12.27421263992855
Bi 4.205143923068532 12.959232109967145 6.372329496154129
Bi 6.57078791212625 9.7904115990389 7.126634960526858
Bi 7.714403078251346 7.4459170251292575 4.301207267482055
Bi 4.560659724167066 5.066582972358334 11.929976346597796
Bi 10.283215550224568 4.389032337104363 9.480126556428978
Bi 9.161032563900203 10.586491304961497 1.932085559604921
Bi 7.349017037260374 3.4742897025416517 9.171420023683822
Bi 3.5713241850648547 8.476060584650783 9.75682842925076
Bi 8.93806095148746 2.5939118271297494 11.597607461724817
Bi 6.850532533647204 13.456550772860886 7.8292082403812335
Bi 12.02770115720097 3.5071314583569526 7.048561498335102
Bi 11.843775603067282 6.479328696678803 4.300658301331019
Bi 7.5330922561859275 6.909559823400752 7.963266304778498
Bi 9.02572084486606 11.558589754748139 6.586606690994265
Bi 6.160950793975475 11.24403334493442 9.834970522896896
Bi 6.676890040789171 7.072306366819529 10.9532277729928
Bi 10.25837776282352 9.148933483102386 4.492998791118784
Bi 12.809803731681487 6.408502056388646 7.229796920786764
Bi 8.700025396770288 5.43962182047055 12.601500542529475
Bi 10.481810532932752 11.02884250108894 9.893751087681085
Bi 8.984085938960911 9.85820653657982 12.248569051025514
Bi 10.321964966489002 8.241311897019592 8.111479100893225
Bi 10.671417082478978 7.531601402442091 11.199687070378056
Bi 11.979915687300815 10.227487836469809 12.329583142753812
