44
Energy = -159.96823409 eV
Bi 10.1907039162224 10.007633734072408 10.448486673759085
Bi 13.86311745836182 7.795538355398498 8.058140237834989
Bi 8.401165549712083 12.12738443377469 9.084529732190271
Bi 12.081905850770472 10.23660917275447 7.903963025214777
Bi 11.619598052915032 5.922939722112515 9.023620983297977
Bi 8.514552054220164 7.458947299043723 11.045589954032954
Bi 5.568929354251103 8.029587560444657 11.718903765301608
Bi 12.663803221613232 8.617583775154449 5.405105048986594
Bi 5.490027169126646 11.649745087938692 6.098860165745489
Bi 8.435170145705778 10.85621625455664 6.251555971994403
Bi 11.904295848075646 4.3720971536152655 6.461144100638471
Bi 9.257071855064275 7.815393172487814 8.096878004496116
Bi 7.100352577055369 5.762283082249476 6.655420176352312
Bi 10.284170954531447 6.660821269640865 5.172639755148298
Bi 7.810419015298857 4.155773373008754 9.228246667326516
Bi 9.883761906950385 2.434062432084087 7.6577736209698
Bi 4.6929835835439 5.202931860005622 10.858170104276239
Bi 6.39717445990104 9.9686079823533 8.456416310225714
Bi 7.442785182306754 2.716155909549357 5.866679061460008
Bi 7.93210987425901 9.00418456003554 3.159198697269186
Bi 7.399484925188142 5.37796263427231 3.0039496633064378
Bi 6.024177867390953 1.7131354786480042 8.52425700802217
Bi 1.808731157722036 0.5199926538148375 7.77449616600991
Bi 4.700735795161075 8.860548708613484 5.062283014660443
Bi 9.886722575059597 6.9079201373682935 2.1534412607531643
Bi 3.380195573057805 9.146586784574804 9.702872110465842
Bi 3.475374672208412 3.109598614485891 7.9939283371362055
Bi 3.7211989403592844 5.511138862381863 4.044492886756992
Bi 7.922960417993489 2.3464983060938094 2.766952128721092
Bi 1.970546975568859 6.617816084808045 10.665952288205652
Bi 3.607788411045975 12.845432173817432 5.847231600927991
Bi 4.059082268027685 1.8767391866668044 4.862111176608991
Bi 4.185623481153598 6.54372938653064 8.09981580992933
Bi 6.011210623771222 8.684411579291101 0.7976494843685299
Bi 0.9619447521170257 4.751077081150657 5.083141585672786
Bi 1.2654279540736775 0.6143731026364903 4.7898081959587335
Bi 3.6529464772468483 9.82873698189456 2.4019689884695037
Bi 1.8537219804921903 9.29962746985087 6.306804442282566
Bi 6.0459953690133075 5.617191311408411 0.3112743625568378
Bi 1.0082327823120156 6.6053377283215635 7.555619844478572
Bi 5.185759608490291 1.4602731010382797 1.9759616467742056
Bi 3.6503831147360244 4.034558438410269 1.3526546394234777
Bi 2.101801987870173 7.251077490046183 2.1000756351833103
Bi 0.04372771809784336 7.631734432130518 4.335286740004496
