43
Energy = -156.45054345 eV
Bi 7.968469662364488 7.841038170776128 13.288445398850158
Bi 8.980094994511992 8.203608446230163 2.316523739277075
Bi 10.175479069229269 4.472372888850559 0.7877158599042523
Bi 10.190640012709359 1.9355493995960114 2.4682638044012792
Bi 10.251253514575003 10.926490086562032 2.9604764416287406
Bi 7.200075717912525 5.152585442743793 0.6647021066944001
Bi 6.097856322561054 8.975300158358293 1.6049423480500016
Bi 9.870201761084408 9.768916369142508 5.764189911583035
Bi 7.606484894830089 3.2361366329035843 3.4658612912127906
Bi 11.295406327462777 4.520849518871888 3.648457444863559
Bi 7.579147812348926 11.182479067314272 4.421141643722504
Bi 9.671271962184186 2.394246660140707 6.54945331005026
Bi 5.875766005657355 6.635009003412754 3.6318155996523367
Bi 9.530252836131256 12.753463369770577 6.239034750924947
Bi 3.5096695044160775 4.731684110963399 2.969355267610896
Bi 11.804031903308118 5.994839525282588 7.33089472560321
Bi 4.878861679843264 1.9830956010051033 2.9699365474713337
Bi 8.346607697096823 1.9675684021040891 9.258078360419528
Bi 5.5807985884005085 9.197776763136197 7.407992118698432
Bi 9.202926655238103 5.324440206275455 5.792925486033413
Bi 12.275224843829298 3.089809295533424 8.18807597967992
Bi 8.108937726027108 10.085190650831944 9.867871129292412
Bi 4.022656107963479 8.898990357414446 4.803790792650379
Bi 5.515671401907453 4.637332001303011 6.631416416678252
Bi 5.610811776279631 12.2947210910178 7.203759433776497
Bi 10.576083868359493 3.3980677847326852 10.749397135707992
Bi 6.064448506991835 1.8025188831438304 5.783820095866898
Bi 8.040940543925602 12.998616432177164 8.919469704760113
Bi 1.6261753716649265 7.247363726551129 5.736014833294417
Bi 10.376900059295949 6.356305438256296 10.033545579718815
Bi 2.5732384356265436 4.376573646479294 5.840980234261919
Bi 7.428247731738301 6.665833473679738 9.299424568509451
Bi 8.533243770806221 9.579994369176353 12.920554809326712
Bi 6.034970264903927 3.926803013132903 9.573165112106292
Bi 3.4984459339298835 10.794508382237344 8.880928209153282
Bi 5.573742975086744 11.161692499544476 11.10075570638395
Bi 0.5963916360434267 7.320571208095657 8.642916357228986
Bi 7.431892532988968 6.800748042347951 12.38041419843061
Bi 1.4501398979489841 4.628166173770766 9.764491868007845
Bi 5.553407512037041 9.013854848206385 13.288445398850158
Bi 2.18178209510923 8.366553316025565 11.048637952111735
Bi 3.7238290440648947 5.787619151973208 11.489104294598555
Bi 0.8581845487596484 5.935655968444704 12.454019144261435
