48
Energy = -174.52991642 eV
Bi 10.81775051211231 1.3505176525715714 12.317966318633113
Bi 11.419645646789117 4.309124086076338 12.678255084666938
Bi 11.77839221133313 4.999355195434976 9.677519621572424
Bi 10.890127124304488 3.900414511818497 6.187459939721492
Bi 7.8222424140623765 1.604746002972305 12.57460280039569
Bi 9.772304921452468 1.3677927731191772 9.345023679621475
Bi 12.130984567402557 8.404732717437895 5.707983209253433
Bi 8.826103651346385 4.290645160785896 9.214966301761153
Bi 9.414329799333396 8.359596275283415 11.69457006295032
Bi 8.357520715358826 4.5942760135277725 12.26090852013759
Bi 11.45329453081263 8.047568142107448 9.449911066656213
Bi 6.726463898052275 0.9566987719605456 9.470042990236315
Bi 9.695847087395912 7.187351775996601 7.110498533437001
Bi 10.403182425917239 0.8541803016050467 6.290458894641987
Bi 11.589566487589025 4.330951416041559 3.201960881820603
Bi 4.516288798494113 4.112319108433379 11.884815850297649
Bi 9.448680855730345 9.836388021353695 5.548657787722332
Bi 7.410968888702232 1.0249451734235135 6.2671439005613845
Bi 11.345673959198848 7.35103989386053 2.9446626942549123
Bi 7.817238810649301 3.9951566125057307 5.669364971049789
Bi 7.531200189979045 10.424835578633285 10.526230178038446
Bi 7.071417162862419 7.478120343282019 9.910136400894459
Bi 6.03805048271342 10.247632110514544 6.451708315660109
Bi 8.390115535091262 11.606078671888039 7.848863731419028
Bi 6.1495107447064115 10.00778277233707 2.4935858010934866
Bi 8.573017191945025 4.021387041604983 2.655370787381963
Bi 4.845870384529544 3.3960754869318777 8.974164720904412
Bi 5.548221502679143 6.923255225119467 12.511874781307068
Bi 8.248081643058429 7.041129062292758 3.277092002963981
Bi 5.030364142705836 12.905313206029817 5.3556527337030495
Bi 5.28472938468632 5.978427428850539 7.246077002770128
Bi 2.678061032905944 6.512517958581969 11.56756449942535
Bi 2.3990819679798965 9.434141148276966 5.567607052128118
Bi 3.5300449604686457 3.8977850769140625 5.737941734494934
Bi 3.462937027657199 11.504744916063446 7.541677981339117
Bi 7.868940670142796 6.890384662080508 0.26644242694546877
Bi 3.411737982121427 7.827570307887235 8.93752187287198
Bi 5.533170632945789 5.334291235904744 1.4605642456836763
Bi 0.7326765314587917 5.043440200205115 5.844021973833667
Bi 4.3121577036498735 12.353053862685261 2.431450733026654
Bi 3.998148294536231 7.549582658401464 3.230038536470965
Bi 6.060834109813786 9.300325463001572 12.678255084666937
Bi 0.014315708746158836 10.470170085713523 4.045682202456005
Bi 2.1533018205978474 4.9143825129080625 3.184449589748215
Bi 0.7821350799162166 7.665856154822309 7.4286111228301115
Bi 3.769489011718891 7.342662649721974 0.02608011990969662
Bi 1.4099938826911391 11.621620481225133 1.652057223078332
Bi 1.278177278250459 8.620550532114258 1.8646792314462992
