43
Energy = -156.07651859 eV
Bi 12.123323315612812 11.537623502143239 7.7621283862652986
Bi 7.7337057112045375 9.250436210876089 11.280715171802036
Bi 11.378856837995373 9.437498332244452 9.763820331653768
Bi 13.075696344827763 8.704138703733463 7.34711878710407
Bi 12.205051927453928 5.292541595409843 4.476641701688548
Bi 9.752944613128415 5.030050722280701 10.904263811052259
Bi 5.906045277572983 12.822491640932297 7.743772594974866
Bi 9.04265388051821 12.066920014347039 7.066967032793508
Bi 6.778532488568409 6.398063707932057 10.610719630397554
Bi 10.794783889743355 5.235161024006372 1.799782521024246
Bi 10.513028970237542 9.213509926860283 3.3587933645248094
Bi 8.623190840481831 9.251853008592734 8.331976078789506
Bi 4.687496123215562 9.410917762822693 11.380127878693308
Bi 10.68376532864289 7.545229585962792 5.8804464924697735
Bi 10.32854089484787 3.1309241775536427 8.56973140606804
Bi 8.690016488861586 5.715731415661792 8.098953115654641
Bi 7.342136418423465 2.8474042007574956 11.200331545831933
Bi 9.759064650290318 3.511876321910411 4.141075282578464
Bi 3.822003810620794 11.193296641026041 9.061078869079543
Bi 4.68766862985479 11.788450289876774 5.144073006324299
Bi 8.332243145489484 11.145109001753267 4.221626993473301
Bi 8.49215501959324 7.218842220788014 2.268542013853232
Bi 6.1961809088977065 9.143879896931841 5.152639847643388
Bi 4.173693651786738 3.3634077157323894 11.713659776562084
Bi 7.572661384829926 5.606262493019509 4.755522741885653
Bi 4.936042342546827 8.36055415354547 8.474562537393625
Bi 7.229690696551173 1.9062905105998598 6.170462604205291
Bi 8.28078620546887 0.8342954051013189 8.82328137403616
Bi 2.287088467827624 9.66637005940674 2.771229123450179
Bi 1.9691110933975182 10.489226140431532 5.689503124995315
Bi 5.9026594478547905 3.427484278063979 8.53348345781132
Bi 4.559090875051979 0.9640425383137903 9.920986054146418
Bi 5.311126689617034 9.16060045671235 2.209599024195923
Bi 2.1024538093392153 7.895744522677911 7.385764308718788
Bi 4.347090145062766 0.8130136638752581 5.897193974381595
Bi 3.6688018851783912 6.118720743183441 5.467471313223875
Bi 3.1594199804393885 4.8576083174912705 9.20082656762222
Bi 6.000826572928289 4.113487787373215 2.585386974275688
Bi 1.885936108105564 6.617192620458994 3.0745642014077634
Bi 2.3632124346178776 2.1645210100074532 7.892514858510964
Bi 4.368071332751575 6.3754512977737425 1.2896242666128854
Bi 1.6536836091881522 3.87835940535089 5.1863283380372485
Bi 3.5937684444898563 2.376786884445026 3.374163904848839
