47
Energy = -170.12652742 eV
Bi 12.969211077753059 2.8689638635480508 7.904272589869308
Bi 14.03517820361669 5.818938967014368 8.019576994523199
Bi 1.993917107040255 4.494253213002894 8.760215875316742
Bi 1.7829637963885308 7.818425707312953 6.499616796760709
Bi 4.037539947730152 6.5921114857975684 9.82719118712607
Bi 13.25573039306452 4.528493407214823 5.360641962930754
Bi 3.38751282983727 9.358096692129811 8.651328072986534
Bi 14.608568853837463 9.868172371715083 2.4289824685617143
Bi 0.09877576818551562 1.8883376190615868 5.643238763656694
Bi 7.503407047665204 2.89121917269396 10.905686346293065
Bi 7.684270172631574 7.249386294128368 10.491982352510194
Bi 1.4144481860269036 5.7279673603879875 3.6104661042865476
Bi 1.4866520492521886 10.514989887337839 4.963601741965153
Bi 4.079221638372058 5.675279390029682 6.855901877510432
Bi 6.041761146341509 8.884403301460027 7.122465551924636
Bi 3.1321092192178828 2.461723571820484 5.895201388658626
Bi 9.646671811476741 5.150389535093567 11.254439996569705
Bi 3.0071658509881383 2.84530543387935 2.8507795224393773
Bi 4.1673921790213235 7.288763336252448 3.6196538030378678
Bi 5.314915682225748 10.983396311399483 5.031397868719717
Bi 10.932867876603277 7.028907364873481 13.417729650875822
Bi 1.2433775282243646 7.391590409936492 1.1522223310791373
Bi 6.982338975338519 4.696894157766909 8.569429925771821
Bi 2.613030411862027 11.360009340591983 2.292899171023995
Bi 4.1501713370672135 8.963628269923886 1.0815817213135166
Bi 4.21924620339032 0.23031988959897887 4.042382089048431
Bi 7.352375376565312 7.1423209856293255 4.038663194245464
Bi 7.503220608215814 11.590611018429701 7.094330794894217
Bi 10.04894366196615 9.22362567843561 11.608293099631073
Bi 4.649080647494544 5.1549788663042175 1.4383275414723553
Bi 12.640438907877918 7.750371177940235 11.009140256735028
Bi 9.341451746704697 2.663436002400954 8.486705998822135
Bi 7.617030956678867 0.3673752062399038 7.364239582207836
Bi 9.563510984896824 7.943863204767006 7.945871262497501
Bi 6.923002190783212 9.787436010474588 2.7199125487537503
Bi 6.613077560886981 1.9031093057689548 4.9274276496737865
Bi 7.652628443019722 5.788007794239155 1.336009672751348
Bi 10.03918559082274 4.493385047258861 5.212040575452243
Bi 11.408503064634061 10.392419202278623 8.090992539390832
Bi 12.969211077753062 8.157816147763958 6.738768372374117
Bi 10.025281036943277 11.132056835809061 5.429764357413302
Bi 10.457980450262172 8.128619958210102 4.904479982355893
Bi 8.846326212808545 3.2884498943426386 2.6556887179514095
Bi 11.756355943624806 5.911443756985733 8.658466505634014
Bi 11.302954552746625 1.7114694306858405 5.288978819198673
Bi 8.903997678600467 14.547446199210084 4.642026643125588
Bi 11.861886024104521 3.6051199948152823 2.9453614164623483
