41
Energy = -149.12673751 eV
Bi 12.689893259113106 4.020170170072417 7.722471923244298
Bi 10.156269145784066 5.703319658451196 8.028274506549776
Bi 11.43660269051612 8.190891035102416 9.22750566314744
Bi 10.415047011729355 8.00057030088271 12.103752297401082
Bi 8.223290051871542 5.927374042394543 12.321363236648892
Bi 11.12764902319466 1.9944701254491635 6.051175789671555
Bi 8.493818155760055 2.1119596916849233 7.638846955768397
Bi 6.873836487197636 5.7047023790314775 9.592648065702827
Bi 13.862591067211616 5.705879925127391 5.430117413906699
Bi 11.537547685713118 5.439425320538056 3.517639691233085
Bi 7.5480129702019525 0.9204067948859939 4.996666469851913
Bi 8.55191925113148 10.296346145912239 12.842925299489186
Bi 4.201339137488698 6.212798198033456 11.01511930324937
Bi 11.350495919970264 7.482493205637086 5.742427524672268
Bi 5.177755875671879 2.2360765037650094 8.891294413322292
Bi 6.587944654987645 8.612646462592322 8.772585468324065
Bi 9.226136769562551 10.038123033810816 8.223252576171369
Bi 2.781287904006669 3.5710938499304397 10.255119693398319
Bi 8.786291874347835 3.7209348671246008 5.077302174489869
Bi 6.511501905769681 8.109384448702787 13.628436591379124
Bi 2.462327108321472 7.322106294520635 8.77780724209275
Bi 12.184987865785438 8.134703858552108 2.1952559339468936
Bi 8.030951818596687 7.131288115018551 3.9663598955476305
Bi 5.062227483255051 4.4354823194749615 6.689824372187302
Bi 3.1201013192684974 1.0124330873836451 6.974443610983531
Bi 5.909264523840188 10.018283083420203 11.385814769206595
Bi 2.0760228137155243 3.939426701733483 7.249118399868124
Bi 4.752214969274349 2.137407262445643 4.640745502345342
Bi 3.061255367257334 10.276310322646264 8.216566389024472
Bi 9.253564578699194 8.630977782946214 1.546786801633546
Bi 8.333866501906774 9.901652592213509 5.271243712244743
Bi 4.264694526976179 8.100697598776627 6.40467916084263
Bi 1.3682872977611842 7.20942459801229 5.294722457108053
Bi 10.699293579887783 10.540600197907953 3.41143678197671
Bi 5.498884634597174 7.767795336042001 2.3210344334074593
Bi 3.4824714046376943 5.810879333615429 3.3692245781758228
Bi 4.925349733512306 10.630201424861497 3.1195012990222035
Bi 0.7520250811883553 10.134228963254538 6.206533139426188
Bi 2.2638823573593214 10.385500491089658 1.670957855079444
Bi 1.2139812043760232 7.561697141540773 2.278756737851026
Bi 2.3934623739637857 11.791665409423587 4.357388407702711
