45
Energy = -164.01521193 eV
Bi 7.033716266543812 1.6752357420635413 8.397484678438792
Bi 10.938994382553618 2.5416384814216766 2.8370778915872714
Bi 8.159027806194288 1.903575418349343 3.9848727060752234
Bi 9.47535222184943 2.377975486701608 6.6837417140519
Bi 3.0429285821560565 2.7988732748243756 9.26419004646755
Bi 10.699918554089251 5.250799546738539 1.476056900538416
Bi 4.8982294311525925 3.2342456814741607 6.882324301828625
Bi 7.678313735094302 5.1356171859501965 1.3846422102877627
Bi 7.4660632372121345 4.124476069214232 10.175928048882025
Bi 4.241292222797886 6.93272433246912 2.611335276513694
Bi 11.665055178203573 5.093851331963452 4.325612009928452
Bi 6.935168217356519 4.6852540741152975 4.264462931477528
Bi 1.6793329882245185 5.555606360714472 9.040667325912542
Bi 9.210085704923767 5.430539936450148 6.215576494604598
Bi 4.7624691436571425 3.7853260998939025 11.590848306663093
Bi 9.787171972925183 8.768244048556337 4.687803157659129
Bi 2.8770897127491453 6.5783596524263235 6.405787072850305
Bi 12.545227563048027 9.344234567127675 3.4945820467842617
Bi 6.564092209524935 7.951233957313539 0.9189467227878128
Bi 6.260633797677829 5.833138400667325 7.901393731711124
Bi 3.4713748159579856 9.75322374539918 2.6325212286801034
Bi 11.31963942752498 8.014409697477065 7.865796500635922
Bi 13.751936755406675 7.830712487919536 5.797044698292136
Bi 12.912189981213361 7.660035406610948 10.450897680192904
Bi 10.294841962207247 6.419390408614873 11.380550473819193
Bi 4.213117615115618 6.576033711968544 10.418503495456967
Bi 0.39294557820165404 8.322266362935858 6.425784681328972
Bi 13.892447183203723 10.875135838490426 5.749984672272987
Bi 6.257983248277557 8.68322475684576 12.499408126115712
Bi 7.602447677071119 10.022989494112817 2.949631653618747
Bi 9.54976089564071 11.527233605943257 5.923309769724861
Bi 1.2187495076804402 10.487055387558724 4.4527275492783485
Bi 2.850879282506142 9.174749688767408 8.025530684997648
Bi 8.320959364310246 8.222900466290424 9.71462713098297
Bi 11.771577310974884 11.027422471308324 7.968766992252916
Bi 5.937968363957583 8.707662638675515 5.149230008126401
Bi 10.669555322774732 8.314098794490738 13.768307855524814
Bi 7.29243272603668 10.36176776192908 7.5443904259489
Bi 2.2841501034030083 8.443895570024337 12.058681441758932
Bi 8.464247532997241 10.417537112754811 13.668091582777075
Bi 4.1626721138413805 10.834516043919052 12.076940634300833
Bi 4.012187742918466 11.017023618501987 5.756967956537983
Bi 12.109838771869125 10.244691991379291 11.859285083903682
Bi 9.31828968493521 10.912210568307643 10.741980567516398
Bi 3.9308671762612475 9.072085793559308 14.500928603127553
