41
Energy = -148.93113402 eV
Bi 12.773337094302862 0.5162212977898682 5.974101540759651
Bi 11.582384094528793 9.883353888755773 4.474103288712474
Bi 11.388957511625303 2.5312213846528535 7.810297137010313
Bi 10.072293040830909 7.473303929237578 3.434783937134634
Bi 12.774685130185272 4.687816496160744 9.650285606542672
Bi 10.138510878775133 13.06360958045141 7.22835924345134
Bi 10.139165664258583 1.114708606201011 4.651281302832491
Bi 11.273594126174775 6.374910092368125 7.688665127350845
Bi 5.966212188574284 2.9938463608766086 5.123416835693668
Bi 7.674945354471602 7.589733154765423 5.457408457644685
Bi 6.86624263337829 1.1654335896915984 7.456690097932269
Bi 8.211444965232392 2.751006963983729 9.753589873920559
Bi 10.542197532981195 12.636049606570632 8.46013990385229
Bi 9.75264787210736 10.005629215125857 7.020457641485817
Bi 5.426872052254251 6.619994446524705 3.6938416246252164
Bi 9.782104812183649 9.04590204585341 10.343124117911701
Bi 9.613347909367402 10.237310761103286 2.235682209625077
Bi 10.19502594558652 4.2850778877308855 5.490940815758336
Bi 9.540059752705503 11.920915236398034 11.300049623966794
Bi 7.588066545261249 4.80235378887469 6.94233911335275
Bi 7.0589562441826486 10.796105650844067 3.8891925360235082
Bi 4.330925300463809 1.955748274065419 9.109244000077744
Bi 3.2595720003172626 3.1894799799110967 6.527769961627343
Bi 9.885153342514693 5.39083263827328 10.208088040908837
Bi 5.465813498447627 9.142693262682801 1.8988429445696975
Bi 7.6380127000409805 7.545135189053461 12.043056678094072
Bi 5.991449808393659 6.832224067248761 9.376015344702925
Bi 5.206669191103466 9.915142844583523 6.589746417747845
Bi 7.154879147417359 10.734789910694426 9.863637718669501
Bi 5.101313361783292 13.063609580451413 3.0490429030478285
Bi 3.5320110738274435 10.789856238614673 9.089655954369842
Bi 7.875115471220212 12.37941011084746 7.031928341444504
Bi 5.658017736476784 4.1382560206125305 10.827023002779221
Bi 3.1107737459883724 8.172798900114545 5.114600921428342
Bi 5.92640318117191 9.921600802916648 12.637135516403546
Bi 3.0050704646123227 10.90312698527306 2.565932641306558
Bi 3.3875647175332517 6.1111855607038414 7.413633398164874
Bi 3.7595756758319965 8.324613025938 10.908221554836599
Bi 3.3942856914321378 12.134998723103795 5.347563348010063
Bi 1.2209024891216587 9.593919924480312 7.553546906272215
Bi 1.1683104799750734 7.115926862367346 9.199434796592152
