45
Energy = -162.92589178 eV
Bi 5.545866087407922 5.475083692403699 14.12167959952603
Bi 7.773957661688482 7.575490647665172 1.484407867209088
Bi 3.378345069758823 5.128856915072592 16.175827296708892
Bi 4.379226770330668 2.711196927915462 14.553146407987114
Bi 7.8630615105729085 4.570534959673375 16.01196024907553
Bi 4.919873378940159 6.041394519378987 2.0259419562701875
Bi 11.316145070181694 6.1009129842404075 5.026179396850849
Bi 8.312941845866403 9.170895183917686 3.9719595608631684
Bi 6.279397550345506 2.8670142104038945 1.3532241450030018
Bi 2.983996534737762 8.383235948343573 1.6151278932612825
Bi 6.2254883643998715 11.348682518235586 4.679067440093688
Bi 11.88119000752883 9.521478555172507 9.341284103419847
Bi 10.025782975674158 5.662666646258346 2.1925768082015042
Bi 8.65358996602586 3.193811163678385 3.3200152643824357
Bi 10.562250607198235 3.5599137434389867 6.561397697465521
Bi 1.9520206342780155 6.10169433966334 3.366381835521794
Bi 3.5481123070915075 9.98649903322364 4.144345649414044
Bi 7.1510116770934085 1.6603505012778115 15.427059764344929
Bi 5.52268531346834 10.064235386276723 7.423293103683878
Bi 8.830624596170631 7.1936879834744785 6.396300188239574
Bi 9.152769951377925 9.857738906866757 7.845990177811302
Bi 3.9639343183134312 3.0087589223367135 4.2792938340178885
Bi 5.446085423353571 0.2765576207902052 4.445561958712442
Bi 11.040494218372064 10.783178150244703 11.989718501212685
Bi 5.295470083010112 7.800109295831676 5.329066206838015
Bi 7.955427798081502 8.46361630759966 10.301811135812606
Bi 2.659536623786163 6.45243723527549 6.34228702757354
Bi 10.759689655611332 7.777857892804467 11.534465073922417
Bi 6.56502297324738 4.4387182509689165 5.189802605885779
Bi 11.36380086505906 5.61326138525654 8.714266176961845
Bi 8.123051612128524 11.395230440054243 11.210287465545079
Bi 2.3915296465428204 9.334949290844602 7.420206049488957
Bi 8.526074664264327 4.818063687757234 8.606065250752932
Bi 6.861109133665933 1.7982534858220867 6.7164663349790565
Bi 4.8111586073430415 9.834266627835289 11.21449779539455
Bi 3.7872575596409797 3.5872692560837285 9.568008639183187
Bi 3.8533960324861174 1.2518579041499114 6.805461247256592
Bi 6.179403719527144 5.643620227520353 11.910508118946455
Bi 5.227761342600751 6.290617882052928 9.043537695522401
Bi 7.13179596136251 11.008187882673928 14.12167959952603
Bi 2.7787383328905744 7.830285253612815 10.069956905509265
Bi 6.008095993978666 2.605811740849034 11.382980236003384
Bi 4.1247323914408875 11.32608806604866 13.819777811162945
Bi 5.349724174357744 8.553545406443165 13.925259972687924
Bi 3.6602773274047293 4.053989359167481 12.588802250807076
