42
Energy = -152.56174077 eV
Bi 9.926056479350606 9.623177483567645 6.2993792133210995
Bi 5.791893400257088 2.4045188815564966 12.583490217688688
Bi 5.599693912513386 10.266213021026099 10.501371022332469
Bi 11.926898308701238 8.175699447871562 8.136891630915924
Bi 5.56154099511715 10.491222274070939 7.39773149139441
Bi 5.967990289392413 7.266172042683357 10.47983439545139
Bi 1.5160595498358023 1.9170763113369966 7.347566252329393
Bi 5.533057593196281 1.3503859828256224 7.756916131490743
Bi 2.8771719479560587 2.6226021149189194 0.6939692996227225
Bi 2.962949944934927 7.450614623813198 10.577529237046237
Bi 6.64208598379537 0.8237861191920378 2.216218021202667
Bi 3.5228680477153667 3.9345768042965306 3.3998401095902695
Bi 2.9948774583673865 8.268671804969532 3.029036554298456
Bi 11.926898308701238 3.1405656800734825 6.021200385832992
Bi 9.818353049894895 6.192438169782194 9.145257708573938
Bi 4.036940648750001 9.293246859229205 0.33761317875181995
Bi 12.667184333914086 6.501037287624486 8.370636547318123
Bi 3.4261333768136857 4.306588945063713 7.093130216200255
Bi 8.107960015106677 11.091943191515485 8.977527647147213
Bi 5.528774664507254 7.01979680353776 4.186570728499129
Bi 8.27212462268998 12.829435660939499 7.473583425514881
Bi 7.030634509373729 8.918444956326352 0.6224983606579428
Bi 0.5159856791519315 0.8320988047202668 4.651205556276356
Bi 5.0399877239330895 7.493745936051105 7.357844880848206
Bi 9.358260982127376 1.8299339225993168 5.293779291007844
Bi 8.3028231081952 4.32671585745417 2.4269951242814947
Bi 4.646984855564922 1.3168468881207058 4.578562287054524
Bi 10.002128240697333 8.701958465794423 3.356105272443478
Bi 8.286387630609905 7.040140450180483 6.637696520326775
Bi 1.497610724338288 6.324924964706161 5.7948192395861176
Bi 1.9992759730935998 8.673223284710279 7.840818719677778
Bi 1.861852608153128 4.71529640859005 9.755294765603233
Bi 9.940185378237501 9.000941142491735 10.291614965039921
Bi 6.477084228206656 5.899501279048312 0.504241066104864
Bi 6.859890759253273 3.5710882915783517 5.087904828511253
Bi 3.4131610201320366 6.297114835670944 0.719083835294122
Bi 0.4415214345876459 3.5382451073469765 3.299899042485139
Bi 10.089863970221769 5.8626679572047475 4.389617612359545
Bi 7.038372204309425 9.566033838948394 3.596286918223802
Bi 4.257958969985164 12.734208842871748 0.5606069674348101
Bi 9.668569326713811 2.599005327841572 8.219044996398846
Bi 6.864455157817416 3.9886013440642007 8.35356801674975
