47
Energy = -170.9260422 eV
Bi 4.9032545437415465 6.621239776476774 13.484070734766163
Bi 7.936865607943602 6.509373889015095 0.06534736898606468
Bi 6.996811816537616 3.7485937864554804 12.764774984534869
Bi 9.764010107170078 10.408880063457596 3.9813623737016637
Bi 4.039999052076949 3.719733077764702 0.42601602581090525
Bi 1.5281926051980452 5.4057318515964 1.3717674537871603
Bi 10.014958181289147 3.8090293778180797 1.6645637823813064
Bi 2.390493804547386 9.940502994399525 2.333187829609379
Bi 7.046936213665147 10.315903188557591 2.6657025810698505
Bi 7.337124257880815 11.38722754839011 5.508364682849078
Bi 10.497853298324907 7.293375805692331 4.169384315682611
Bi 3.712556253453207 7.24277138286531 2.472257691830776
Bi 8.100856643486319 5.7225212060189525 3.0427742783180998
Bi 8.989241912292078 11.073044870073044 8.893630464515617
Bi 5.131900901917991 3.575194753199619 3.3162788770512797
Bi 11.0898417209914 8.992817811853508 8.308741231352753
Bi 7.577098591675371 2.0141404827485476 1.3054846479285436
Bi 1.9354141890639802 3.859369536879053 3.9142866530910494
Bi 3.6975773010357282 10.557555773553627 4.998993802170741
Bi 1.1077370277842755 8.918958913923161 4.931626482397049
Bi 6.129680648101931 8.630012950253779 5.062164405694075
Bi 8.76851867725787 3.0710817820310417 5.560436229600529
Bi 12.61653181295637 5.0601969148391275 4.917192435670378
Bi 11.338246408188784 2.4652313658706895 4.07020189837606
Bi 4.976957362097056 0.5424640122182784 3.653840798397224
Bi 11.835690338294562 4.84340284703395 7.942635341671439
Bi 4.943854474714084 9.872880607306598 10.740200990240348
Bi 10.138808099938961 9.424368235494356 11.154553721015839
Bi 9.455881867766928 6.612372976684747 7.082080318802632
Bi 1.3283415628658644 8.989742174339964 8.636838145665312
Bi 3.2791546252282395 0.3034929480797129 6.254976750998573
Bi 0.09818431917031423 6.410157492195761 7.609909973200786
Bi 2.557933844205898 6.297892414474132 5.757541484130109
Bi 7.521194475838265 0.2895285920538192 5.363114125876174
Bi 4.108837417013092 3.1390677726823624 6.873604541656104
Bi 7.582185661723369 8.50302281798653 9.761344270558654
Bi 5.845636907834181 0.8138094337750575 7.859207048484781
Bi 10.408057105671979 2.1634970386122303 7.97123299140088
Bi 4.238671307623942 8.11380192531873 8.353580723707568
Bi 9.143445590225243 3.9047576597905667 10.109398714155525
Bi 0.6924979014542014 8.866442290541078 11.652177479493877
Bi 6.992475085396574 4.631129500152734 8.280965156934963
Bi 3.4360570454202874 8.158037632422454 12.764774984534869
Bi 0.6429152932878248 4.37389102226442 9.80595142613808
Bi 3.457981857997361 3.2404954191609754 9.846703362725872
Bi 4.985184133587892 5.869059690595215 10.324753501275431
Bi 1.2550190190081048 5.987689678593791 12.28391956216807
