47
Energy = -171.24263331 eV
Bi 5.885399761993834 12.63244131013217 9.741778963097126
Bi 8.898787379109855 4.6783526742476065 7.172445974528197
Bi 7.1281210831782715 6.472448601721987 12.315769590893694
Bi 5.266434103869492 11.15303331704093 3.461996503595472
Bi 4.373548817308653 4.3221486236066955 3.4809318799954445
Bi 9.703548120683797 12.151276987113047 11.468695971917546
Bi 10.234853250373275 4.919983806241214 3.735378630346679
Bi 11.172400551723163 7.404885317805741 9.797649652535274
Bi 7.655938540347018 12.133339624378568 5.088752169476789
Bi 10.197129031080317 1.9355363551771743 6.395752029403237
Bi 9.238999413189566 8.351476629691001 7.602668930597036
Bi 6.149365823162854 9.58433987184999 5.921249727734018
Bi 1.71015908861718 4.732043923891038 9.063563198428113
Bi 4.713321877047079 7.461999452188943 1.0491692536956443
Bi 2.608563537086636 2.5033399726937295 6.308534471650159
Bi 7.792075325896611 6.724257708683025 4.384659672379784
Bi 3.720478687721592 8.265221847378388 10.582827548212562
Bi 6.634598154069204 1.5826755434509936 5.512423937776606
Bi 4.552338356996465 4.2078115565964165 9.93486761284782
Bi 10.01085580776063 7.39990368468572 12.625444325968436
Bi 9.821351591000768 11.332932817301417 3.1414954418166077
Bi 6.655800488358544 9.809641434279547 1.116850495098412
Bi 5.134638266629828 4.086249602149397 6.859610137216548
Bi 4.1137350390854825 1.3163087562080578 3.790932565158303
Bi 4.529316717416919 11.909759894247594 7.10096884051669
Bi 3.6153678052379443 6.971465696577775 5.980714527118074
Bi 9.14169930062309 8.496411622597096 2.3015849656276512
Bi 7.511674902218422 10.201017071652442 10.592085468214488
Bi 1.2392864329478077 5.113431909710277 5.43011799482405
Bi 7.717630233471007 2.620328301515611 9.53953670187951
Bi 12.681934292198713 9.908921060472373 8.887588448937592
Bi 12.05269410081077 8.345767789362405 6.2938632002323205
Bi 2.662592999820626 8.120278832429957 3.116621296982097
Bi 10.512663841090259 4.043244184081796 10.0545169667334
Bi 7.405477347959344 11.516246902170822 13.331437859929752
Bi 10.33803443980779 1.0542036226512714 9.395164023914681
Bi 1.7493307673432694 7.668101106227018 8.35737507923459
Bi 8.314113083779766 2.5621860849574984 3.2048465891155695
Bi 10.101161136521485 10.213121715594172 13.786025983028372
Bi 6.133099499215316 6.802280288316002 9.415014857634027
Bi 10.126064604034445 11.324296459030764 7.8852575622853935
Bi 8.444906252670714 3.6890019473824607 12.294983733712245
Bi 6.894502465776243 5.200447598343835 1.8686847993907116
Bi 3.2312078984361055 11.162838598288545 9.742041494358693
Bi 11.816074408373163 4.547878200761556 6.372920701661225
Bi 11.91662580637689 11.261393783014976 5.357455530539872
Bi 1.7115698945632627 5.32519823908526 2.3572150167431367
