44
Energy = -160.17494165 eV
Bi 6.151615695772925 7.558435959350025 2.541420170045201
Bi 5.718244425644709 11.10543531978107 5.874221928908623
Bi 11.55208743443437 1.3844173698775712 6.794664303573095
Bi 5.449860518864027 7.975656806507738 5.477776845088498
Bi 5.596144226771081 9.604188293604258 10.262657633502252
Bi 5.013432830172901 4.515768899293954 6.287872262019116
Bi 10.709502425593689 8.02900741410662 8.60342431658372
Bi 2.8916354262925927 4.450876435064485 4.107303364116753
Bi 11.567003051248204 4.340943248573043 5.39224170690151
Bi 7.166547426939802 6.224111685505764 8.85287185377591
Bi 0.6532633910151576 3.1595240166004346 5.970375667300499
Bi 7.317398635101446 10.296569786152832 1.9702546611011529
Bi 2.8871570515608993 9.096875127922589 4.263714724845611
Bi 7.391128975027812 7.510943028350167 11.590089329175653
Bi 13.4012996488985 10.289247407840765 5.560604757758169
Bi 8.0062867598642 10.688879004535458 8.675867192221236
Bi 9.562488781004763 9.64287166531166 11.025839940196974
Bi 11.580355869336149 7.842245719192123 4.7899813170977374
Bi 1.9456821513436966 11.387528980566785 6.065471281000896
Bi 13.4012996488985 9.525532687013873 7.119628966328731
Bi 8.77588963960812 1.4521235322394124 8.069960285542438
Bi 1.976937331276993 10.447178262293262 8.955909598599591
Bi 8.941195161490302 1.9657304910097468 5.063532397635295
Bi 8.574278636875695 5.022723482296837 5.591767786336849
Bi 9.215029152419003 4.056863078197114 9.670809733244807
Bi 11.983071175194956 4.13232308470724 8.393916318982237
Bi 13.223692424473404 6.927509330577839 7.093981178773505
Bi 4.739252976676941 11.505937505781525 3.0322592270773328
Bi 3.6774433419908954 8.019136258273448 8.38381935824256
Bi 5.723785335979012 3.9294589943871454 2.2337649946069593
Bi 0.869208271452249 6.935143523087309 5.949542831451192
Bi 2.2598997445345588 0.7838860067333872 6.9135403142495635
Bi 11.262600061800656 12.067015239302313 6.593703126424652
Bi 0.710543196106601 5.184920447431975 8.402724732486957
Bi 5.393464798232446 1.4333808986372472 6.208206161194927
Bi 3.284697705460544 3.376711424197589 8.58381695714972
Bi 3.14336733514518 1.3463794515804488 3.9328226738719168
Bi 8.801235823798738 8.601961982566372 6.168839451674307
Bi 12.735306567893472 10.407452105449398 8.556706587721045
Bi 8.353221817113617 5.419302052126055 2.5882670008673703
Bi 8.524891211981416 11.306767465236103 4.657159136545639
Bi 6.202746361125723 1.132456648268785 3.199005357333197
Bi 5.34577174430793 4.545741775372502 10.71978708934584
Bi 2.8984987741185564 6.283941909512754 10.722979283517773
