42
Energy = -151.4993389 eV
Bi 11.833234405777727 9.403320304862811 3.6834791421440243
Bi 11.2162445379811 3.239393167042299 7.757261398762162
Bi 10.77228020719957 0.4646812550433141 6.590086579471493
Bi 11.996410233554718 11.929203104277855 5.383991203332172
Bi 10.639959038896082 12.037753823728034 2.6866182817319153
Bi 10.296943272439393 6.816894791304228 7.3234832479053695
Bi 12.2183758311159 5.122213338731056 5.620954771862488
Bi 7.913012947552444 10.64326895833592 2.822364243014883
Bi 11.55682212280407 9.434158296012393 8.25105316006528
Bi 9.473935514218901 6.5021178249413145 1.9795984113899268
Bi 10.171237380124184 3.9599415135487104 3.4906541075416846
Bi 5.278990680379389 0.8742769842548417 9.152957303763765
Bi 9.009748983418387 8.322589997020641 4.470333313521469
Bi 7.313159873377311 3.139647880671936 9.372445255989195
Bi 10.414021662997639 8.705134151261102 11.075544354337042
Bi 9.392423075208814 10.960425080436558 6.681025169830819
Bi 7.072704562631784 8.159510067997017 7.793113187105365
Bi 5.607182707761417 11.84796171906615 4.423584398658513
Bi 8.785395897421996 0.3072162101676948 8.908374480301982
Bi 10.322616546834452 5.70771599390181 10.227236289374236
Bi 6.034413035816051 5.837424303812097 4.952976316056716
Bi 2.493751698175432 9.316293100644733 2.677078401935643
Bi 8.138020523615621 10.41641240969034 9.525556804462052
Bi 7.148961597076822 4.641035936863446 2.4527215405832092
Bi 4.465174075560949 9.107544131711277 5.013399645177831
Bi 5.648175729016824 4.554155233254246 11.825554387303637
Bi 8.487085365126587 4.007234321155368 6.19057198856424
Bi 7.761376820783801 0.9728347262733295 6.152589219254441
Bi 5.2960044554944945 12.392303701207522 7.430377706601717
Bi 7.6312983719750624 7.005418192182772 10.63552350335889
Bi 0.06312889766799444 8.893477646323888 4.415813169263979
Bi 4.420553368356928 3.699598294997418 7.883233195212511
Bi 2.6291896914527495 10.866682016027244 6.730996393089023
Bi 3.5343001724031997 7.025161455509582 7.971352686842736
Bi 1.1926918576153618 11.681784995039761 4.085108056602394
Bi 4.96854722440062 9.93785940818807 9.264329567603038
Bi 3.714132236478602 3.8525318878878676 4.8698343453625235
Bi 3.9733900242033973 1.9642119124037767 11.691591470567149
Bi 3.1083649795454407 6.123144084401368 10.909644676106998
Bi 1.3640538800227808 4.877950878376283 6.590224858801755
Bi 0.6384243911592709 7.75863104747079 7.231529041548262
Bi 2.0178943595687815 3.5045180911856577 9.819466962810916
