48
Energy = -175.03376719 eV
Bi 9.416875541607615 3.6587078575895657 2.409802826186456
Bi 9.501029086717528 3.8813081026202108 5.450281104547211
Bi 7.502648632661737 0.4243902012501461 8.37368569695664
Bi 12.46885901809334 2.833283424694132 5.310334746984236
Bi 12.965772365825664 4.096476931723523 8.016859717150123
Bi 10.203923754683503 1.6533135253742077 7.710958379542502
Bi 10.703682839324726 6.401162434453341 2.7819873618866606
Bi 13.357216299947025 5.491094155931433 4.064293534157292
Bi 8.659880376379597 1.96089227542999 10.744553307585758
Bi 6.710520951453593 2.652693231431193 6.409079490240142
Bi 6.703406809630973 4.9675108889188815 1.775125589829162
Bi 4.741041651384073 3.490030562822547 3.6686838488955504
Bi 9.956600688222913 4.35502680905472 9.12460897123406
Bi 6.731536505955234 7.124001821596116 3.924378223289262
Bi 12.822173499631925 6.908626728899121 6.767589277237147
Bi 6.922206891662446 5.172326613101327 8.046870958158427
Bi 9.970031776799305 7.374689656334375 5.701102855782423
Bi 4.25064930473411 7.633655666313613 2.1841932638597146
Bi 1.7497464958182687 4.320639816712387 3.3228881900366787
Bi 1.887924763747209 3.365440991447246 6.23325298518793
Bi 8.087973557664954 9.484119832937289 2.456955398584332
Bi 6.129279242418872 3.735785907517926 10.605069980959321
Bi 11.290780286767626 9.836346497247778 4.434524933252228
Bi 5.896910728522763 9.46507030467564 0.33802406302020815
Bi 13.964063350192928 5.697785562146891 6.899486860715508
Bi 1.675252161984264 7.0689346329252905 4.70068344226192
Bi 4.146613879267192 5.480645710252042 6.023843030355704
Bi 8.439394078888329 9.970670188585046 7.961559900256962
Bi 5.943095762632124 11.67550776630499 2.465638238905751
Bi 7.570258978373514 5.108664962003351 12.931595162425806
Bi 12.473040569331914 11.01208758156613 7.029101409225623
Bi 11.235034490740306 9.121425424087498 9.10114439139423
Bi 4.978121461324403 9.448055800290629 6.106391081554899
Bi 6.005157259571889 12.334023770366892 6.011153046100781
Bi 9.731491713311872 11.93115303560011 6.00313256303635
Bi 2.81110491408218 5.1547031001444745 11.006365548552406
Bi 3.46442187263117 10.238915480109874 3.610313959833296
Bi 4.6153094826331404 7.635671563893286 11.05719536776369
Bi 2.1712188430743953 6.97040047919396 8.618889277651082
Bi 9.648437405719422 11.44738926886138 10.30427521236297
Bi 3.5030194985064567 13.416643658557913 7.423193140048234
Bi 5.486393025695469 7.065549535500464 13.965265802994772
Bi 5.793615399767964 12.470381312625028 9.118021542357011
Bi 9.309412351153618 7.42607616823517 11.966776743464605
Bi 3.4640849457361136 10.56177013410732 8.57044433841085
Bi 1.600565152627246 7.870312300316627 11.506115138536368
Bi 7.375629227602324 9.738791179258508 11.479216633631394
Bi 7.9678247144830445 8.89592825119448 14.313174567801239
