40
Energy = -144.86887487 eV
Bi 11.473623285597975 5.547925361070323 8.043330603350517
Bi 11.896184192835848 2.537519485681572 8.264151655259115
Bi 10.285888692230069 4.015678030868579 10.362669533018224
Bi 10.157494144410926 8.15768736480346 4.410678785681352
Bi 9.320354643068761 8.206319886010474 7.318866433306915
Bi 10.633498553552936 2.867748571764947 3.8522335638369714
Bi 7.60946239306523 2.565672825790294 9.84242352969611
Bi 10.842247134817118 5.66473841693354 2.687637450951012
Bi 8.498803455958043 10.908066788688043 6.054504214588785
Bi 9.517392266912363 3.5595569663511184 6.685007380596156
Bi 5.213791365024202 9.814486237313197 1.9991647108800434
Bi 6.388247368130086 7.296644606091443 10.520658915199084
Bi 7.421372212009925 1.2383507697154088 5.417174147312095
Bi 6.046826548670119 4.465311545635949 11.681609361307274
Bi 6.005992681874136 10.323763436647196 7.793266236613899
Bi 7.0336887834996356 8.776882717681623 4.279704750376029
Bi 8.741331195294249 1.826897382780921 1.6004289145149797
Bi 7.836595283119634 6.015883658331429 2.6412481151243474
Bi 6.298672501823098 7.234098916610075 7.4039836043529235
Bi 6.913297896456655 5.766163118963756 12.999105057064194
Bi 4.067497000839662 11.408625206137371 5.695698719201142
Bi 3.942607536615123 6.683737953715887 3.8521748768531263
Bi 4.403471524870021 7.205839288360068 0.7435321801111175
Bi 5.60906782627357 3.818489692065286 7.867149380853252
Bi 6.02527419458563 3.8207620797484254 4.397044521087997
Bi 4.72650920152709 0.9980783253341258 6.860984724777841
Bi 7.28076183379903 12.622117998730111 2.973746442668243
Bi 2.8188512275002484 8.95140776009773 8.40614478321686
Bi 2.567387843375449 9.419127001359913 3.920725662793237
Bi 3.438856912045543 2.015645306591003 4.278665219470319
Bi 2.9492398841816274 11.455185767072306 10.266320730720519
Bi 3.3706341081181113 7.0516971926931875 10.810297244336594
Bi 5.949612391150383 3.0849874223605056 1.392694208023052
Bi 3.4311368698548628 4.0712808114453125 10.059175790872022
Bi 1.3246067754268211 5.124189984542357 4.190903210024641
Bi 1.9715022637265556 12.622117998730111 7.660574647619399
Bi 2.713539553202242 5.632078643941872 6.83824353617502
Bi 4.51042771047045 0.24586558673518383 2.0571125288785597
Bi 0.6615221221817014 7.5942184458684 5.8729125974737615
Bi 0.3193257332064478 10.529499421666639 9.120075656122143
