48
Energy = -173.81193144 eV
Bi 10.694229254676328 2.216789633233589 6.654530713956817
Bi 11.100173887890291 5.157212868200766 5.827824472206374
Bi 10.769418778612355 6.89020269340091 8.346774330355922
Bi 9.390889236537857 0.6159229379766309 4.358620936520561
Bi 9.89037552880499 1.5078600607352988 9.535379634822041
Bi 10.232095084723351 3.1810860557740037 2.836034475345773
Bi 10.15955381217202 10.87000515817421 8.365946519997577
Bi 10.068163598734516 4.289583411853192 10.780287818902345
Bi 11.00749161495735 8.985466018791312 6.051595040900278
Bi 7.979446079506823 7.377764710547345 11.957619053041178
Bi 9.325551777715283 6.52699566431642 0.0690349378958779
Bi 8.669574568871816 7.004967134555573 6.122311779427907
Bi 6.6789806681569 2.6503472010865536 6.99638879691115
Bi 7.843298160838257 8.264138150713077 2.240058887268588
Bi 6.7624230563415155 13.554603168453886 7.28775301587428
Bi 6.758970821228147 1.3156865176686106 2.921919819859615
Bi 7.3954729223087865 11.98726620685242 7.619842482859566
Bi 7.47148330077256 4.200388257483969 3.6950858254705268
Bi 6.863197357568018 1.4289328864519995 9.773631597615486
Bi 7.701506507055511 9.245694231942478 9.056557142403124
Bi 7.479762541739815 4.390979706264266 12.492721739725356
Bi 8.005390900825047 3.850990361009537 0.729325485489829
Bi 7.423344577502269 5.416114397920274 9.654204577953994
Bi 6.900955248727939 11.677687493077732 10.671250173847145
Bi 4.9864407016840975 8.022198651488269 12.293047072632808
Bi 3.586641820299477 6.946334778897271 8.207905689464226
Bi 5.2593777578357725 6.635370557953782 2.742422372705469
Bi 6.898657531416079 7.404184394908754 12.492721739725354
Bi 6.032581851604864 10.049946128963278 0.5005827321642763
Bi 2.709476154402178 2.6665396329578157 2.6951932291522316
Bi 4.121936603272543 0.2906213986959116 4.0527091843805545
Bi 4.099381031264142 5.43988190339027 11.047334937959675
Bi 7.862097161367035 10.3117561211931 4.724393358295926
Bi 4.041433242304329 1.1047715351520793 7.023317058832756
Bi 4.7761680139542255 5.680421828924664 13.80467498096171
Bi 3.561535494543302 4.484617681977609 4.95994039124328
Bi 4.114082073212724 10.434680002534966 10.5002540398641
Bi 4.879302744561208 9.314124095147285 5.279805076324776
Bi 1.4884714471046279 6.967184885571516 10.37131636066525
Bi 1.1635184888973056 2.5791888870479474 5.3622295601913486
Bi 3.4952181879886743 8.388281999047338 0.8698452443081027
Bi 1.3333102253236602 6.151010623536044 3.5935187370463035
Bi 5.547356805175253 11.574705320353367 3.3044421046165615
Bi 1.5128036062898707 4.706159148687622 8.293467893348726
Bi 3.6993897411010566 11.112185502171977 7.510643653475628
Bi 1.5340234687415129 9.051857642303224 6.990974912720297
Bi 13.498022210316904 5.23489947552366 5.9342017730582715
Bi 1.9510989298350296 9.113152564481792 3.992525692664792
