45
Energy = -163.79129964 eV
Bi 12.974694465097757 3.989491819818337 5.525671760911614
Bi 10.488897750371814 7.307050691877968 3.0186541727988225
Bi 10.171922431099812 1.0270370773541084 5.67985574613377
Bi 11.438592285137819 6.629556447988826 5.83584851623717
Bi 10.84533389338587 3.0614897272134347 3.490499845419074
Bi 7.548435104777535 1.4879411682074575 8.466680810535781
Bi 7.271317630660696 0.18866140823968436 4.859395194698589
Bi 11.428283865068412 2.769427668756629 7.876816683911445
Bi 9.990494662398214 7.973709137271869 8.871351547873621
Bi 7.454253968083307 2.059310108730082 2.468549382320242
Bi 8.86707778101328 9.519176596547616 4.404060707915913
Bi 8.969618110280585 5.220219015610392 4.584874231501701
Bi 6.580006349218169 8.634196025165544 0.4334632556518796
Bi 6.33962282524553 4.713565124038271 0.30173173340156695
Bi 9.154613899676624 3.8098510019753884 11.476600981639208
Bi 5.566680873185135 4.354616575789593 3.264751775689172
Bi 5.0683366918072315 1.2724908922275944 6.63928814212389
Bi 6.710323976257838 2.038801581665371 11.322751310525533
Bi 7.683511869249857 7.989895688887517 6.798953333296446
Bi 6.203251551035382 4.071324553272025 7.304017308291337
Bi 2.170453829840451 3.1607020808611233 5.146904113588352
Bi 9.287984354249772 4.893874320292409 8.529339376397195
Bi 4.3713905576617575 6.8648270561856055 13.031101550239825
Bi 4.88014172401885 11.142869004506688 0.7050526059483013
Bi 4.293623108383031 3.552491664704693 9.690022516527073
Bi 3.1344823533098447 5.764064689813617 6.422419383256442
Bi 4.683177926129234 2.325242098981667 1.212051283158139
Bi 4.786461381853803 7.662179359954061 8.886523888130817
Bi 6.3577382856571125 10.808031721712428 6.971925563421614
Bi 7.022558386638786 5.962106467362055 11.12848913222249
Bi 8.578865991391107 8.506953996673479 11.574449646593681
Bi 6.214406117688833 8.260609961573241 3.509815020057946
Bi 2.796971114138053 8.933045953164834 5.067218269069318
Bi 5.660627589042109 9.423836744982582 11.274607771115226
Bi 3.0892828931215317 7.115614145090618 2.125425365696943
Bi 1.506335164069685 3.727519947197781 8.05332894237476
Bi 2.938346584992198 6.116081759555767 10.791818393533575
Bi 0.013664259119362301 6.817353572700666 2.3166814606304076
Bi 2.353045994215568 10.041591689523907 1.7645447166612542
Bi 4.854795805348412 7.01598937536884 13.031101550239825
Bi 3.5207076983312753 10.254113403378087 7.832507386077988
Bi 13.204500764708433 4.726558081009476 4.536071992138419
Bi 4.970931158375763 10.9940967662186 3.948637193124824
Bi 0.16708006185091298 6.783126887724699 6.7136376704637915
Bi 13.468886703357764 8.967351135637848 4.5075969396040465
