46
Energy = -167.61080504 eV
Bi 0.5255467801369711 5.626154671782261 4.188107400377296
Bi 6.263610013265898 5.328468369830717 11.895707057174727
Bi 5.556374648829622 2.7691882375242214 0.27543185083564814
Bi 2.147340611910511 4.553557128101591 1.822209759511536
Bi 0.10694783640225573 4.684294899089799 8.040124193352067
Bi 1.0033160981160067 2.617821961774563 3.855767538891078
Bi 1.4916078645618045 8.631601479104365 7.9569249010190175
Bi 5.41900687682392 6.944563196480619 1.4091408633191485
Bi 3.6310912742237886 8.515944863595394 3.521197690278302
Bi 3.250344246194825 2.7963285034701664 5.972067651353714
Bi 8.575770097020694 2.773718045739018 0.7367561582657975
Bi 8.857790098210453 5.7549995065222275 0.22186547341095683
Bi 2.477155271199272 6.064580713575466 6.547700613613779
Bi 9.265549216154016 2.125892938501175 3.6617140007438667
Bi 6.213473877735198 10.076481839045272 3.9680435049256113
Bi 4.974696523707059 4.323491196074446 2.8669177404170734
Bi 1.3516658962015653 3.0600189118115235 10.296802056738857
Bi 2.7887662156348654 7.30438562151932 10.568334343374337
Bi 0.8460446917808789 1.7661121959251138 7.588805243868636
Bi 3.987032822160486 10.10505795253804 7.179119661764615
Bi 5.890976404794376 7.31394641745164 5.187465261321916
Bi 8.019720084611023 7.685968226331172 2.8569512108937434
Bi 9.1510280000803 12.16414234106094 5.699546502201041
Bi 5.5738120791001 0.7830658365647093 6.28562665359663
Bi 4.077048810977289 3.8670839799859866 9.293741325484964
Bi 3.927405885985394 11.90064310139357 9.614577480839458
Bi 12.170693039197598 11.818693790855853 5.8053065692239585
Bi 10.500353064100146 4.9219019530445385 3.640246156597448
Bi 5.320230747471898 7.663084024201853 8.78589857443061
Bi 7.294868312041363 3.2455952620717605 5.68794326253249
Bi 7.964606062376184 9.95699501560676 7.473694689861169
Bi 5.493044081385311 1.1554508422714236 9.34202265090555
Bi 3.876572721655689 9.85033761304393 11.895707057174725
Bi 11.893039584362981 7.828890845109566 5.2754428247568645
Bi 9.26627032870591 6.424019689508092 6.076990551407039
Bi 7.023137143329782 11.779166039377085 9.759249906808595
Bi 5.226020879964411 5.341997034884274 11.715288057376869
Bi 10.6933190632468 13.048928343141384 8.18453314203934
Bi 8.07892877438872 2.603110058811609 10.014304092219234
Bi 7.637484279086437 5.664380197347685 9.985901321901224
Bi 9.549910993897166 2.105616246173107 7.4109015039466675
Bi 6.75365150093956 9.065602214933485 11.155561488657675
Bi 12.700087332127865 9.489963513884835 7.678715567748392
Bi 12.841714983018749 4.904506698419051 5.645199612896975
Bi 10.312580175583333 10.268156571225099 9.443345714939284
Bi 10.932734049723706 4.740343245517437 8.050251181074001
