48
Energy = -174.81593438 eV
Bi 11.756421076979956 3.6183988835928527 8.25144606629223
Bi 12.608091482547614 2.7267324259623242 5.498948093251761
Bi 8.295304905536701 0.9001810566631293 6.262255601786831
Bi 9.17449941031835 6.744869892046614 7.9146484064909615
Bi 12.110050972123926 5.692627568870087 4.583869987854725
Bi 12.161701584056125 6.713083671026735 7.434898997031807
Bi 9.098718134942038 1.8201404019563097 9.003369980618762
Bi 9.997095255438726 7.4876435317261425 10.751998416378754
Bi 9.777155849007604 3.6783132196743074 5.802449964222789
Bi 6.7559483893333585 4.726964568325496 12.10050203437723
Bi 12.61734419257737 9.31356029297325 4.96217420716375
Bi 7.698740288801686 2.4189651269252215 2.539691500759979
Bi 9.629564138090148 5.428216122174633 1.7215546504530912
Bi 9.646084300282036 8.481221610196716 1.3846988055666976
Bi 5.566262090790838 2.259254054381689 6.113762248634538
Bi 9.675442939780018 8.317300391995898 4.404302107662343
Bi 11.71553686326407 10.995209279819589 7.33177596767941
Bi 6.836341148511514 3.8799044676457304 9.174250715962
Bi 5.537138726149906 1.3336338995297539 10.351663217127811
Bi 9.29647222331359 9.700208557824563 8.75889755466195
Bi 7.110480414567188 7.7208523669177875 11.686379883175258
Bi 7.168209322277092 5.290259362105863 3.5070874651203825
Bi 6.8887592331708 4.606969026843546 0.5777633847206473
Bi 10.354759831539056 11.334181236660338 4.644810526567832
Bi 6.360169628726055 10.82284651505091 9.396553273460134
Bi 6.628197529083395 8.610283531181615 1.6461414311818254
Bi 3.700950190093355 5.1068861836654005 11.977230669308476
Bi 4.300853319994611 0.12152330517590325 7.869008160797134
Bi 6.446449047575981 12.161479042958739 6.74585849882175
Bi 3.2845641424186915 4.615539961861356 8.973989066356632
Bi 6.452044269356412 11.545075438361932 2.4369809023072992
Bi 6.3611064694592265 9.617892350955943 4.745544433762055
Bi 3.55845220018035 5.961266174901227 2.1306669768646844
Bi 3.0174890855722576 3.3747718797192627 3.687343021363987
Bi 2.5530443846566073 1.764157533885197 9.745534042101488
Bi 5.061382643699472 1.1111523056683095 3.319945704418628
Bi 5.538045756628213 7.882153138790967 9.020173209288977
Bi 3.2196858322686635 8.019711355917934 11.073372826614968
Bi 0.8874708375718324 6.297478021341065 9.984597800858957
Bi 3.039141556102418 7.751079321371073 5.637546676717645
Bi 1.2720249130864099 5.218536695156194 6.092462137623045
Bi 3.503352202527263 12.088527549867448 6.057481961707223
Bi 1.3353021844756003 4.057831537164897 1.2779542769676908
Bi 3.7409117418869062 10.495185104408586 3.3852847147906564
Bi 2.6669689799893606 9.804911552791545 7.9579472387325225
Bi 12.61734419257737 7.050697377656737 7.488764359520076
Bi 0.6723792552304733 6.304627083681608 3.2283318667780803
Bi 0.48198596321435117 9.412427596216734 5.920384800236449
