47
Energy = -171.8103695 eV
Bi 5.769399790708719 11.516123239577043 10.816707227295085
Bi 3.2618750091868063 11.084488081773255 9.105019381851248
Bi 7.339531086476025 12.132237372498546 6.530623732636544
Bi 5.638779588319696 9.023636649723489 12.617324389939405
Bi 2.4019898925167906 8.737269442348762 10.696530715495962
Bi 0.7958123505099323 7.20505653116869 8.582386473505055
Bi 2.630724668823048 10.623276735976681 5.66360866820745
Bi 9.127850359141807 9.341882687851902 9.668916459636177
Bi 8.84393071803173 10.91006220608553 2.8872661184723554
Bi 9.597442250992064 10.204441140009093 5.789912760080397
Bi 5.94643110326074 11.378617244302003 3.870118114760527
Bi 6.231808255818197 9.908240136827605 8.2854786211062
Bi 0.12153284168261612 9.430597449102184 4.403848121599725
Bi 2.1308485681756317 10.848877562803855 2.607547694010227
Bi 10.24156076582286 6.9754992951603 8.055456801884072
Bi 8.023718680500743 7.422645218195276 11.578172207365299
Bi 5.060452659381228 7.088699113659627 10.301246976675449
Bi 11.180266378337091 7.014844579864181 4.425544051068031
Bi 8.22683337557759 7.479576140031457 5.21892522214526
Bi 3.2454300799412183 6.206708625406703 7.1070249716437335
Bi 10.18401264190558 6.279045044197648 1.610684824970015
Bi 3.642590517044849 8.15402279469658 2.2128823942712486
Bi 4.893047213795617 8.67887874807503 4.951362629695455
Bi 3.5518582858397396 4.950149744708997 11.823090131174984
Bi 0.9667903078277823 6.8828747885432815 3.009675305775848
Bi 7.789871168129453 8.122295865158586 2.2041212408750948
Bi 11.521822121896284 4.086470269438165 5.196912275365963
Bi 13.029982121967448 6.631271106176661 9.214186979208872
Bi 10.774707803662984 4.821207013935648 10.142310919423553
Bi 4.190375449154489 4.311440640196661 2.4250530106345787
Bi 8.58148262831171 3.8814850179111153 5.810526907581386
Bi 7.888981076018862 4.4925379873154 2.6126196800069876
Bi 7.256134632248512 3.9301439186084712 9.104054550404623
Bi 7.45226136280446 3.5103767569579976 12.617324389939403
Bi 5.607938385679919 2.705522699905509 11.407214232457502
Bi 1.9391935546331218 4.438774854628081 9.24970148444102
Bi 0.9485516451051135 5.074116902543506 5.451370215324738
Bi 4.858201628968017 2.098841051231716 0.44880026918921756
Bi 2.2197852255817674 2.655686328602843 4.056287604922451
Bi 12.744986262329304 3.861474754464146 8.031516667592005
Bi 9.095472060500667 1.8967131776431523 1.6278211227954225
Bi 7.831702665074124 0.9328410362719844 8.809516905203058
Bi 8.662856293611783 0.8453956306357269 5.836279027826026
Bi 4.983905472479237 1.9596204227413792 8.522408037544343
Bi 4.917839707617939 3.3343508708145277 5.26274620663552
Bi 5.798380341141937 0.42797452124422874 4.8997741480399615
Bi 6.61069408919954 0.1497359369463574 1.9862236890080025
