47
Energy = -171.32943908 eV
Bi 13.355516943861147 8.54452559333129 7.7189229748494
Bi 7.311483976201905 7.585546318528006 14.424140496092328
Bi 11.705122547141716 3.400639300075099 7.653127997302636
Bi 10.526957704996667 5.889252051491182 8.996329808386282
Bi 6.825651347678695 4.751894259244281 13.376825736835716
Bi 9.152647872991453 3.2004083276220414 9.30619249406031
Bi 14.199948867280998 10.99952436512708 9.298423464324875
Bi 11.878190046419634 9.298207306486015 10.29285142936184
Bi 8.264891176154755 8.243010581725766 11.57043280067826
Bi 4.506653307790025 6.508802437074685 14.199515393674432
Bi 10.208179848376972 4.15635628812393 5.024999757336439
Bi 5.626271322113335 2.239789881985325 5.213461081396098
Bi 8.604808465819977 1.5754141609891208 4.95417737354598
Bi 8.181920120363952 5.150480887764155 7.123722079488148
Bi 6.592135028082969 5.906268341441466 10.492018932348882
Bi 4.059978480947366 7.422896890973726 11.286862721397439
Bi 5.207392997115446 1.5613918560371465 2.2100440030450255
Bi 8.91139787449822 9.215985683125155 8.075294358415306
Bi 12.260606086125682 10.105739721122562 5.363811476824047
Bi 5.436362403961499 2.647567403424964 8.873834332817632
Bi 7.208573404246563 10.746111770166982 10.128745253539126
Bi 11.40283398201629 12.180690639034708 9.400923172532961
Bi 7.643473994388854 5.500451769456847 3.146140945557371
Bi 2.769892921247789 1.2700014382445106 9.210702367693289
Bi 8.243088892755322 1.0784058796104108 1.9543719115431135
Bi 5.188453481164912 5.274622272937434 4.937344035676803
Bi 10.2020773517311 8.027422251651956 4.34502196930143
Bi 3.993211641362389 2.729307869602687 11.624105497261867
Bi 6.810830583076025 8.494827530838142 5.93064254755177
Bi 10.254657822827141 8.663754627965627 1.3523879004595436
Bi 2.189501742803248 5.042569833227233 10.852234954244569
Bi 2.9012013554001963 4.108964766839863 8.012034886823638
Bi 4.449328377618741 10.421565992205588 8.84444613535108
Bi 6.9602906159524265 3.5979866576977764 0.8580216565393332
Bi 5.996084917373699 11.445909146198375 6.396523173242692
Bi 10.055373880170674 11.671951706061627 6.716246186500716
Bi 4.069669079717856 8.639297884382204 3.2215095233359867
Bi 7.257708606356923 7.971678151681198 1.355009225019649
Bi 2.946078661649485 4.3604800420405825 2.984049242468751
Bi 8.389143159843648 10.194649353767105 3.151322651617976
Bi 3.854778312306768 11.669864008611949 4.242124960623408
Bi 4.623481623178731 7.519034291255121 7.873030962748783
Bi 3.278919895293063 6.392765351040304 0.8698228530535247
Bi 2.424927956401592 7.589248918288114 5.662871479305654
Bi 1.1740544584712547 9.371134846082214 2.7007566316763594
Bi 1.4060616153677066 10.476108027777002 5.577934723558421
Bi 0.6436570151324691 6.310965083418044 2.3501582063682207
