40
Energy = -145.69567193 eV
Bi 2.168732060278449 4.152752799980952 9.44578717152282
Bi 5.3814568796151265 7.213567830372844 11.858972892735697
Bi 5.843318483048802 2.673206238851534 10.955430342932026
Bi 3.1370158401003043 2.578519410377364 6.978322446013154
Bi 3.1526471686224595 9.23963563544496 10.427985748071785
Bi 8.42370449438576 6.20183539698928 12.013330384247752
Bi 6.695361608972465 1.3983033693673363 8.318596375074183
Bi 6.050761023287825 1.7454309990510808 4.055896340269541
Bi 1.0013828028944332 6.010293610895142 7.3173707940956785
Bi 4.9972166135377565 5.247449697093939 9.54775421290613
Bi 1.4587908249656765 3.4487977555452547 4.518441247757146
Bi 7.014487243379971 8.847476677444337 9.823435707926382
Bi 8.747070195363738 2.8154030681376994 10.056996452748464
Bi 1.5572829366498548 8.983847353824395 7.900328276138718
Bi 9.2145085393192 9.133857620123035 11.99092664893381
Bi 11.673491483683229 5.645049793696166 9.844405433824722
Bi 11.960038457307437 8.514855825603755 10.846559912921382
Bi 5.911496709991677 3.6821691323450088 6.423637846176512
Bi 8.737799355648411 5.708341542087132 9.01073463434222
Bi 7.528952995403552 4.0133034663226725 2.5521491376489203
Bi 3.6889099299501 7.208785158211552 6.56044524040793
Bi 9.61887029905636 4.205676458088578 4.6885879522786365
Bi 5.034951431943045 11.158789572654092 9.196213196616679
Bi 0.8340863297815186 6.117143545909511 3.093195661345013
Bi 3.8755207952423105 3.410674860827589 2.6852055100695553
Bi 12.889958983214939 6.626580968936274 7.186714381264283
Bi 2.2573104965729724 8.57917144936231 4.210043803043364
Bi 5.9546018501949485 9.875369385842736 6.47008653775637
Bi 9.462720270490037 9.82227445806542 7.316533743384586
Bi 11.213668979835344 5.343682539345317 2.3658631183627206
Bi 10.207148420893525 7.127394267152961 5.755613445802967
Bi 7.017236377725833 12.411986049315162 5.144112234530845
Bi 12.479778709448777 9.532377611603046 7.988961784942115
Bi 3.324298132025757 7.197488798746012 1.6903446377862117
Bi 5.3615060765559885 10.494894649862337 3.476802093728872
Bi 9.66685436234995 7.757628076360423 1.3015996112858899
Bi 5.283465116904069 5.941643308876891 3.689187543213201
Bi 11.840738984100295 8.202806124137169 3.3325074554487424
Bi 9.662367144329592 10.928081471261546 4.50931808372321
Bi 7.8435565962463105 8.569075460439933 3.6849761052591408
