42
Energy = -152.83012773 eV
Bi 10.854785193777943 6.462138089073031 7.632659711317579
Bi 10.892088706343936 5.399829204815331 2.1154901825443613
Bi 9.555387855102847 3.680495774169222 4.3189709887573535
Bi 11.338286978755612 9.536906048433181 7.9480638047323104
Bi 10.766574914703094 2.8333069008730165 8.642847211317937
Bi 10.947996574529268 7.835386979025458 3.988224343364214
Bi 8.81637228885172 6.387425212352488 9.882945956268172
Bi 10.79084541289471 4.420886275323702 11.209709982077033
Bi 7.968203959023205 2.8209870146007505 1.847435675742931
Bi 8.660908933390836 6.39715228608255 5.482566976757318
Bi 8.228045363770228 5.560518129621192 0.5315315366161569
Bi 7.765558407450346 9.872532394252662 4.982907039655565
Bi 7.041111071620604 9.336395705387435 8.347740100611697
Bi 9.057529600328033 1.9449960218881166 11.01690073613585
Bi 9.444582275331356 9.392575789114503 10.350272432857965
Bi 9.014088701331824 9.068905308599016 1.9366415623474564
Bi 5.963928220434648 7.5247054567190546 11.779642264230182
Bi 6.917099557832006 0.6246942645642922 7.040927117204592
Bi 7.832792853691017 3.50915509117373 7.56525258189954
Bi 9.039870344222528 11.4212710315137 7.257764993384231
Bi 6.677630260801414 7.230408628534016 2.576037616858239
Bi 7.246817949600807 11.715201880431911 2.062012121824785
Bi 5.349391461067813 9.566462664821076 0.9905934262282892
Bi 4.946173948063383 11.375790679517266 9.138662359431576
Bi 5.35718222658238 4.529693204229191 5.4750888585896185
Bi 4.606990237444467 1.5673034858991097 8.74563776747878
Bi 6.416955195769835 3.478658303550004 10.303258141480038
Bi 4.9893651680091144 2.1606750227803175 2.046528156370994
Bi 5.544298601223054 11.928223835499514 4.672536663700529
Bi 3.290839563964879 6.793800162685802 12.999543898440411
Bi 4.806733784976317 6.350517279624446 9.091839646748173
Bi 3.941981444522481 4.933322993288487 2.678853491324404
Bi 3.8471591552445883 9.69763074786306 11.680259322765965
Bi 3.497466171938667 10.055657128555959 3.419298513959922
Bi 4.721748685074795 1.5794696057309865 5.112430597517009
Bi 4.30334546340311 8.07239158311021 5.622583495820689
Bi 2.8229851554911183 4.056817136333915 7.096228939898383
Bi 3.0058324281837825 10.428128573687484 7.096467511880734
Bi 1.418931113241195 4.463683172746605 4.322918182425573
Bi 2.348665396174406 5.290997364354225 10.586391112602621
Bi 2.298506892662176 8.177189539509447 9.376796394374072
Bi 1.5273196180168087 6.924921154037853 6.11131332956588
