48
Energy = -175.36345841 eV
Bi 2.028770628485469 3.462282497666133 2.8619273049697878
Bi 2.2338578813497003 1.8381851638119304 5.4857281565055755
Bi 3.200330230748707 6.09954497436475 3.9358529166329244
Bi 3.841743270299736 6.773241727131937 1.0306921783769674
Bi 5.130714146336694 3.371072733995836 3.1526824444290478
Bi 6.513981170245676 0.48109850696066514 5.932446163797746
Bi 0.5797894112912899 3.7555455236278408 7.194296139578532
Bi 1.786154661900491 3.184938790890451 9.857248191952124
Bi 1.9044827586842117 8.892047420048925 4.188030058951484
Bi 4.8253069643468365 2.9621888630213866 6.646862640990496
Bi 4.075907502054494 1.3184767596583247 9.12233358740139
Bi 6.41234503423295 5.128146044224963 1.0037266380276821
Bi 5.853798214484019 8.977380636091086 1.7519378877735232
Bi 7.1368776036711905 1.0996093842420889 2.9961452093114986
Bi 0.4829712732457887 7.419107921109057 8.818912086143985
Bi 2.351492763053973 9.239642622246402 7.208990642101402
Bi 4.946940078602449 9.16025880507456 4.73373362845802
Bi 2.788905340624672 6.017889978105587 7.44351796814845
Bi 8.339720094283422 2.8101407827863585 6.828140418176594
Bi 2.8605067433597933 6.37291003425463 10.501363964842234
Bi 4.99781155954412 11.939336778941634 1.5989051134593428
Bi 9.89048762908581 7.716877392794163 2.809389880187816
Bi 7.474539899968381 6.030117142845536 3.7446156548659273
Bi 5.38932510189095 2.85112271250108 11.410502392880872
Bi 8.374353630203249 10.002770233888167 4.192866807584689
Bi 4.510531828510486 9.017767554456048 9.754115948901314
Bi 6.633389923362331 5.180998744872709 9.878521073167581
Bi 8.014709713518227 12.202201472339222 2.085441246651402
Bi 9.05364649964504 3.366362926778262 3.8983391995076735
Bi 4.325146182839201 12.172286502134334 4.61123276278636
Bi 10.617366479069716 5.406002630866219 6.906338862549556
Bi 11.348898038917106 2.403148424111585 7.064340488758733
Bi 10.466596980150827 9.089814133234347 7.122127253012249
Bi 11.982202481296122 7.416040649901631 5.029789503459145
Bi 7.646746115105452 6.568838707261001 12.392662232061324
Bi 6.968160688556899 8.50104665379146 7.933810950840612
Bi 8.462389858046299 3.243711521664461 11.428371210473818
Bi 10.739776749764303 11.559079945264696 5.334898067504658
Bi 11.011119479033557 2.1210778147591567 10.08248355501209
Bi 6.894189048611339 13.860818582457139 4.384601861136462
Bi 6.255971040204835 9.302381720434626 12.25927034478886
Bi 8.668473419682357 13.201681613116197 6.806636955115965
Bi 6.4435723628252815 11.491690910617478 8.066066572538448
Bi 13.183588059477106 5.937597599506332 8.53383773631807
Bi 9.829537422036367 6.677026508402085 10.127342394828332
Bi 12.218465107968871 8.629553744423836 9.615163532377192
Bi 12.057463501975256 4.790515500308425 11.129506092379625
Bi 8.297264331311826 10.18204038638146 10.16178463839638
