44
Energy = -159.86037742 eV
Bi 11.035229980885022 2.286724493180255 6.972962667648259
Bi 7.893603436774233 1.0220026446653825 8.721520797000345
Bi 9.016502111404352 4.060440929397045 5.467139927086825
Bi 8.069480091219523 3.0066389788552716 2.7546442034708596
Bi 10.193302169869591 4.183049728289475 9.30490048842751
Bi 11.993083054926721 4.620268637418999 5.234360690961736
Bi 5.575833418230641 0.22937081112115587 10.50858120332617
Bi 11.789874856388268 6.379364190587834 7.772580177567921
Bi 8.1683085739406 5.938458690351685 2.0182750827095104
Bi 5.342098952690462 5.465470964817211 0.9533373648962228
Bi 3.9965496242532947 2.8581615059668826 9.548972854811426
Bi 7.590239472671868 2.231849164050781 11.493187592062482
Bi 12.467961866090898 5.498956890538437 10.965824403341646
Bi 5.939282919161709 2.867624844182565 7.18398759592749
Bi 7.132779098626624 5.409478992187589 8.360577651469788
Bi 6.632584057754884 9.368051008432271 2.573240528796976
Bi 10.759593422293158 8.299018720995443 4.469498629294893
Bi 5.481869218234613 4.52181328393225 3.8673175552156844
Bi 10.084245525331955 5.759538260133774 12.777703986346847
Bi 4.035747944203287 8.123775160907476 1.6230681831290628
Bi 7.008559713350121 7.185050283572394 4.773837598331585
Bi 9.398553945928214 8.32694212119404 7.2202937071244815
Bi 3.802555858500647 7.815903674484575 4.767775659784742
Bi 2.4330192671658586 5.101347797123594 4.759417290459161
Bi 10.16693570141681 8.767967318796156 13.185217403266678
Bi 1.797116795517962 4.096212127573813 7.50247093300231
Bi 10.033093905048512 11.233343720455796 3.925852070320051
Bi 6.358438688933923 10.07721991853627 6.978296868721748
Bi 5.883470523002188 4.808654917084719 11.053113060571874
Bi 10.740518630585438 10.896465340098587 8.242615811399542
Bi 4.768549231773388 11.767275555298754 2.9355378197037783
Bi 11.584906778944248 8.649359812281057 10.44949158879944
Bi 4.391961590357791 7.242727766162551 8.397508319341851
Bi 8.590391573337 7.868901865895249 10.734397934566317
Bi 1.6892751019267087 8.762107790828459 7.26045905113051
Bi 1.5780488283319536 6.517592936080817 9.295506408246577
Bi 6.544520885666737 13.893432499966128 4.149148383338675
Bi 4.7975076405345005 9.03186956921084 10.852354762387014
Bi 7.254195846315313 10.64052041004394 9.866684692700733
Bi 8.324765794553729 12.30230166615998 6.229353862273956
Bi 4.755095285259099 12.358994221065926 8.226633468471304
Bi 2.5478899902333687 10.687927156892606 9.511505658361338
Bi 3.8944855228674435 13.298774920240648 5.415783916494602
Bi 12.456057038210632 10.537132643654271 5.693146080423365
