44
Energy = -159.35499174 eV
Bi 8.027732446129543 1.7480141911929599 5.542705037650614
Bi 8.5690159337181 2.326286002231261 9.979495397121562
Bi 10.983801233435521 2.0973772760660676 4.760480768679877
Bi 11.063355798839623 2.99245704983817 7.660596232172588
Bi 5.980242089931674 1.9928092199472045 8.366812205756526
Bi 3.518598667836288 2.203314985191678 3.541708177952457
Bi 9.887285732190543 4.745760214988985 3.77234949373737
Bi 4.1872276185975235 2.795843104188504 10.8056715693186
Bi 12.841984077910608 6.917841877068691 6.902566627590764
Bi 8.980163466085374 5.417678611254658 9.950027411260331
Bi 6.416617925636286 3.6429906229239086 3.6551198004145955
Bi 9.943914325347878 5.6695103386552885 6.8560114527097795
Bi 2.476699159871859 2.976427199804487 6.292957083133116
Bi 6.810338663373288 4.392549137365504 6.589432678130215
Bi 12.343194859913787 6.525940551220227 3.8029843277690816
Bi 11.965571843982369 5.852306288460933 9.873698075949271
Bi 3.2396660522453957 4.2953925807984605 1.0386641452138352
Bi 5.644865237733704 6.217002526078533 1.2200935082979332
Bi 0.5272055205785625 3.2107956155018633 3.9979938444026613
Bi 9.166833683820418 8.13958477869733 1.1797216964577846
Bi 6.744728093733169 3.3407055306597577 12.349620537669322
Bi 3.863658754171996 6.504319473276167 3.7659411236674294
Bi 4.721577593582464 9.166693369540676 0.8167420506736793
Bi 1.1051299406967146 5.843783307216188 2.592765496391979
Bi 11.731113600164646 9.757486066026743 7.324291871503291
Bi 7.833732069763792 7.715360340902883 3.8762081833940196
Bi 5.506414368158465 5.510721223319768 10.59918861269821
Bi 8.855505316479027 8.941014738045517 7.913577558373497
Bi 3.4421043475860764 5.8365459383794525 6.918114340104606
Bi 10.62234347977367 9.021973596142036 3.7090472637636656
Bi 10.94670462963826 8.786743545610568 10.129430843761572
Bi 7.219690862979137 10.219649369467977 2.199442195655894
Bi 0.7972075222013992 7.144453053568444 6.039784809110085
Bi 7.271938889058997 8.705643797642967 11.514363412641368
Bi 3.0716594814247293 9.446008138438856 3.4017992945818767
Bi 4.830111815537787 8.683462288429219 9.539150709971999
Bi 1.639987739324747 7.280182291027192 8.979341481002253
Bi 4.898864925687266 9.393216836841694 5.8916475800464765
Bi 8.299199940473926 11.913274119869495 8.426442728331352
Bi 4.515264049600424 7.798979707110018 12.441014577582024
Bi 2.0665086552906935 9.721807590175091 7.155877167830314
Bi 6.915199730036717 11.739416447154587 11.184240443714073
Bi 4.170494072199673 11.64501316492063 9.742771552644776
Bi 5.551497662898968 12.214831847576361 7.061481201715875
