42
Energy = -152.71740676 eV
Bi 9.354975540604267 4.255018984322562 1.6942776774892119
Bi 10.871830779344705 3.214840410887627 4.197210198662513
Bi 11.400164682126645 7.984436406409382 3.457595619436258
Bi 11.237262637910252 6.291195191654947 6.004872430106424
Bi 10.3199869926975 0.3006124236401586 3.4543660817898836
Bi 10.154542696223261 10.049290714280009 7.669172824193705
Bi 9.235688512837843 13.369137054771697 6.177177256159949
Bi 6.775504064730005 2.780608569012131 1.3926108087443019
Bi 12.576564326896028 9.06179848938274 6.029089955030995
Bi 7.011646421673302 2.9409666754805195 4.7045472208569485
Bi 10.408784883542616 1.9891520887423497 7.066605521885506
Bi 9.28056510064281 7.467545884249212 10.481371884989452
Bi 7.525151369264122 6.105889012910913 3.32498663851685
Bi 9.414410085915668 4.701219667072647 8.997073832535106
Bi 7.616845438169709 10.820883196629607 10.354156149229377
Bi 7.3442715694551035 0.08961582340432735 3.7511312788996407
Bi 8.717268502937642 12.133198540263903 5.991747917807743
Bi 8.52307263889932 9.002684365539945 3.697001236127165
Bi 7.5037734354182115 1.5900991765277162 7.54350247173048
Bi 8.511273782830465 7.745938698530574 6.517144132376777
Bi 8.733207441239859 4.885290680950344 11.962515746306137
Bi 5.265896223261973 5.472963780869637 1.402419609795296
Bi 6.466118165968611 4.85266988830025 8.02520916845695
Bi 7.952604484774936 13.369137054771697 8.706152256096937
Bi 6.406794639574124 6.413365975986793 10.710731889957732
Bi 5.806707643755101 11.034056974165479 5.9638392612549085
Bi 5.964769833438694 9.11674720516137 8.355261837676316
Bi 4.589410659018149 11.388449892335437 10.302189910283204
Bi 5.00218892755678 7.6950631945828105 4.99310670769392
Bi 5.020831598675643 2.8270113461761053 9.861230590569003
Bi 2.9560333164713084 2.079276196987287 7.767081392039521
Bi 3.941457497497339 2.71294981410666 4.895948043346079
Bi 3.199377176780399 6.408989223309564 7.419940947962879
Bi 4.96144490380583 13.28567408266174 7.93493039497908
Bi 2.4075442125443485 4.342542652881448 9.716118756084326
Bi 2.587307078364581 9.029278874865655 8.97342765940233
Bi 2.7397146244883173 9.556447198630796 4.169613924342671
Bi 3.2647397881847877 5.465716660154916 3.7468854849754987
Bi 0.15185807901475346 6.603397162645646 7.166861837880761
Bi 2.1258732716943913 11.001209021158747 6.771671329074009
Bi 13.5085001777709 9.556403691570544 7.011206208717479
Bi 0.1102928539217846 7.955484113936839 4.48072968386945
