48
Energy = -175.34719635 eV
Bi 6.345414797306992 13.297223008479886 6.008438409613088
Bi 9.14039205706962 0.9029750058629769 5.144247952982116
Bi 7.051063602476727 2.5640522086215265 2.282509340133259
Bi 9.98748720739153 0.6265170122632313 8.021584806689564
Bi 9.61361560585016 3.7636909395257385 1.1225404681707793
Bi 6.396232420464681 0.5870933495008938 8.919049349148425
Bi 3.322295621753146 1.0503848810407392 8.436018267239287
Bi 3.9676424768886 1.5443874051465125 5.468947866798085
Bi 7.856078135965343 2.7587082620351344 7.346292321628882
Bi 10.532739406663255 3.5416732931935018 8.986051239576355
Bi 10.333139622802083 3.940074596571553 4.144602225056864
Bi 5.0211401209206175 3.726679994215888 0.30074656823152923
Bi 4.842469844218679 5.7329852194625674 12.108130816961276
Bi 7.4435786119995635 4.9399064668025305 4.181020920186799
Bi 8.220892254822783 3.5983839934218893 11.076106538571363
Bi 10.591893845102334 7.114250815433791 4.8972899517705875
Bi 8.444591985326886 6.551502360731445 1.7418161016396487
Bi 6.513762192284856 5.578540097763794 9.511134534875652
Bi 6.913116738688951 7.717999308975916 13.169559386930446
Bi 3.3771084395848385 3.9921527687199903 2.8938080814742975
Bi 3.050775085240508 4.075162560393502 9.003392765033245
Bi 1.4987985797794163 4.088908789035914 6.3288829719810105
Bi 4.50060455554284 4.5035861882209876 6.252500740924684
Bi 5.724886567785468 6.692737974660926 0.3380297435776413
Bi 9.685366676160779 6.392824325794924 7.682760406412892
Bi 9.01020779916612 6.5553072831725805 11.234830426034781
Bi 4.42387345546818 8.139288716592668 7.425484305352182
Bi 7.335023077543284 9.2817144233499 3.9471868331090896
Bi 3.216028810886375 8.301622677940632 11.725698312703619
Bi 4.457547909900392 6.959909269605273 3.1316570835188067
Bi 7.295009769282323 10.644476038931282 1.223944626581002
Bi 1.8911924069867332 7.621286820413114 9.038095092007357
Bi 12.526359628247885 7.394399007862905 7.286312900116336
Bi 0.4309801154280853 6.749756284059078 5.210604028951763
Bi 12.156569803013769 10.330002228916571 8.114533707419312
Bi 1.5517268915043252 6.37764671303581 2.366798099499632
Bi 7.987933522306785 9.265745977988031 7.538627211769691
Bi 5.9094773403030745 9.17247304065948 10.606508730273607
Bi 7.266822538576863 12.355797236506001 3.724104698079068
Bi 6.067254252178418 11.724467663800521 7.3659075851244085
Bi 10.097399092139609 10.8025574321931 5.897678475404067
Bi 2.4799812155627388 10.431761287932597 8.057037031244938
Bi 4.811273962321301 10.71797212064208 2.965950896187829
Bi 9.782071939058381 9.83684729065252 9.965115570386262
Bi 2.449921811613746 9.062646540000882 5.293703543488057
Bi 8.974112238666617 12.761730473051498 10.176890243149334
Bi 5.939917082210719 12.240844764758236 10.38112788699114
Bi 8.725725733978672 13.297223008479886 7.172585519235434
