44
Energy = -160.14152677 eV
Bi 9.356488636236422 6.111366655184631 12.39916671370434
Bi 6.432513278581026 5.239457141472024 12.229775620673026
Bi 7.117983682324281 1.9999599043271334 10.493462089477168
Bi 7.280685441602709 7.687752319767571 13.9206693280443
Bi 1.2298182094258412 7.592415111942053 11.257782910611146
Bi 4.127472858060769 8.59854456810408 11.57586173108489
Bi 8.624710377017829 4.3550589316549155 9.222353315481588
Bi 8.217530333959317 8.700524180613474 11.180872092594369
Bi 3.2072214877721814 5.002842185706503 9.337529263679198
Bi 6.015499138202888 7.061165121508717 9.740822009116517
Bi 2.25387983488378 9.907631657040874 9.584421950173297
Bi 10.037838559648021 1.7073369069004398 9.691440366375897
Bi 7.994542487220715 11.013031870959523 8.421103924616283
Bi 5.338471252535802 1.3358815032446743 8.087329276687548
Bi 1.5742303690279964 7.257633248368017 8.192866998015974
Bi 10.684179576711697 7.114956551885633 7.81265901281662
Bi 4.179609415792361 11.318946193357991 6.94212608942249
Bi 2.2361770637194716 3.3834538873596385 6.900696507281078
Bi 9.611429809820523 2.669076749362681 6.789697726918968
Bi 5.1936489209198875 4.178202167533963 7.049285012712236
Bi 8.515965264576447 6.392680760495558 5.733651919422043
Bi 7.601489086452199 0.42878370451105546 6.307478094227348
Bi 0.9348830398978438 5.4201860495556575 4.995770111744839
Bi 3.4236846199151976 7.213263045243125 4.639137588753992
Bi 5.407028567517029 3.730401020209252 3.57140017951415
Bi 11.397193918021905 6.580862618166708 4.865705479688092
Bi 6.252553584998917 9.111636959318984 6.777326974106804
Bi 10.62270375318163 10.08196187302961 7.1166542325961455
Bi 2.772741957263592 10.203195657942468 4.418174758638677
Bi 6.930586360380504 11.852281159119187 5.67310282624766
Bi 5.846481572757028 0.7077188480114649 3.7928690825241698
Bi 5.389274862022868 10.111675242128575 2.875412312777054
Bi 7.81184041221719 1.3895380882235528 1.533258747394502
Bi 2.0233166229306265 7.479516966773518 1.8732791380615523
Bi 9.527078866888589 8.982122238554886 4.428972181232701
Bi 8.69423148767048 3.4355679287102654 3.499060777990132
Bi 2.2347085048855555 3.3599541522781142 3.1538929242836535
Bi 5.902786800761451 7.08551395096556 2.0828841623910685
Bi 10.175607004061005 5.230658056290849 1.5218961467098222
Bi 8.645383285435074 7.820162902071229 0.9890669683613839
Bi 5.708453152947914 3.5853726342793375 0.48000027629314124
Bi 4.258995687528722 8.877537318605732 0.31190259231142303
Bi 2.580338473855805 4.79206535455956 0.5865237084975693
Bi 8.035953888213294 5.299318122505283 13.9206693280443
