46
Energy = -167.08197054 eV
Bi 6.232059722518203 0.4547188235368473 4.975687159520352
Bi 7.338275867317407 1.9257876643682368 2.4720189942202104
Bi 4.541460136629763 2.984492154782841 2.033635681126147
Bi 10.141661047840287 1.627885442230477 8.7317817752835
Bi 3.9217151489731705 2.4771475990191014 5.0057606146949
Bi 8.185529366582537 5.163340843288108 1.0055198759297295
Bi 7.420307309050633 2.227048742727355 7.200440506005977
Bi 1.3288994592987489 5.600988794932908 4.227638415538037
Bi 9.62152283134623 2.163998833845009 5.125735200623213
Bi 10.915918112363704 6.539119468073603 1.291170774223416
Bi 2.3486256392733558 3.4786303767780407 8.85391534391584
Bi 11.468105286968052 5.939540300452218 10.14840593601863
Bi 11.803614169180609 3.4317994033057286 6.87636735820455
Bi 10.328417143791249 8.655304454993695 10.966837247054293
Bi 8.081564086270959 4.676079196243125 4.063110621304241
Bi 4.248352539242707 5.849027056177042 3.2502994225805364
Bi 5.361433809630458 5.036229967111065 6.1183255605721225
Bi 2.373096226802671 5.995171362454733 7.070731718096168
Bi 5.221531308223697 3.8492919895658115 9.87765995834139
Bi 2.775974301571008 5.016149390880396 11.357859238610516
Bi 8.985550097515471 4.158493791759459 10.087440236573375
Bi 11.255574686551899 5.822284450410438 4.205677949000708
Bi 7.385144257494921 8.10880979636304 1.4047961925766348
Bi 10.660025757698333 8.695953301819667 3.561158703102569
Bi 10.204144873024822 9.543652331600015 7.1285215192483475
Bi 9.907841640716365 5.741152543881154 7.567771876089766
Bi 3.6186186009101093 7.792905412436854 10.016080334631877
Bi 7.782825591172034 9.850115144945796 9.4251278490135
Bi 7.715462974825067 8.243116672704733 4.399220778523609
Bi 12.557248433962949 9.575543255594129 9.020918319217097
Bi 6.838331604358512 6.315063888734322 12.323858285831397
Bi 8.65527373300179 8.427851677692047 13.630209757891642
Bi 1.4718428434210729 8.651579099269389 4.352754745439947
Bi 4.362732461643912 8.618857053682207 1.7528023050429906
Bi 6.414194049490287 6.658692824741503 9.206147855973477
Bi 8.826036957606672 12.303719953351116 5.912147847436972
Bi 4.667450324583795 8.420418078461823 12.837118345078332
Bi 9.177079331356877 12.404153451378557 10.463573757815164
Bi 6.208382506724281 11.755098755541542 7.21172883070423
Bi 11.374710068912849 12.26629656575746 8.372578089995113
Bi 5.705620295361894 10.516182514982853 3.758692088214213
Bi 0.47369762783608943 8.609497969941046 7.256870019288273
Bi 6.839489814014235 10.52607270299666 12.502059007261474
Bi 4.125235406950398 8.92638439962717 5.9104697169759
Bi 2.6899806160878375 10.337577644569395 8.23773614164924
Bi 7.869395552231776 14.068728473320816 8.231591665888908
