49
Energy = -178.13359554 eV
Bi 10.61273441822584 3.4291965863706095 11.669531334680116
Bi 8.027553117040407 1.908406138583879 12.147376306768425
Bi 8.592148387929894 4.570288256093278 13.493212936067364
Bi 8.833923436472235 8.20761759835766 11.930374601489495
Bi 4.4568906413738905 8.141635563925133 12.655659898478538
Bi 12.207936864253178 5.924460514236634 6.501369262345613
Bi 9.063791717900768 0.9244856695443607 8.758930748002408
Bi 6.614326335916797 6.180520475570268 11.597177958536337
Bi 11.391222601027845 8.636320250560686 7.641633316584151
Bi 10.107907834849923 4.529817972653836 8.469038153954552
Bi 10.96970476289916 6.916575781982616 10.151794112954823
Bi 4.954491998545028 0.7785452534867406 8.838949026330035
Bi 6.956198248902859 3.0058726254490526 9.459074727630853
Bi 5.40804521424839 10.860675083649298 11.641926989650088
Bi 6.293556366150132 7.49778120908124 8.690196525013318
Bi 8.854640559882007 11.987542501105704 6.710350401365302
Bi 10.652834535918034 9.279352487281257 3.9863327837995515
Bi 10.13422656094738 5.004502279795353 4.338454575294334
Bi 7.653774913528115 10.046683294537322 9.797292121486814
Bi 3.3970210408992956 7.681342593964133 9.800893225954239
Bi 9.874806852710458 12.302709621249676 3.7791505622290558
Bi 9.007649340601363 0.8267905852550151 5.709263882778602
Bi 7.86124162064615 5.465006194025682 6.399467174167654
Bi 4.2825332216977205 5.182976360314904 6.685555799350087
Bi 6.979523027157168 13.41583533623804 7.234471359623097
Bi 4.963902338854276 9.900791948225164 6.8678428061551156
Bi 8.687305543696322 8.904684503505111 6.270905488826133
Bi 7.442448728619952 3.0677966598198583 4.472943936350972
Bi 3.3438756199346376 10.706105850570415 9.341675539905198
Bi 4.238658268242025 1.996188537886167 4.345002502512922
Bi 9.51501709835439 7.12095996661854 2.130114577936492
Bi 2.8882683277498127 2.2099396662507673 7.094436324649064
Bi 6.005716582542338 12.615835189971637 5.817922321169119
Bi 1.5233626433226612 6.597512550649146 6.64538004941934
Bi 6.983037123776201 12.761271896495408 2.927186574689452
Bi 4.824894967967038 13.135501939119033 4.37185704365072
Bi 7.709510730794403 10.247984439862401 1.3769290224315236
Bi 4.385505892360291 5.169298589421561 3.6806331779680916
Bi 6.673584455417519 7.844100060595697 2.992166621259094
Bi 2.3401897334881805 13.454997205496218 5.960479133261572
Bi 1.3464749612682014 5.016652265022378 3.9634316456224106
Bi 3.242979289022727 8.659665554278417 3.190233836122205
Bi 2.0897624118698395 9.532847565472192 5.878741985392697
Bi 5.439885729749412 6.817893877849424 0.3227458676365189
Bi 2.272410809122144 14.173399345598957 3.0624578546055687
Bi 5.566369336313011 9.71171795697173 13.493212936067364
Bi 2.947201559094479 10.415777371883133 0.6517880712183947
Bi 0.6515369488448611 7.449482959445088 2.2824115704167998
Bi 2.462107636776113 7.536897871994888 14.0634550553074
