45
Energy = -164.31319529 eV
Bi 4.040109488291115 7.486604748407764 11.418749073623053
Bi 7.608674792100979 6.130267414122044 12.087652290310384
Bi 2.4401743668635327 3.7358812314747643 11.262680983578326
Bi 1.3146298965432046 5.332034185751591 8.90510919818824
Bi 5.328088989616983 10.197445997188597 12.061566537679068
Bi 3.6266110836306384 1.4909879840032212 9.6027688117324
Bi 5.470805447208406 3.5609838990982503 10.923729362269258
Bi 1.9345325375142288 8.317924792534239 9.434287339622916
Bi 3.4119263182444377 11.663377043044326 8.119660844837297
Bi 8.021312425201916 9.002509315067671 12.951166517759166
Bi 3.5376754781816424 2.1692090970387876 6.632573590803129
Bi 3.982752688986905 8.841867902466104 7.060113261883608
Bi 1.1704733916138168 5.696707095718177 5.276119736039947
Bi 5.177461103747936 5.721963785125135 3.650752882834217
Bi 3.6716850019283602 5.161888912892017 7.012515395683753
Bi 8.207204530802883 3.6010244766830595 8.2650390828282
Bi 1.7090810011506528 8.706533260472455 5.011932255180656
Bi 10.244542352949425 5.061397815110966 11.032114723449366
Bi 6.43674659821369 1.3285791205764979 7.128379273658268
Bi 10.49207549727046 10.097390869244576 11.562782400079584
Bi 6.101496489422566 11.798617119292986 9.604030034415135
Bi 4.504402951951046 11.581226347403941 5.290901112240401
Bi 6.035554580564375 6.240927245512203 9.451607683577897
Bi 2.435125245403725 5.257200596681473 2.489192434214391
Bi 3.5739081709816847 8.105618973466042 2.657342996328653
Bi 8.188706373435952 1.612101336837577 4.6354567830092215
Bi 11.901668588678861 7.632225493011442 10.517646651237532
Bi 12.610540969945824 5.445765488901245 7.4611479421985925
Bi 10.300481697128795 1.9554482503424018 6.813041284556321
Bi 7.552017176253522 9.741270346980212 7.83993854121792
Bi 8.667587715031965 4.666474729134562 4.80233583879391
Bi 9.86844113101992 11.381572501337265 8.871343461244544
Bi 9.334570663026208 8.254939566079939 5.306388947449676
Bi 11.667895449394482 4.115533575066901 4.86776717637018
Bi 7.325183067305914 12.305902861355618 6.1361202340112735
Bi 12.348452400149432 10.587132593088846 7.2103121163349355
Bi 10.000480956805545 6.631437986129945 8.3729433501606
Bi 6.254478006358272 5.552869171614351 0.7973886865211995
Bi 9.111618409066908 5.06702375768518 1.7235661317473447
Bi 13.404965954155786 7.960185425474966 5.949100518156546
Bi 11.212183455814024 10.476377405421323 4.3520122681075595
Bi 8.523648377913727 11.801048279303862 3.3962614923023917
Bi 11.55474393681254 7.242996232994312 3.5569376403779795
Bi 8.271067501592308 7.84491895168668 0.8283455296048339
Bi 7.0964627759046826 9.108851853356215 3.341422617958923
