49
Energy = -178.73647406 eV
Bi 2.565894660341479 11.458046103620742 5.322056868672665
Bi 2.4293852867060033 8.483835883588338 4.6038192001891725
Bi 4.187703934747553 10.096233195553658 7.6031361617065505
Bi 3.3746274669651393 8.480542918369757 11.189535389673656
Bi 1.1610364412145104 6.214174613345964 6.280329092616821
Bi 1.1078863372240353 5.198515444319502 3.3926396045922123
Bi 4.056552529448719 6.025762417199421 2.780007686924173
Bi 4.249950610127196 11.287118786389188 2.7871763587403224
Bi 3.429285284616864 8.650953916588149 1.2652087739629005
Bi 6.570321750135639 10.861716660995581 4.74201424133759
Bi 2.096198680230155 7.860924801952765 13.888329183660568
Bi 5.50607853482787 8.11672879981269 5.708004074516471
Bi 4.552967928184794 9.614195299138517 13.744763886825394
Bi 2.198210482458777 2.766520676977963 8.326174263823985
Bi 8.403683062325147 9.575291862884534 0.14076110422202004
Bi 3.7914419944113487 4.665490274108437 6.567373741277843
Bi 4.555369138240239 2.0321821702923066 2.105398167239903
Bi 3.6915041839981946 5.069769355963737 9.772641329006754
Bi 6.687903493065909 7.577423935326966 9.356970304274565
Bi 4.775876384872027 6.6448543201479024 13.161299163930847
Bi 5.605823264843969 8.551009864383659 13.888329183660568
Bi 4.025730668960111 4.432380553544078 0.25243839943181406
Bi 2.466609720512543 2.6392682639940213 4.300437834800492
Bi 8.828880056959228 11.239918046135557 2.6916186525599177
Bi 6.712945329914245 5.80233427504942 14.529417486586562
Bi 6.436367778314765 11.919703720953228 8.63083426823468
Bi 4.295060553009623 0.5528124544576523 8.378133145604142
Bi 4.779681170852714 0.11365274047422408 5.386102222118649
Bi 7.099680530564067 10.146807703094122 11.036667426263303
Bi 8.158914815418251 5.76272122977272 11.350253474693838
Bi 5.954239479940478 3.511743110551381 11.042483600454363
Bi 6.5827490153365265 2.520171822842396 8.198216972792908
Bi 10.175831518676333 7.137319140642553 1.0830992181616215
Bi 6.998497102787425 7.626131940472634 2.1960757664605084
Bi 8.708043618753884 8.04875570621362 7.116409065894518
Bi 6.35994746923486 2.620424048599435 4.550529748741677
Bi 10.90485090328962 9.099289616500316 3.370234464482464
Bi 9.049551257413537 11.065019643269501 7.314141627261214
Bi 7.461506589534581 13.523641483702084 5.8757437935220365
Bi 9.916477952217484 11.079214735253974 10.32663837260624
Bi 10.612343287798652 8.232554834930916 11.024036467086422
Bi 9.868972757201684 3.725794943365118 9.830437937348556
Bi 8.529395647830743 0.19230966952937867 8.363095600584051
Bi 9.349163971941136 6.59350377426567 4.000206859263623
Bi 9.596044373840698 4.35052848193216 6.866150436442825
Bi 8.723529432042938 0.709603012831885 3.964741038812495
Bi 11.624790871662077 7.948787790632666 8.303626113731658
Bi 12.202797613902616 4.957274007620704 8.319813060315285
Bi 10.48262672653703 1.4722358905112252 6.361599453455132
