42
Energy = -152.47840678 eV
Bi 3.1688365008639794 1.407769492547634 6.847087443421697
Bi 4.145718410478527 3.438788229900709 9.079686618478332
Bi 7.403614879322804 2.268238230123887 8.644956049278221
Bi 3.5365581616344324 5.36084035909674 12.283684135031242
Bi 1.422748305752285 4.756016416393727 9.774305542062997
Bi 7.749453886508514 1.3974954481358655 4.712924778262743
Bi 1.0471547811862718 3.5151066353066627 6.782413415042824
Bi 8.071736462465442 3.2867091198013916 11.493443730848208
Bi 8.468834881835855 4.9563937685132275 7.546234527331837
Bi 5.155328618173877 3.027504594125313 5.211102042250657
Bi 6.111756587467806 5.558930880161415 10.824357924845152
Bi 2.8865382128488832 8.232736533977794 11.50225531994506
Bi 4.729160334087093 6.0417870438471235 7.519667738626767
Bi 9.818337350317089 2.334889944873372 6.7717631383753165
Bi 2.2273822513852837 7.48493943012349 8.59411604794454
Bi 10.305543497872723 4.761693175217991 10.034785652715433
Bi 8.000085182937633 3.7324531174077125 2.7527325442729333
Bi 2.4008079697685383 5.900415654370332 5.415607164813038
Bi 4.8025108255001125 2.923290016873107 2.1784019118547127
Bi 7.652083489833467 8.548570743204762 9.63334435521309
Bi 3.213340645849981 5.4328607618607485 2.4165077527344554
Bi 3.868165253187914 9.149836210125459 5.882190102506496
Bi 5.5336471726735805 9.727211325971966 11.534188692076306
Bi 6.806827565181635 5.974697046356375 4.485137162064949
Bi 3.02272083527115 11.76765099307457 7.318654230752442
Bi 11.46935436727585 5.974917600063898 5.7982216414262275
Bi 5.925810306598573 6.854938739901176 1.7486923104366008
Bi 5.313607535688008 11.89286489047478 9.38297555543716
Bi 6.5258393969732165 10.410961063916366 6.892826065985273
Bi 6.71062313180542 9.889125306559842 1.9220707457437447
Bi 11.269869974674611 4.291626772408725 3.284105535288417
Bi 4.2453653773134254 10.897363710955965 3.360269376312227
Bi 9.395012385470851 11.131709564187124 9.422274868608394
Bi 9.395971643901309 7.488801451843881 4.063920778689956
Bi 9.838525464285409 7.399698319577195 11.458033549438158
Bi 5.25477576200948 12.855003761082195 5.4977727517953285
Bi 11.401843778700638 6.910038053294798 1.7845327547843028
Bi 8.645532093209415 10.457340286957281 4.359466518238595
Bi 10.410420547938914 9.209362897858671 7.2845297109682345
Bi 13.108613052415025 8.014065277377686 4.0827836589782045
Bi 11.774230681858716 9.319386475434689 10.04998955405394
Bi 11.771573556766258 10.659003127197499 4.912707365128426
