47
Energy = -170.71449583 eV
Bi 11.83297326524488 7.742522741348543 7.006035986604443
Bi 10.283510654191522 10.162911103890988 6.179266022318248
Bi 13.076122324337083 3.8186098452656694 6.640194764116112
Bi 12.02409346231624 6.531774590726426 4.166223379928441
Bi 9.764444374928493 7.736893047347885 2.4653630651951204
Bi 8.329230750724589 11.05420769787883 8.81907312845614
Bi 9.307413117802405 6.117609261602384 8.019925475114004
Bi 5.075748731605139 9.346125061229028 0.7776232955315907
Bi 11.43957204379901 4.247390441228064 9.182292982666597
Bi 6.476593943932068 12.42643196924842 6.04205623049257
Bi 5.570926615637773 6.411686781889896 1.5742316889174839
Bi 10.380741239837503 1.2664538086924078 3.8563345590803904
Bi 5.678391823580952 9.66948785454425 4.939633634719741
Bi 8.354272814196058 8.148285396275021 5.1060255497761515
Bi 7.994568242559406 10.092587067015026 11.771879186639103
Bi 10.411420802352064 4.05594833159441 5.134803212644587
Bi 13.001240109281689 0.9355325398443125 7.645875910264798
Bi 8.761512724231588 6.198639169734802 11.07763468587687
Bi 6.1783370210083906 8.9238305728071 8.255973658197767
Bi 8.446764365895598 5.0111803350886515 2.1174631363468848
Bi 6.419065206449585 12.521299756438099 10.901120730354346
Bi 3.73647647590351 6.744406289041485 4.132888318620786
Bi 3.528437628997299 7.1571849454017 12.700570764826004
Bi 7.3894756787245175 1.6394429385832465 3.313459877202933
Bi 6.824200655642609 4.389039595290614 4.655776632017062
Bi 4.185019568007961 10.84825240207304 9.675273227380641
Bi 10.586508350016645 13.040285216451935 6.411536174069572
Bi 4.623747264101686 12.124086894055644 3.526551721435059
Bi 10.27118289513263 1.2519255091849724 9.12869525830004
Bi 8.059009452288372 2.953713036473556 7.795506920805962
Bi 6.1527506123480515 7.7287710764616 11.117880341082655
Bi 2.6963839535587 8.887998781651719 6.576264775192574
Bi 4.284615539699866 5.7561290716128255 7.869094009011779
Bi 2.421687189344105 8.452286591883725 1.8617845701087492
Bi 4.324861686493613 3.1444430830262142 3.206306332148476
Bi 3.9293232534346725 13.032314146268018 7.571914693704722
Bi 4.97494310941376 0.7381037220638452 5.027725082631806
Bi 1.7199545136204797 4.492249468136867 4.0505787503138855
Bi 7.547256335515429 3.4059274672659314 10.812142347422355
Bi 2.1813291459664783 3.6893716644411065 6.934926370433536
Bi 5.595537771101959 1.1204271578729381 8.005266380057426
Bi 2.1536025290412337 6.524387420148318 10.021457411305203
Bi 2.1928460795216407 11.721403261342955 5.392635672684859
Bi 4.621069384436308 3.403401348894692 9.790686483884626
Bi 13.076122324337083 7.998324134146612 6.647622526974356
Bi 13.303302186513394 5.381083554349145 8.214240244155484
Bi 1.0383350212652849 9.258487795645 9.139644389390767
