43
Energy = -156.52737127 eV
Bi 8.784113916959141 9.073283333436095 12.32299878231278
Bi 11.804491259321065 8.163312928881048 5.522076478670969
Bi 11.638380387506347 5.036543002377533 7.617225900134522
Bi 10.843443205189875 9.356030944244548 8.180666046479212
Bi 11.138501824188289 6.874327344805889 9.991068777223294
Bi 12.634144639758839 2.5459211879650954 9.057808023733546
Bi 11.18931565877292 2.7875332584618695 11.715348763508407
Bi 5.963311451079228 9.726974596277485 13.296211138892362
Bi 7.14715609366592 6.982098152837319 13.803711819037312
Bi 6.417606224279851 10.776338390440236 9.560824520145802
Bi 7.894410134427207 9.528665906786323 7.140431907301703
Bi 9.985151764448997 6.230860786563567 3.9450336119527365
Bi 10.615183001845224 9.801032947904828 3.1987277804460033
Bi 4.426050243960027 8.764544513240713 10.794890410190948
Bi 9.307552975017328 3.1850684111728205 3.9829046517672575
Bi 7.223579707150897 6.8672561691298455 4.934610514768489
Bi 8.060650038586216 7.432797014274532 9.80060497845438
Bi 8.678109604171231 4.522724407291834 7.923389102405819
Bi 9.240992091256034 0.6094212999516239 10.774022667365076
Bi 8.398947186363245 3.5591759394262366 10.819339084283744
Bi 10.650232989280845 0.44953689213921255 8.07148973773273
Bi 5.800334836862625 1.0936498240201913 8.520438792302942
Bi 5.226701069779881 5.513322149079412 7.6862915679446955
Bi 5.725874825969352 5.967636297779889 11.245694431695231
Bi 8.952746158932339 12.379708860487606 6.867613793004039
Bi 7.659363025939943 8.937613293909054 2.7447905811865096
Bi 9.530053142426347 12.591333580679127 3.8690152495541787
Bi 4.251687043210016 9.669130657485185 5.749655173665492
Bi 4.282902752815258 11.972652410325965 7.73017700432725
Bi 8.317374499959465 1.828264335154006 6.6176357652490925
Bi 6.674799688303719 4.425842473778562 3.07295268863611
Bi 2.9305858779690586 7.555282655543347 7.547307775070993
Bi 3.81025205706442 6.880160073945269 2.714220635776054
Bi 4.254731385999454 9.602514558296322 1.3086807432173126
Bi 1.5805454351549022 6.9617653214707635 4.801413674548764
Bi 3.6864693605106647 3.17995051328863 9.017125486700769
Bi 6.264373513532507 13.330593523034675 5.840651454405685
Bi 6.598159269932452 11.81812732929652 3.1758182426191346
Bi 1.3074114534846983 9.965046535714613 5.004751694886061
Bi 3.6256030004408113 1.4498409267183525 6.484739931321339
Bi 4.339954739937901 4.117445738357637 5.0989802821846935
Bi 1.859376468255148 7.910824019457418 0.5839273416272449
Bi 1.4765926915431689 10.565564033198989 2.022949053072974
