44
Energy = -160.21821042 eV
Bi 2.661116373375066 7.382838054073856 9.160984614905825
Bi 5.527587460995357 12.200795567806608 5.223023541761001
Bi 13.198323127922137 6.559780558763727 6.878311954123246
Bi 2.6227278729685732 9.072236115399111 6.51339787965185
Bi 5.10759274481164 9.57307609194137 3.687233066162559
Bi 1.3555579601308223 4.756743387036513 8.207401467009882
Bi 4.6663367708179 10.88767849826642 7.968487169724385
Bi 8.427557980277369 11.133127968405951 5.309562460733556
Bi 0.21103378834575948 9.098727010061264 8.303725650076034
Bi 5.858591276413249 9.083243978961345 10.622587674356534
Bi 1.7906550448169978 5.752769568248842 5.343351482246161
Bi 13.790564052705953 6.286306849091771 2.0993255055342406
Bi 7.132805416503999 6.289698227620841 3.9860831744726877
Bi 7.766062683242945 10.350956248127506 2.3901152184498073
Bi 5.045341660791886 6.0861900845847945 11.36240048714026
Bi 4.920328784806958 5.166037999301159 2.1632795717373168
Bi 6.525280169779446 8.962605644612784 6.458153169380246
Bi 8.690887522618647 9.96351045556922 11.388494754808725
Bi 13.824067016498605 3.8445566968866203 3.8944479421597644
Bi 4.913212488768731 2.641011709476918 8.725291073130947
Bi 2.736601053786717 7.285121363676015 1.9386908192450354
Bi 6.913205060383065 6.69285711785579 9.001116670586546
Bi 9.656333179422331 10.678804845631843 8.582574328144313
Bi 1.8737959969540672 2.5436973060343733 1.9904744021929461
Bi 4.949399663848767 5.2019324406327065 7.061225504883459
Bi 1.7425136078709769 5.016675592919695 0.11050588391429643
Bi 10.16022861361908 7.7635546623335365 6.001736531484884
Bi 8.68222042879582 7.522376003932445 1.6853184159826222
Bi 11.336781122422245 7.174428928754949 3.201237131449209
Bi 10.372391451738105 5.456511688892932 12.316801803985655
Bi 3.9983476604846886 3.1356638127179224 4.197345699289956
Bi 6.437834588013 3.3608585806334332 11.272267345476145
Bi 12.445726316960174 9.777722239424726 9.441135485896927
Bi 8.331375978566818 3.8535650952446434 2.6096450023829783
Bi 10.14808839272256 7.8220826390076885 9.773961917666677
Bi 7.23414135466407 3.1020646349750116 6.736294079766769
Bi 13.086856419171147 8.178827236363077 6.890238465920417
Bi 11.347205629489642 2.680700639366175 11.588557350163203
Bi 6.745972793964037 1.6725504010283185 4.108015383355884
Bi 11.148887943492202 4.150905498570487 3.7668170890351647
Bi 9.137075710739278 4.0354235633395295 9.919068519566913
Bi 10.347760997459169 4.741023421295981 6.697740323002035
Bi 13.198323127922137 5.238868565931453 7.821248532343636
Bi 13.050565184404725 5.074222667698149 10.854655117195307
