42
Energy = -151.97525771 eV
Bi 10.55794667655777 6.567826013879668 3.073901822285705
Bi 9.790656580824779 9.612868894314818 4.326810094708097
Bi 12.54948698866962 5.182919886918627 5.013268219063921
Bi 11.32446851699154 8.189601275686364 6.546681153730644
Bi 11.590082757416935 2.5441617617856633 3.589984323009366
Bi 9.720864141074305 3.961194928006095 1.673160883356966
Bi 7.300198116111727 9.251997638494743 1.7659651018074636
Bi 6.835649616876739 9.217591308141726 4.893381522589724
Bi 10.365109352076816 8.418309858122848 9.41201490646734
Bi 10.796299080486902 1.4901846041252425 8.034314765731356
Bi 10.586973184535479 4.403534775610522 7.2407258477668375
Bi 6.302683852432078 10.363850516984337 8.45128578662732
Bi 8.68824310873162 6.760211180180588 5.560625782078266
Bi 7.032658320694116 3.01325247224016 2.780499490906596
Bi 6.397742237218533 6.508969975054817 0.8669884670435817
Bi 11.436973185665652 5.651925491254936 9.886665300850241
Bi 4.624632335468838 8.95206954079452 0.3584965981714007
Bi 9.787284178706303 0.7878846209565585 5.301125051992537
Bi 1.4985296764922196 10.69512027209111 3.7805695882146932
Bi 3.9070075738552874 12.172565975359863 8.76926171056945
Bi 5.508124676322762 5.52715281133045 3.6672056864255214
Bi 6.1837265557818855 8.836527017075387 11.107248432751387
Bi 1.544158282456263 11.135062046202787 6.838822869131709
Bi 4.300780143741104 1.019859059843104 4.072035073174234
Bi 3.530652514657868 8.520754452876997 3.1592112230511806
Bi 8.719380028319978 4.610372761490056 11.292882172469787
Bi 2.6269708956992908 9.809080454068924 10.317477473238995
Bi 3.47584459356423 8.778490978782937 7.641023600189464
Bi 7.69356970490544 6.798947414402148 9.386208639453798
Bi 3.5018827478182235 3.5217739560608265 2.401668443066903
Bi 4.90453077827134 4.3328033100124586 7.203519037653421
Bi 0.54154515124818 7.9038487360442025 3.171028038224518
Bi 6.832136921767665 2.0520217957369282 5.661249678902377
Bi 8.026700889915736 2.8974618303864115 8.798438662800695
Bi 5.525568595758177 4.166109769074704 11.707173717195607
Bi 1.9422064248606306 6.255367676544223 5.364762117873601
Bi 4.4287635062473765 6.426517580631354 10.073387121479618
Bi 12.549486988669619 9.254348461966865 8.699505167342688
Bi 1.0354455544183554 3.585699565871912 4.234743145559237
Bi 2.721308128935352 2.22336874705222 6.393152648986939
Bi 5.015704170105541 2.264903230828996 9.43499578013491
Bi 1.2364297418068697 6.54571244592192 8.319692450482744
