46
Energy = -166.79412436 eV
Bi 11.00882207967395 1.2135294285319198 4.6978379795051035
Bi 8.554698884125393 1.460839553846641 2.9420021958942324
Bi 10.625871418133874 3.697882067526786 2.760884795479304
Bi 8.999420574524969 0.6822503416917801 6.933753354836989
Bi 5.238770610252785 0.7089574260601805 6.38887747514153
Bi 11.733902730254677 3.8310223399999694 7.267608516236331
Bi 9.8358884681001 2.498098381862356 9.215815265095127
Bi 7.581319400001657 5.1438970713200085 12.879724173873031
Bi 7.253463661148385 2.7577182410893863 5.456012625927361
Bi 5.233264737823207 3.746791456145968 0.6690199329206918
Bi 5.188801405089011 1.9369516518904528 9.252362272317328
Bi 10.623349564379856 5.840573207550306 5.2361043875736915
Bi 4.090556928305309 4.892162284695811 6.243009102372335
Bi 7.245746698877518 4.237046167299012 8.82446349167034
Bi 12.513781411190147 6.212595965563069 9.096983395060851
Bi 2.597223215575418 2.253123586490663 5.9911208317986535
Bi 9.622460767944695 7.033913247461666 9.308275921949868
Bi 12.544320639897785 8.279898381561544 6.855673195125223
Bi 4.913843496707078 6.532347905139169 13.293830757612964
Bi 8.87360613951507 6.074857309656351 1.8078798212237581
Bi 6.046271230465148 5.323584803777204 3.204012922265529
Bi 8.578841294563972 5.204005350016968 11.505718423934058
Bi 12.102237540238692 10.54725483796505 8.93318125374597
Bi 9.43232616741639 9.648722353051939 6.357477125849666
Bi 10.176546681605876 9.456270393979704 11.023883903499025
Bi 5.117209619573304 8.201708304133492 2.3089897703295077
Bi 2.814936107745742 4.161870385428589 3.387615468073568
Bi 4.745900469257789 5.5036465601941655 10.52598334149035
Bi 7.823411422988429 7.0382251353809435 5.803055971832515
Bi 5.304004192888739 7.877254033688122 8.086148181064711
Bi 7.923836635811055 8.878268325208593 3.285902145031843
Bi 2.6751985544773995 3.7287556423318944 8.846884574037764
Bi 7.13490615539077 11.40797523409492 4.951543062573571
Bi 6.4980603742940355 7.1957033518664675 12.46941400315477
Bi 13.093028165609374 7.004160002703331 5.124674803288495
Bi 9.105825962357168 11.342784236128491 8.870354993685137
Bi 3.2192316800300316 7.996281635175926 4.8428441346560565
Bi 1.3446194657399968 7.0926383331716405 7.6096799843334
Bi 1.3913399570764815 6.774277967467673 2.7593229493762883
Bi 3.381626465381611 8.37209330699871 10.46415971514219
Bi 6.347464056304303 9.508791307378072 10.407557965488136
Bi 5.0611413011633175 10.898056310718577 7.03472309818391
Bi 12.544320639897787 9.099474388609686 8.180565537955168
Bi 12.870204602614281 9.971547000663453 5.304289080480082
Bi 2.371712251404047 10.907970495411766 5.193315286241186
Bi 1.7336138425210887 10.113145585870111 8.198664766561016
