40
Energy = -146.02982049 eV
Bi 5.099088808204441 7.742550102463961 11.911284932128714
Bi 2.255053494931186 5.616378380749011 9.63903719645985
Bi 3.5113547876634703 8.469567351007905 9.38389308880266
Bi 8.683394584524438 4.695128306349926 11.816826987982994
Bi 8.055403879609607 7.600935676304166 11.207655941897809
Bi 4.095513005909258 4.882717182993896 12.02014582558888
Bi 6.774751012916014 9.965159490781968 7.231347760027356
Bi 1.3242317738087823 6.800504001242409 6.385941441122639
Bi 4.216997036155424 6.236635484962585 7.423582147543117
Bi 6.279930617399211 3.008959536314249 11.098773343266334
Bi 0.7177580609776371 2.496896932990434 7.610519007971211
Bi 10.227114949252634 3.928399462132023 9.218291401777826
Bi 7.475873234645741 12.88995753781829 4.533423957379396
Bi 9.284499653000179 11.519078733035414 6.629629419140001
Bi 7.618305274601322 7.151547052930657 8.267414202753603
Bi 4.56726496590706 11.88561230654717 4.877928852819423
Bi 10.600768093749483 6.657891738306771 7.878698027680892
Bi 3.3448779161010265 2.066458399224171 9.151015434514749
Bi 4.554845274503523 8.807297096652144 4.670781030111519
Bi 4.358723925315271 1.9243554412899837 6.268790278144191
Bi 2.283274958721246 12.88995753781829 7.2715100173836715
Bi 0.9562439399370853 4.091239928194406 5.006536538901597
Bi 3.7903401232884013 4.701057443600386 4.0147946766855265
Bi 8.081761640095872 10.659366757857104 2.5680905498460156
Bi 1.6707718914293035 8.454669227889617 3.7675158466984096
Bi 5.034243413326448 10.429348598053311 2.1641786127552534
Bi 8.679000660800163 8.935590222573934 5.061198370101147
Bi 10.24955075016217 4.503310313481212 5.727159692789327
Bi 2.3147239126808645 6.183806867997911 1.8018155862717913
Bi 7.340531855936156 3.437717292031162 8.136592517233673
Bi 7.185857564141848 0.8042003782795508 6.545992889925497
Bi 4.825094727231892 2.346517290396771 2.4066661272928584
Bi 6.899888664880395 6.875982093904935 2.5734466019509386
Bi 7.318741348991366 5.015035645367789 5.2929269265537595
Bi 4.82151737700657 7.009586687451922 0.31345609464431684
Bi 6.462873927858536 4.3506446278404445 0.7656756563083026
Bi 11.341337587555943 5.415743260307817 2.914206164797033
Bi 9.83382926232589 3.614919877817483 1.1536827895549235
Bi 7.584930833752104 2.343628899735827 3.829069212153708
Bi 9.497436708286797 6.6527837936376075 0.8755711530298427
