45
Energy = -164.19743991 eV
Bi 9.543675969812263 3.0868832009763336 7.790040191571068
Bi 7.21476447340299 2.331617471609352 5.948853624486007
Bi 7.7155122248345505 13.892594154565467 6.857577352803649
Bi 9.267732615893463 0.3735785434503267 9.292414345534532
Bi 4.373275691130843 1.8460781945926747 3.5078940148457516
Bi 7.897992727501841 5.584481505849023 8.826260584257318
Bi 6.346916465679377 14.093930342539016 9.561386386275704
Bi 8.551371801506907 5.048100078948876 11.830166761594059
Bi 9.16866058371894 2.1588586561222223 3.5754810132915797
Bi 8.489452338234262 6.4299537457873654 5.241469942614882
Bi 2.8866661885316116 2.0172026947964103 6.8144476953141195
Bi 4.178758933080175 5.447354865268205 12.240386374404011
Bi 4.752367680021406 10.35309121723326 9.136633553892436
Bi 4.169754954496275 5.842919311670573 9.106466535104834
Bi 0.25460268917497286 2.879827850882975 5.5108876238558295
Bi 2.652866616919769 3.156476185588779 9.615824747113797
Bi 1.4571410378642025 2.515017970370461 2.7386964252672437
Bi 6.742300375417329 9.153824599789788 7.06519885618424
Bi 3.739908021128727 5.316343554864798 0.9393922082475666
Bi 6.178904888884899 3.157355255820667 12.2732887084608
Bi 2.3680372999513035 8.37296262703988 9.195806580862538
Bi 4.31040080997754 4.347123486927184 5.36834599704416
Bi 4.089258276831239 8.113216118154705 5.110282821344444
Bi 5.2001667953331125 2.629128463324621 0.6817693996186547
Bi 2.8445584157650528 8.970984575872054 2.3739404081693434
Bi 1.5741629526944743 5.256645918986861 4.1388420952634135
Bi 5.232875538795525 6.930404562842719 13.325690647260359
Bi 4.9648540160401256 9.580243583232592 0.28325752726256737
Bi 1.275645170029388 8.527365378318352 6.322561189891637
Bi 5.669225557960485 2.570936583011764 9.332412920051597
Bi 6.46443037425931 8.109229255190629 10.501826757553886
Bi 7.973409002018504 3.830251292615603 1.3368808540351664
Bi 6.661629338939268 6.9285597360588005 13.325690647260359
Bi 6.260894371199645 5.947235483060399 2.72382494843103
Bi 6.942158437062451 9.616178220848267 3.3238449409503197
Bi 3.006001665428711 11.920289503353267 3.1749464862283343
Bi 10.804756266577254 4.445369094577078 4.766007778530207
Bi 3.175467124624 10.888458324228452 6.09604980936882
Bi 7.6040082777258835 7.805947661256465 0.7037830646474391
Bi 6.022637294852577 12.480206997260282 3.2464775852056906
Bi 9.130892997517813 8.436225207290724 8.957988396660227
Bi 10.794817951063115 8.424426833357412 5.27242057840615
Bi 10.334550335510373 6.728001448544725 2.7397393387053937
Bi 9.60631867820377 10.947724522055585 4.0034869183263675
Bi 7.494992434712439 11.976820442422087 5.963432480406183
