40
Energy = -144.80778458 eV
Bi 5.1487728171053115 6.05701811974898 1.3176774076559772
Bi 3.3041015757397587 3.593944046469862 0.6891163609351338
Bi 8.0841532265216 7.3300177607869275 3.1332670433138294
Bi 2.185465645424314 9.198788271863043 1.90485584834687
Bi 7.686119901072573 4.299108819445131 1.241140918241713
Bi 4.978458027723739 9.288207967787415 3.2159923937694286
Bi 11.033159198544809 7.27953550824958 3.9420936009931125
Bi 5.704925306002847 1.8803392592305044 1.33134144685705
Bi 7.590248096849501 3.79367362340854 4.214594815660678
Bi 1.7133116672086706 6.386072628560098 3.0329265076321787
Bi 9.737881858836593 9.83578073115303 2.8696856089255287
Bi 6.598134503507543 11.838626235468313 2.9493016125667855
Bi 3.672533729407847 12.034874425589228 3.8714719038998986
Bi 8.090388405011248 0.7668768662056907 4.057457514456047
Bi 4.43934246576167 5.650155424955103 4.269884469905928
Bi 3.798794833242209 2.689771541071514 3.579760517883322
Bi 10.46621014039447 4.006710880274495 5.297601743382487
Bi 0.9799963581625533 8.844387373386166 4.698705005358997
Bi 7.346215569281518 8.34377433548537 6.283192819819675
Bi 6.820953877082588 2.0862792206648293 7.262570085772833
Bi 5.942005668972184 12.034874425589228 5.626304778158789
Bi 3.36307534395253 0.48450735590895766 6.754562961754868
Bi 10.418263465790707 1.0158560669574739 6.053151072717736
Bi 1.237195142520077 8.396015559745008 8.510983927317417
Bi 3.5416709839276366 8.87322974843388 6.440357674478504
Bi 10.140752650220628 9.451008585642475 5.940077659507424
Bi 9.610178518781423 3.182116919710142 8.10219626511271
Bi 4.109048969043636 11.847990467708298 6.861196356824743
Bi 2.4199245267022333 6.0997578041515395 10.122402629038465
Bi 8.149405798035966 9.626677393468878 9.061243114691841
Bi 4.895321309795274 5.89453407617639 8.264284277905942
Bi 4.410033066331684 12.31206548482404 9.408242926811816
Bi 7.315836032376265 12.219966909131045 8.304298111398381
Bi 4.215018534799539 2.383924275715645 8.989350361826508
Bi 7.054976227940287 11.381270955036769 5.986776374148914
Bi 5.5231777955735994 8.337333466039402 10.108118270892533
Bi 9.156852558894268 7.006053862734622 10.282273310498418
Bi 6.942976535879644 6.890682067538092 12.360718730635922
Bi 2.6616756033106954 8.986467895678802 11.07614031651938
Bi 7.053374344098974 4.738421687768136 10.124613534213033
