40
Energy = -144.93396322 eV
Bi 1.6193240363846644 3.7411788283240432 7.547039944349269
Bi 3.201485074044431 1.8444068206492559 9.423240283379224
Bi 3.394326644142074 1.063753830314201 5.669025022057644
Bi 3.2399762420274527 3.321968646326412 2.631326617998525
Bi 1.8369482621344468 5.347705250792404 10.211926571433219
Bi 3.141212077947661 8.06953365613134 9.641478780044466
Bi 2.596399643934853 7.693594468606011 6.4689891305224805
Bi 3.2427562864701076 8.162657998897291 3.1977045644991207
Bi 6.948556375293518 2.8078374566790134 6.90232070230908
Bi 2.5251072641915906 10.74937773995837 6.421510946700038
Bi 5.373552780998502 0.3697314404225379 7.856626106895371
Bi 4.019908860246803 4.06692797880748 5.60811563192543
Bi 4.847725937798836 0.8104251214233255 3.0081535103449974
Bi 5.328714962083488 4.895357744921634 1.0363000478196573
Bi 6.138684183586238 7.283811830875554 11.517406068587372
Bi 4.316991397303253 10.854559117041145 3.9281896744143086
Bi 4.9174801850489365 11.127078496898248 8.768607301118719
Bi 5.49766168872968 6.28625648434891 8.616496685729697
Bi 4.616947565300118 4.198867977846711 10.736559603162352
Bi 5.938019484350726 6.738446592526632 3.329563683053037
Bi 8.007037777117214 8.314125171802692 1.7531050631673002
Bi 7.852213774449011 3.31097284546702 1.4936635470769413
Bi 8.70537195992894 5.634575435156428 5.345681041792963
Bi 5.321075216022003 9.209594033862544 6.340432332342962
Bi 7.666200125782206 1.6353405479251408 4.08695425019014
Bi 8.815155801974342 5.615980495344244 9.098828643743094
Bi 6.3462063358815195 13.231913239798136 7.03439670382497
Bi 9.210923165491264 6.736494059947583 11.940595741752714
Bi 6.672987319305526 10.247712851389355 11.280234481436521
Bi 8.747666629991329 9.612374537199386 8.29300529223883
Bi 9.627189514440614 5.776454535579801 1.1236510391668264
Bi 8.564927617889502 9.011695271971018 4.782960437697236
Bi 10.46491602565783 3.096235062418824 5.131167011150278
Bi 9.24001841496726 12.553214269614566 7.672988450241004
Bi 8.178049759700603 12.13013621750702 4.854540546195327
Bi 9.80941640703188 2.7783613287798774 8.209907586571335
Bi 9.716404376966132 9.634232651063378 11.154200822102094
Bi 11.11563589661521 6.329222030424267 7.199586873690714
Bi 11.158983107226115 9.28271895635761 6.426304223998462
Bi 11.237480757366123 5.806861545278146 3.7566626638757112
