43
Energy = -155.98504338 eV
Bi 9.416448514997308 10.051270256016132 10.762961673547716
Bi 9.380779111260308 7.639150565486694 8.942718347016203
Bi 9.257576454083173 11.206856112023948 7.273388068140559
Bi 10.855369116832362 4.46316902499023 9.366920203533628
Bi 9.571843660396384 8.411730155294604 4.825363467122005
Bi 8.507280660545382 7.368272470208908 11.911566653362986
Bi 11.402445285301342 1.3521329268586857 8.937916648090628
Bi 10.642609854513413 5.535482207240446 4.842203785333024
Bi 9.152106278386995 2.795657829083342 11.213444703748328
Bi 7.42121472861531 13.637881954891462 7.429082568168544
Bi 6.481961347461469 10.956735090522633 10.54477746530513
Bi 9.54314855167417 1.4808641641230813 6.54064499851126
Bi 10.510264976908752 8.95952173718066 2.001724268877973
Bi 5.538510470145985 8.246650425859087 11.573054623941756
Bi 8.832039558400007 4.443800552772066 7.0485452574206375
Bi 8.749321359415976 11.284364442239102 1.1876452094487133
Bi 6.573318825457344 8.585434158306995 4.408428204820286
Bi 9.290204474938044 3.3219155356415504 3.205769813977114
Bi 8.399650439688576 0.5725653150802078 9.23442948642153
Bi 8.725018337503908 12.913194899624678 4.773208646076639
Bi 6.4951927775388105 4.426605217304258 11.67464594998124
Bi 8.29133035664349 8.519166733197144 0.004982005456401406
Bi 8.128180755280633 3.80389001107249 0.443151454954305
Bi 4.397599714179846 2.358203284396274 10.878603364430685
Bi 6.642777583772562 2.4539356924238893 4.407035275881751
Bi 6.264106126276108 10.816013589277 7.490753028437679
Bi 6.326457920537697 6.40663162636889 9.24531236380808
Bi 5.073402850062104 5.595840811088012 5.697133195758951
Bi 6.520133724753399 11.437262148520158 3.295122290711149
Bi 6.02590126761173 2.8445139466996796 8.399314440110842
Bi 12.679961786115621 9.207263040221772 8.882658258415104
Bi 0.6391381098438631 6.70845218909488 10.275300919289329
Bi 5.706494722162474 8.145577569768669 1.5285359497003814
Bi 6.40851288788387 1.4687712244365214 1.4512901119596746
Bi 3.3647371278191343 4.729568965513993 9.206389215468407
Bi 5.483146883548205 5.266002020763648 0.5531765120991785
Bi 2.484960482708531 9.002691894561165 9.781832468353402
Bi 3.6823017983208475 8.210008365433122 6.793200190015535
Bi 4.33411193483085 3.445826266210474 2.6642554873096054
Bi 0.8744948384176315 6.93967367450385 7.164936379543521
Bi 2.9356744072775993 6.865694493743282 3.895942792015803
Bi 3.134604921317797 3.3672906533037503 6.462545955577598
Bi 0.9130784443681805 4.871921588841119 4.800152235108129
