44
Energy = -159.73559571 eV
Bi 1.830328406185445 11.478279860533904 4.400072443455246
Bi 3.423434402204374 12.77396513203982 6.624793176732304
Bi 5.065065919903101 12.196702555492859 4.1498754041085855
Bi 6.261420833362506 10.664226143397666 11.312892573006549
Bi 7.531353551334986 10.396141789918847 5.045318561889738
Bi 3.155352555843001 10.166437894617955 8.179137078687496
Bi 4.7604252458006755 9.194988790000934 13.51176740096944
Bi 8.303161147109103 10.825350233304004 7.941333811291519
Bi 2.377487063920664 6.762889366332983 9.083008753274772
Bi 5.221035359418469 8.797001307053316 13.511767400969436
Bi 2.741780172585286 9.690737659379774 0.6870456107531027
Bi 7.636509358597266 8.546658077478384 12.950255279892843
Bi 9.802467254165945 8.136554062457176 7.2313223024929325
Bi 1.8670677236904207 8.790233804871027 5.773244757509952
Bi 5.95487171242394 8.958005314330205 8.653086969359158
Bi 10.408393326577936 8.904808492628575 4.283766216349866
Bi 6.908083499342542 7.38159730796997 5.518795121184172
Bi 8.943841491795398 5.961538270386174 10.412423610003758
Bi 5.382083065448705 7.055453211325205 11.386333324254531
Bi 7.066998874445558 9.584212998396413 1.4772789850761714
Bi 1.965119418904401 3.9279063402037098 8.201975810505528
Bi 13.352874538606573 7.855130621172429 4.676829237098792
Bi 12.888252662798214 8.135442925685618 7.6408682583203245
Bi 2.0645390021147207 4.523797042752974 11.194665886807368
Bi 9.281278390356174 3.3263400460482884 11.913752281596722
Bi 4.476730015099937 9.327196283002609 3.206194331488854
Bi 3.991477977223449 6.245060535416906 5.1244628464908155
Bi 8.970820505183 3.9990862526980933 7.994371292893586
Bi 8.320727532461285 7.054087674692264 2.7493577831741667
Bi 5.070108721986507 3.9756096806275982 11.40071350945348
Bi 4.575367448464527 2.796058765277758 2.296176286973131
Bi 4.135163934715659 3.0497985914789627 5.298113477668198
Bi 12.89836175421504 5.387045405494238 6.360204286001581
Bi 11.668965797988687 4.597475268518601 10.38361827511258
Bi 4.896930301737375 4.863627701523287 8.420223311244161
Bi 11.266770113912333 1.937136228093069 8.635295184165596
Bi 5.016833971970674 5.874855805087417 2.2111134487764326
Bi 10.033047186907929 4.992391631150631 5.26475144898288
Bi 8.720677666579146 0.905977142976152 10.04321852161676
Bi 6.955676419023212 3.3210682772256375 4.1364956110576765
Bi 10.81962349599172 2.0128001157563675 5.517517609130823
Bi 6.651732410643557 1.8866678582203151 7.94771879503199
Bi 7.999014952590306 0.7605682855831761 5.432541155636458
Bi 3.1296529028315065 6.769997335859801 14.370169375970265
