47
Energy = -171.20486632 eV
Bi 13.675834330363415 8.120147609312825 5.20178343822372
Bi 9.686726899813253 10.541979214841652 4.29608698926895
Bi 11.382925978391052 9.560135271145757 6.6457430197398955
Bi 11.80376767421509 6.492993332027309 3.437816340205379
Bi 12.120048181343899 4.205136999708901 10.047111927789956
Bi 10.6001034678095 7.677866277313934 9.460531279391336
Bi 12.963850209513753 5.251895138729096 5.955212109576271
Bi 7.468071957082942 10.856730094399284 6.363106185745034
Bi 9.513789313247084 7.6217580612153535 5.130434534806717
Bi 5.160623225032646 11.259464435992829 3.207639494210411
Bi 7.326018392144089 8.105401719277557 1.744508063293343
Bi 9.929950547792918 5.612584272092921 11.711957907416569
Bi 10.088384443122225 2.7989987392338467 4.934919751466616
Bi 7.921151127933015 9.145787191281356 8.875584951838203
Bi 10.432031602150486 5.200979203717045 7.714616075261043
Bi 10.793716111364265 1.4262579151304722 10.080397802062516
Bi 2.409339769801345 11.637984633355053 4.490366519709156
Bi 7.922354471178002 5.133768642333486 1.738264050589714
Bi 6.252880725162056 6.306162550327527 10.976238212449736
Bi 5.082367744121547 8.095319160796612 12.497043318350224
Bi 5.9545789077890605 8.581521110797217 4.468575901482805
Bi 9.617390793245939 0.8632202185753144 7.3127668418927305
Bi 4.834883735407054 12.481297792695186 8.479835718991207
Bi 2.080726552397509 13.12130903305472 9.769971346739661
Bi 3.3531355215830767 5.617646332100096 12.718899456836168
Bi 7.535917237875384 1.700761442873629 3.5647651684372423
Bi 5.1301514853480334 10.359742354121758 10.71774779033178
Bi 3.323403720339775 10.233501575770092 1.0056788607064393
Bi 3.5109004922546627 10.200409338090283 6.949525591948492
Bi 7.516032576151066 4.530697571152876 4.716680615426419
Bi 8.682189287068407 2.7750637767452107 11.821322855738277
Bi 2.0928767107464408 10.541832952009281 11.370837683956278
Bi 1.4997152458076295 9.037515298318535 3.1345273929612762
Bi 5.950183505804709 0.38787192984326935 5.832093941325628
Bi 6.453675534433998 6.641423243225029 7.980084098333389
Bi 6.200033040656574 1.592310014487529 10.46896699821786
Bi 7.081451153297844 2.5264909061866994 7.710664558623969
Bi 5.258300563878212 3.6986118203534306 1.3562413106340763
Bi 2.8632507543653976 4.827123851523973 2.8445507806183006
Bi 3.2399047565337162 7.146625266381448 4.786095376073651
Bi 0.9068422964816135 10.59950503436897 8.573706679980733
Bi 3.9720677790044197 7.807360151909779 9.499598081826733
Bi 3.202419151536289 1.7861934727840934 5.302266469876764
Bi 4.442141386920425 3.923501786504788 11.422025563632085
Bi 4.196623827360697 4.238553506855589 6.8757101109653656
Bi 2.25786352560051 4.222328614650335 9.251424443316054
Bi 3.38986912914113 1.566742000835439 8.331654028735795
