47
Energy = -170.93460098 eV
Bi 3.878952932188004 13.784290896647013 5.988955756036665
Bi 10.889975199561166 1.5671202761444456 6.925742060461109
Bi 11.07560516371339 5.020339152305606 4.878927940903264
Bi 9.224665037958413 4.05215744382546 7.103219493721767
Bi 5.965474121674649 4.721356787474656 5.366435238177195
Bi 6.678232298631816 13.755711779676464 7.027450666026276
Bi 7.199882484815166 4.458761843383814 11.254808813017355
Bi 1.822126997948959 9.253162306699089 2.704872825344841
Bi 1.2704491652045338 6.7051299184587725 9.06771740817967
Bi 9.46151501596992 14.549778069088205 8.996911884069632
Bi 8.549828278999295 10.519601398215368 1.6379620665069918
Bi 7.922940587568966 7.909382234407668 8.17743421670049
Bi 9.303417221295321 4.000680909520754 2.4074372819033947
Bi 11.319910194008882 5.073045289014356 9.084916682268394
Bi 1.1975531553904153 4.797044224430624 6.663071723077807
Bi 6.219816955095958 12.800779154830002 9.865119991095517
Bi 10.292045343955243 11.920467985089793 7.4568297261177925
Bi 4.845971730133228 8.500208236112808 6.398841920262989
Bi 8.001071792588226 1.4982354686264796 11.14062258523646
Bi 3.567242183082758 3.1391762992395633 10.54855156908134
Bi 10.231569779436764 9.902082678565979 4.085478283518129
Bi 12.413481396989017 7.081309371037436 7.06811904835355
Bi 3.089270238152261 10.814940611407081 5.238446843461981
Bi 7.788964801621991 10.94147515158802 6.039112724145872
Bi 7.06066054254448 2.4259729927064684 3.6184708818721942
Bi 5.211665357557872 0.5513555279421086 10.323226351795608
Bi 5.922788041272097 1.612588154151485 7.600024872469338
Bi 5.099328252935799 5.965587766424265 2.514647133477988
Bi 5.373389367261193 5.017679995483747 8.90763890511872
Bi 7.038944707724052 9.901920883311888 10.377100865963941
Bi 3.274322571493588 0.8532938942377098 6.3696299018983575
Bi 3.7879985686889266 6.881898177926121 10.757714063508008
Bi 8.027100734746432 6.712852345711223 1.7050705227604446
Bi 3.2267322628690396 3.5132791458431933 4.748151304655435
Bi 9.146367673548257 12.13286056480061 10.330876336445959
Bi 7.596020780020049 12.751330864508942 3.548894797419982
Bi 8.950265139282761 7.2291226928959285 4.567775921564235
Bi 4.054781049746348 8.836757965893318 0.7841875034382575
Bi 10.729707260634019 9.104554448050719 8.563413338480048
Bi 6.050970682185395 9.351785958597546 2.9523626262347125
Bi 4.532073785746518 12.619408989020181 3.226332536278694
Bi 1.547921827500916 2.222767416998417 8.465805132486482
Bi 2.930719519529991 6.998654008170158 4.540171531763542
Bi 7.362730010805982 13.784290896647011 6.898049867720173
Bi 9.083382599107562 0.3999626995622113 4.727686789211616
Bi 9.229998596964297 6.6918455361008675 10.67976093491762
Bi 3.075794671624064 9.119991291361853 8.819769340355414
