40
Energy = -145.8461396 eV
Bi 9.618871604189485 6.570878988568832 11.764710299002356
Bi 7.23586691929074 4.647016313773767 12.211883722490123
Bi 3.235557038753954 6.249038875506659 11.305882405766708
Bi 8.635262627424154 2.2385664545129123 10.931728308607646
Bi 7.705918789721183 8.285473695465491 10.09872773214266
Bi 11.359933804950987 5.0436223491080066 9.755917747530045
Bi 5.638499115667266 5.347838113615743 9.663358918782238
Bi 11.69952489175078 7.345692156654693 7.804583350125955
Bi 0.9042001822087009 4.841629479879552 9.895917060485276
Bi 2.0529948855831712 7.446182900031494 8.765432585245897
Bi 4.187804558213784 2.7353238646998044 10.121921587585119
Bi 5.293754560901004 8.929807830582737 7.064202066554557
Bi 6.379572624382733 0.6042567820359511 9.67033863105156
Bi 9.055028362001698 10.628493348023005 8.664842056803773
Bi 8.882543666528017 3.9475908212763464 8.463592432984433
Bi 6.214309341567171 11.644705622967326 8.10077454799472
Bi 10.136717333826583 1.5607580388860258 7.127605168641428
Bi 3.615106222346423 5.788480967966802 6.671851802790027
Bi 2.319896851454867 3.2050989136306454 7.728908898249874
Bi 8.714365567311875 7.9625624013087695 7.216573027679731
Bi 5.906030078374247 2.997002680643252 5.509667117293387
Bi 5.767581051212302 11.229604037492425 5.07672921738311
Bi 8.362858688665145 10.771667834192133 3.570695321296327
Bi 2.4810587412103495 9.49519040784897 5.661098133755106
Bi 10.411848159813196 7.517662970531582 4.0925454763049345
Bi 8.278181815152045 5.118011199881921 4.979967662314595
Bi 7.268156221806829 0.5676283097577596 6.744708146275162
Bi 12.220041490810061 5.544585295731041 5.369553051926063
Bi 4.314532997701287 7.913334242489539 3.678814318329989
Bi 0.9387027140090795 6.7834456263140765 5.027369006520412
Bi 10.382090209056834 2.9399895803150025 4.421684823296457
Bi 1.9443680356822108 6.631943509725623 2.1665642915148826
Bi 7.557997088737685 2.039722482594165 3.1890431997538853
Bi 6.809505757749952 11.239055924148124 0.9854637547392215
Bi 7.291941720929525 8.397585626303236 1.9779913612981006
Bi 9.651342072688054 6.526860360934064 1.2768115942677225
Bi 1.891559263783301 11.298788255438575 3.126110636255217
Bi 7.141697412212868 4.931914836466093 2.174162646033988
Bi 0.0742180085361846 8.988617694400862 2.682357273717422
Bi 3.98449403508205 9.919124223197981 1.388715409603565
