41
Energy = -148.38580154 eV
Bi 11.964131677033746 7.274271741893564 4.255690538658368
Bi 11.128249880747349 6.300257131896657 7.29326791206408
Bi 10.836211585293393 1.568304736346589 8.974843595158244
Bi 12.348111443841558 4.26182394066758 3.8498591792823924
Bi 10.215003858092034 4.2068017131270885 1.6330290345988785
Bi 8.964799097237217 9.934527524491648 6.643944775395491
Bi 8.144073258257803 10.474844083672666 2.8982600700397745
Bi 11.147335445380572 4.3727149860641985 9.911876072132218
Bi 9.524196811738156 7.232506795939053 2.3792539227321865
Bi 9.178412947478119 8.027646956855326 8.973021196849698
Bi 9.318733270045183 1.5615603047978384 5.755251239244052
Bi 9.64563071343591 4.575653256515539 5.139325684324972
Bi 8.064109835328042 1.5434567127782355 10.355461576267867
Bi 6.306237562311691 11.230005634676472 7.217222587881949
Bi 8.507427558571463 1.9066350729658432 2.690647935031767
Bi 8.489588141872753 4.011973635021273 8.47105873286003
Bi 5.838374313388204 10.00670710428078 0.9619120827908337
Bi 5.595149923133149 7.160389041356656 2.0173235841042456
Bi 5.895795888941007 12.02473874368776 4.270569121612766
Bi 7.48117106977786 7.965827797667319 4.557359357843236
Bi 6.827292983155699 4.531491053239241 11.145717842195909
Bi 3.7653161503566537 4.346621275963954 7.9578725395363135
Bi 6.073127421663197 3.791484782061104 2.3877129006892353
Bi 6.478456950561792 6.518130829565973 8.80624639303213
Bi 3.324952763443248 10.88221478612909 2.9761014873962943
Bi 5.892991827442065 4.85240238086269 5.270420316755814
Bi 4.540216175811803 8.7024977764481 6.815290636690525
Bi 5.837997280749166 0.4932307217533072 8.594668418453493
Bi 6.26615437775456 1.7677641830068014 5.815568152737297
Bi 2.541211980918641 10.906219171991046 6.031416174953283
Bi 2.6639365243630304 7.922019526942534 2.3651555557580566
Bi 2.1384047811373095 6.9911747101385275 5.245697733876081
Bi 1.9388075550273136 2.583689692514724 6.233475875010844
Bi 4.431240559759133 2.6160997016521006 10.341222953780433
Bi 3.272623377219502 4.006529386246033 3.8279588898092594
Bi 2.930939223216589 8.683017792699046 9.448304133129897
Bi 2.1461392666373067 5.761892580060315 10.096419103479619
Bi 0.08132796093773441 9.216929470495158 5.589578169332379
Bi 12.85235245040892 4.8337513070995435 5.757231808460778
Bi 12.348111443841557 5.686821257904632 8.62426102732385
Bi 12.859540482442736 8.724604933236236 8.564068670918788
