48
Energy = -175.6419957 eV
Bi 10.664854642211248 1.5040812597334596 9.909779210776271
Bi 9.750767211649912 13.264524792431114 6.093422069396922
Bi 8.260084884807538 1.1297550776658816 8.076117122941282
Bi 8.085958177098153 0.36991499848835574 3.6539568224400356
Bi 12.208290438537965 2.9954463751649594 7.6647274116317075
Bi 5.25100475402716 3.612046134616463 8.615792339800636
Bi 4.415502286914316 13.50238490619111 5.945177909276192
Bi 9.752601349819514 4.434905591269131 10.363144981181138
Bi 4.584305984509021 0.6076825470083238 8.884812767026217
Bi 9.831860210014565 2.8667612987243483 3.268274352678782
Bi 6.839492355530009 4.198190984643649 11.20507818417829
Bi 9.341703854691136 3.9994539211308355 7.352353482293727
Bi 5.161930939391602 2.2303148930425096 2.242826517859024
Bi 11.82733141471206 1.379758292105828 5.112342641315352
Bi 3.034485386469059 4.113799596333226 10.603012764151641
Bi 6.060152489954574 2.0724647523502298 5.147016107228556
Bi 11.883043049745211 6.256336917779867 6.2448144450745255
Bi 3.4413177689272048 7.157978102292234 10.659689523822113
Bi 6.5358206425332055 7.1413226219463395 10.4145466141869
Bi 2.7705809667579806 3.5527413346445105 6.054988468292408
Bi 1.465094002571647 0.640602143753137 8.64818803131131
Bi 1.5850608346838582 0.7752657190283258 5.588031903287161
Bi 7.000746551726953 7.215605852444399 7.319956161984018
Bi 6.988087800660065 4.562739973941214 1.363787154643249
Bi 7.8458450763554035 5.07170617621254 4.2761149665885645
Bi 10.361370441017295 6.692984155611401 3.6179193010491097
Bi 10.804218775908662 9.073109651042055 5.495518190268252
Bi 9.914568434307734 7.754128143865272 8.139531488741355
Bi 1.492429784921051 6.262647639852317 5.430275051235235
Bi 0.9140513052407688 3.640263968375416 8.479222096692423
Bi 4.001280431472673 5.0149127587357 1.7368951725489787
Bi 4.200054909348153 6.947443537244794 4.1094960751313705
Bi 3.4772602890941866 8.160559114249564 7.78783522516618
Bi 7.3387026277686145 9.165562900894251 3.3448257114408295
Bi 0.09112343577041222 7.221809147181656 2.9023714621747403
Bi 7.313683215018753 10.175733364907769 8.081261393446463
Bi 5.520922280317262 10.474097818674348 1.1622086488371302
Bi 4.115672082074145 10.769189871145105 5.00933229325598
Bi 8.491140282462638 11.064266359520117 1.2573752294105511
Bi 2.738154835261863 8.296974134216997 1.7297757055388772
Bi 8.1671244938559 11.330696351454067 5.336307948757409
Bi 13.656749365036454 9.826056192583664 4.5140819230323395
Bi 0.7691613782710801 9.60553651038718 7.425752656626604
Bi 4.451397494963255 10.68377287221088 9.183436454507511
Bi 2.0402589157045212 11.098355266298045 2.8373660381216395
Bi 6.45005497628349 13.264524792431114 1.8841967441503857
Bi 5.864067767417084 13.24442852185603 4.862405555454631
Bi 2.523096829704217 12.10724875099159 7.227002151006157
