40
Energy = -143.3309976 eV
Bi 11.399068688774006 3.9736317764100226 6.479540492840375
Bi 6.435550951485098 6.4144156264617305 13.002646580590419
Bi 11.609063574063466 5.806054295651666 4.020443135593141
Bi 2.0387214275611876 8.13116045418934 9.763878831075939
Bi 2.674362141910852 2.427529454325382 9.805111538062814
Bi 7.992630514573497 2.7307142825052417 8.10707612033737
Bi 5.359069399051886 12.91309316312524 5.043325172525064
Bi 8.669180398500632 9.772994116871214 10.204847492004676
Bi 11.33875289693258 10.890620142389883 11.164540422312776
Bi 8.234150138869902 13.034144448970563 6.038593815278524
Bi 10.839456190319689 10.486573959596274 8.20127384072964
Bi 4.271799514948212 2.1073006713375673 3.316884716286855
Bi 3.106969075295819 4.838866282818082 3.8261880784962705
Bi 3.0004370889624172 7.981757810340165 6.003170071836114
Bi 2.3853107185476277 4.9508488523361915 11.477787850153888
Bi 10.938889314353741 6.645825094294857 9.0021057004214
Bi 5.987411365556309 11.717106202296616 7.730669430636778
Bi 2.7571696264966272 5.323569872256163 8.395920576133882
Bi 3.847886992034332 8.722530152428936 3.17428551673851
Bi 9.456133152613631 3.68821752945554 4.093090635883649
Bi 9.28366390314402 5.956128906348276 0.4984757925396749
Bi 7.076125492131784 4.058770864128411 1.3529079264027708
Bi 4.776369782813136 8.448009340971536 8.575477324117104
Bi 8.642825200201857 5.273583723218695 6.543739577777811
Bi 5.419983065132236 3.80256583830869 5.554155418947609
Bi 6.149292719629459 10.657062186542603 3.0361010823551875
Bi 6.333851165367721 6.867600501501911 2.5676376835458963
Bi 2.612980771669146 2.635022953126985 5.8625431566465975
Bi 5.3648301303151005 3.912457944945003 9.488468649853873
Bi 6.143756175745218 7.6598746126217465 11.953516722290686
Bi 11.17428777968747 7.238954097120124 12.00371283848313
Bi 7.686134544040695 10.04646699119709 5.682210513430037
Bi 8.923443698885256 8.652271694291835 2.129688016947042
Bi 9.201273321426727 4.53697084742802 10.360752484614105
Bi 2.5383158686598626 10.413219826926335 7.700003575061897
Bi 10.45095045252991 8.53371764733438 4.697831725904302
Bi 5.277796821367348 4.793349754044921 12.457023254296384
Bi 12.194233504966814 4.542365306915188 10.866609330325288
Bi 9.367019971961831 12.68513944264075 9.673069461395892
Bi 8.454490006847616 6.143150879701893 13.002646580590419
