48
Energy = -174.94159318 eV
Bi 12.1639020951134 10.739113207161125 5.053905142039869
Bi 12.393238684453094 9.779439451241153 7.952596756767431
Bi 11.87372752687796 6.794223526192504 7.480091636287749
Bi 9.81222357511902 9.022874093558462 4.094085580319593
Bi 12.26923694596856 5.978648411440916 4.57849763781425
Bi 9.134514382002267 11.540387872842388 2.488240331216504
Bi 9.747366882754777 12.5963818821103 5.298589781881118
Bi 9.996717943866605 11.3668673635536 9.042777446778667
Bi 9.093480335022825 4.758102081001111 10.393169239358254
Bi 9.162781103394718 3.503251684169231 7.600083223847632
Bi 10.496643132270355 6.765468835526512 2.1715335926718384
Bi 8.0629372317153 10.477615863921478 6.847082560251489
Bi 8.31685185603295 10.07821084522004 11.244274117036774
Bi 11.581980342118362 3.2187879090694778 5.654036608930592
Bi 8.892001922044566 6.578463350456745 7.908958110713757
Bi 7.421638453735988 5.295900021119784 5.012646029270113
Bi 6.5221574186238565 10.47375028640687 3.7419630117479383
Bi 9.249633259595647 3.1135399426583428 3.7142946925703213
Bi 6.148170539818502 12.6847451460539 7.64103848958598
Bi 3.7826855642251775 11.825081298555077 3.9105060769214166
Bi 6.124559986434909 5.1007426283925215 9.735306720854215
Bi 5.787922589541751 11.566294507421292 10.457420436013571
Bi 6.159807069991145 8.638475166041012 9.525105596253075
Bi 7.525454943701042 5.90761253469577 2.0167390476178255
Bi 8.224111843444987 0.37021584946237107 4.597410550220148
Bi 5.66886412670792 8.319398191268322 1.4702867651664258
Bi 4.259022980478341 4.811909699662007 4.409197367693433
Bi 4.23780275542895 3.619941659915255 11.624679166054662
Bi 7.027923508363096 0.7068243217072476 7.3621058239696975
Bi 3.3906002096612244 8.723889583709433 3.5399066997315027
Bi 3.7484473700993393 10.946812917135613 6.859260715463948
Bi 4.6510851649051626 13.301070943367042 6.901366819450754
Bi 2.028705813078888 5.720627339092139 11.557211824010052
Bi 5.0991789879996015 8.27365342486247 6.147890503662681
Bi 3.1807707960133906 8.313499448784237 10.362952958667467
Bi 1.2590550974009642 6.531228108546092 2.6173825718895323
Bi 3.262933680039842 6.500075186390202 7.928010880725877
Bi 5.346036737461819 3.231410032037449 7.30466395348853
Bi 6.029575695489117 0.37301813398067135 2.540772853893613
Bi 3.584591061123804 1.6876380200033296 9.35163242640727
Bi 4.397793396513007 12.684745146053901 3.9454581770985544
Bi 3.7968841207909767 5.558039554013645 1.4234812615502945
Bi 0.4253976853535613 6.936876288113908 7.015447336913563
Bi 2.4665306083443164 0.19368973205705448 5.337626829414025
Bi 0.05948818194602791 4.890780779504435 9.328986213815243
Bi 1.3012413647312495 2.6736383897605496 7.672002785376892
Bi 0.9759139811314408 4.639099868568324 5.078315349285276
Bi 3.6152290624690537 2.1068185451434513 3.1897597489336666
