41
Energy = -149.17218692 eV
Bi 3.998851026935424 11.190133124491053 6.444186333212387
Bi 2.856811274252346 3.175713571999548 4.832386510199206
Bi 7.6350269370827855 5.847612751540459 8.602541913174965
Bi 1.501607559564974 3.3177721841543986 7.556311474024843
Bi 7.202109734310868 10.160774773864844 5.22287479976233
Bi 4.228738489728156 3.514467358851873 10.908991200634468
Bi 5.880726794784259 2.378003864102192 3.0746622260322516
Bi 10.359745897975232 4.381575489683192 8.472432077706134
Bi 9.391601888954483 7.730410347807764 5.930720743011365
Bi 1.134986710359033 6.47804405366092 10.786468085099287
Bi 8.053926270222545 4.582414360644446 12.63198965893009
Bi 12.210135576677034 6.287810750618876 6.843984012139396
Bi 1.796283479439909 9.20065725943173 7.224576200899184
Bi 8.957916483857124 4.5152123129958515 4.338993815659965
Bi 9.835920933695673 2.29876852219801 6.316406753254525
Bi 3.697149291659367 8.224496426897398 4.02013198891029
Bi 5.487001805464137 7.1231179534975935 11.069176930818465
Bi 9.501502319089653 9.540929795298482 8.496135341593469
Bi 12.713165146133543 3.2789394087154444 5.886414973646712
Bi 7.912384836813929 12.27001055002092 7.335255005765377
Bi 8.807147923464989 2.496387379922514 2.0886551010766317
Bi 6.352025263043873 6.887708536427458 2.8982137791942635
Bi 2.5188216547600084 5.656114030851586 3.092593627712523
Bi 10.25024235592494 10.291842331949818 4.441998187855209
Bi 6.14236777056691 1.6690737689573842 7.355880999213854
Bi 5.3221917307717606 12.434350679447908 8.862285447432285
Bi 7.179330256794491 8.724798848201344 0.6096876945596594
Bi 7.0976987611283375 3.1106394633093943 9.9008333599508
Bi 3.257101942507805 5.500086531245248 8.781431557875909
Bi 3.439895524977526 1.3337956098265378 8.843300397344159
Bi 5.004390516153699 4.689304370080407 1.207412273358333
Bi 11.870731904045563 5.441249756212976 3.9370704856875545
Bi 9.448593301166131 7.2106213902044445 10.688686826356244
Bi 9.350340178935877 6.811055557720815 1.424036290778807
Bi 4.632597658903214 8.16765943259741 6.937026180572204
Bi 5.5999885296793845 4.133788817719269 5.664415071868596
Bi 1.1096851282740847 9.458773401351754 10.17639885441436
Bi 8.127474903274416 11.019806878394578 2.4138510766454084
Bi 7.576496415213323 8.618047424879656 12.63198965893009
Bi 6.685570169843957 9.801944014485665 9.894608185708268
Bi 2.9710797018685096 8.37110009288531 12.298630063071071
