41
Energy = -148.67325122 eV
Bi 4.999595775412035 7.699174031203118 0.9662382280243023
Bi 1.9634105819004097 8.194748520990565 4.505196946375538
Bi 7.227505693518035 9.584228667915102 12.608858981295645
Bi 6.256717481674821 3.506876239280807 2.5930979099806737
Bi 7.15741804965796 5.599996134356013 0.4548383630026384
Bi 4.28242923437902 9.974834703060194 3.6866835734370453
Bi 2.8796791742767684 5.382978936572993 3.777182557497547
Bi 3.5349164434661717 12.430646162901994 5.3185109968888025
Bi 6.477033412898293 11.587690056974923 5.116592742245146
Bi 1.1559328524004597 4.04694072894412 5.971776104540936
Bi 7.113753069787735 7.154056711902602 3.116778964563348
Bi 0.886362596061262 8.910467889938078 7.312824524741846
Bi 9.759257778483924 7.682401771998315 0.2540921122583674
Bi 5.636591061834945 5.124598022279065 5.120142106999555
Bi 3.8199027594007986 2.6840262677527233 6.812258503970824
Bi 9.28841640878877 2.8458471638360883 2.769179080336505
Bi 3.036532724343426 5.576640068634804 7.738044233295069
Bi 9.005029394014754 9.63446206420052 2.4021666468630682
Bi 2.8560470952704518 11.100953763389164 8.044685106389759
Bi 11.058458586182411 5.016609332063276 1.5797720187816795
Bi 4.972493924473126 8.92908254402487 7.770997245132269
Bi 11.232802236632955 6.718173472989872 4.121284445167044
Bi 6.533380370998862 4.563320866182169 9.02054771230797
Bi 1.3205844881712892 7.904576356712014 10.204777457173495
Bi 6.227081685268765 12.430646162901994 8.274783084725012
Bi 9.246775600715994 4.581674151543805 5.26222654973247
Bi 6.7672578372121 11.43016541974689 8.118187953604792
Bi 3.7642070462970456 1.160079180767957 9.49353810385085
Bi 9.513573108105987 10.150233440820132 8.529192208268826
Bi 8.74610303158336 7.92888823566005 6.6141303286712505
Bi 7.398136676112042 2.256111152581452 6.825179947653291
Bi 2.087163603979663 4.923147388528472 10.509981123494512
Bi 12.133097603677639 4.577599701040052 6.105119234852909
Bi 4.76121583200808 5.860399511595765 11.606340223686752
Bi 8.062415685130134 0.5159721035797137 10.612769344142114
Bi 5.840616617222269 2.63068229318276 11.220157043586706
Bi 11.02871854181172 6.567799086590094 8.18303884635789
Bi 4.222243942378756 8.771426961840856 10.74685369983599
Bi 9.734166365680029 2.2363055211011402 8.75416841012251
Bi 7.666194854149123 7.894840180563846 9.518428796699268
Bi 9.335413398935756 5.014409093961968 10.270624892102028
