48
Energy = -174.65910586 eV
Bi 12.37837825447933 12.438314527259797 7.796040099605629
Bi 10.50221084557293 10.554694739376231 9.35159939748602
Bi 5.555597887871542 10.20357546631746 12.967974928369914
Bi 8.324192671318995 9.26101273909574 12.038496751121084
Bi 7.898177685484433 12.771444898138448 10.405103456564984
Bi 13.091159102578665 8.893783683108872 9.535434167730973
Bi 8.734755375800372 14.228283633099768 7.863202327448796
Bi 4.160133939534108 9.823119730935684 10.257548615200939
Bi 5.970772229259318 11.497814585357101 8.414414232166969
Bi 6.260907544783833 7.231391499297173 13.062797944374092
Bi 5.885679191446084 14.510300401678188 8.912024225680463
Bi 12.42814051846271 5.96358119585048 8.952886172154399
Bi 11.361400283778137 9.150532226833423 5.083590598531098
Bi 13.819890780839419 9.908334959810599 6.802034234426136
Bi 8.294558160112189 12.082187426587593 5.685635252104816
Bi 9.178203353912842 5.204323528044688 11.575858813372061
Bi 6.507730345670963 7.820935776409352 10.022463624755034
Bi 12.579102153557507 6.105451207389912 5.931072330298725
Bi 9.390803195298844 5.928576274963388 8.576248581929896
Bi 4.1655305938416625 4.996752517246042 11.257675096596355
Bi 8.966053033166846 9.375528860444167 7.005811047647537
Bi 11.251192737696762 12.305473932589395 4.9716472425712075
Bi 6.7136037028782685 3.360794726230757 11.599652200343233
Bi 3.0430726193710624 6.613095538435447 8.853519503142472
Bi 10.28087484401004 3.182845497785697 9.496391757222405
Bi 9.006261800671686 7.1934572030991735 3.2295945913902555
Bi 6.546588005380348 3.7283752472610754 7.173692279188305
Bi 5.226679573449993 7.170028409264341 6.691598087517161
Bi 6.723219813470791 9.768570553692228 3.5008631033870996
Bi 6.494033647140421 5.599424656722274 3.843512824370176
Bi 10.506909083188246 4.099646578348668 5.510250519729971
Bi 4.482875910975803 9.967568585676652 5.489818953615966
Bi 2.764463347926958 2.46311059066844 10.221226653258425
Bi 1.6290913914007492 4.037613619804955 7.8750972005711875
Bi 10.529985296305922 4.4498606129172105 2.537681223285091
Bi 7.559023904271564 1.7201276038130526 9.200712069253832
Bi 7.126704568389696 1.6248850645747828 4.955815610061827
Bi 2.587162042543788 7.580279884081793 5.17883192351604
Bi 6.4853605586209895 7.534981701765613 1.4553684393812778
Bi 3.231273693553007 4.087425120432052 4.964349516262392
Bi 3.1013386585597273 6.512406226459747 2.330030435290357
Bi 4.07879464564091 1.9713010400507132 7.5182841210139335
Bi 7.7747774905608775 3.1694925497724222 2.4073045187352213
Bi 0.4247569886615027 3.1908065638869783 4.058016086361513
Bi 4.293934601179867 1.5713158265966887 3.638693160158615
Bi 4.211764405382807 3.723621717376779 1.4406104781013962
Bi 0.14155674090108356 5.493178088252503 2.121429988611976
Bi 1.2399926354473239 2.8390428375485524 1.146765470444502
