45
Energy = -163.66531783 eV
Bi 13.506049238412517 7.16808811874083 7.765049095676071
Bi 12.105389676026176 6.910248144422297 10.483654792666309
Bi 11.824255949451336 9.55476449297375 6.927573238810906
Bi 10.215139443620721 5.7122791848702414 13.729633792575685
Bi 11.399297850567528 6.8542089173338345 5.523040669055894
Bi 10.521843463897872 9.449463606481645 9.741074955923542
Bi 8.113394043386284 7.678838193990424 12.710541206540505
Bi 11.072864295145104 6.420723388054371 1.8095981418772193
Bi 9.9908392945748 5.2064469282511245 9.13421403807966
Bi 9.50107156495313 3.544121822140146 11.663434717954546
Bi 7.458154050228606 11.451930542255226 9.341993729978494
Bi 8.44427391531079 7.284231434335278 6.254659441686478
Bi 8.886130848243164 2.4487985567840616 6.7791844506226635
Bi 8.057958740918517 7.559719329415753 9.649940643213885
Bi 7.3569232901160975 4.801357450151512 13.374549114084292
Bi 7.123440631194396 2.224437985996012 9.2623108462927
Bi 7.2969291707189115 11.124527523125032 12.345726564776534
Bi 8.740250672119998 9.38002240925666 3.9842016338872304
Bi 9.729065422972134 3.993898342526777 3.372696897498876
Bi 4.545123925841119 9.87243212356057 12.782413347532987
Bi 10.605538335972343 3.7370079585550866 0.41530449941998765
Bi 3.3017593303613046 12.353095207816645 11.496551508319554
Bi 8.671738734143345 8.124222092918588 1.2195963113155777
Bi 7.249032392446574 5.599606579398063 2.273294882385103
Bi 4.512747445697973 7.844812459150983 10.513940335378445
Bi 6.022798576493203 13.592635411972354 10.96218497260721
Bi 5.225318542201735 9.694851028392854 8.229615088644962
Bi 7.3895067302971995 1.8215802305705802 2.3578403383929425
Bi 5.733629824084171 4.902724793208912 8.584692339195273
Bi 6.556219754339366 0.45674226143816893 6.820292380811995
Bi 6.89385356397018 4.583574894040777 5.756329502232833
Bi 6.074463728949392 10.791929453005134 3.4914200949896217
Bi 2.7243225624377163 11.39250738535013 8.693705510917919
Bi 7.583141317586903 3.656532268044869 13.729633792575685
Bi 1.6256082524690172 8.707280466133925 9.605379813859921
Bi 4.718351175836511 7.1910494397123434 5.14469312374183
Bi 4.962449507890434 9.3838763952364 1.0722355517912847
Bi 3.099701931309746 3.6270463490004197 7.730749391351024
Bi 4.879262020682818 3.1994128285226626 2.9917271585715444
Bi 3.392395308264006 9.994766518200944 5.14280272047986
Bi 4.092123202666035 1.7048724012739143 5.573036820145776
Bi 1.1345174574902082 8.168979509834301 6.659839879110261
Bi 3.8780695057211036 6.749122993631835 2.2361343211983784
Bi 2.1527580071104286 5.530243995548738 5.544891331499347
Bi 2.202586644094359 9.329073845984189 2.373528940321721
