42
Energy = -151.90919423 eV
Bi 13.714303989737457 10.103761850662208 11.10733012390333
Bi 10.949262588001053 12.80028423757882 10.516970192561875
Bi 5.858987859926742 11.952829336418922 10.24134305458929
Bi 11.018783124532783 10.441477164497712 12.458731775731156
Bi 12.224100727888622 10.933441109805848 8.461098724202916
Bi 8.36436891287254 12.884273419868144 8.75548502495484
Bi 6.418771880422361 8.97104558781459 10.841022026756544
Bi 10.71165588656197 11.452217653345457 5.2431901123465074
Bi 7.9086469100035615 7.857941276655303 13.30185902767377
Bi 4.9068832559205875 10.62003703097998 7.657633769663057
Bi 13.358438649420659 7.064667666139542 11.269166002385235
Bi 2.5412589980026246 9.18037227245217 9.014389676134826
Bi 7.688420039774449 11.720844064366213 5.473896608818612
Bi 9.262525829540147 9.946889632760413 8.826308193735759
Bi 10.266342084209924 7.715322651369515 11.180166492523174
Bi 3.5257240842433286 8.765158025437065 11.858195051262124
Bi 5.9533364391384085 5.913079289726209 9.264751405723539
Bi 6.917865603431095 5.311214665223162 12.122424499567384
Bi 10.658992730387833 12.93989307683278 2.5216480121338596
Bi 10.527045892790413 9.924053398139556 2.5961283182658628
Bi 12.097397539380227 4.107824937906188 8.802280783312575
Bi 7.971468858601267 11.545080107966648 2.3331385612850943
Bi 3.0289779375272543 6.356352868902865 10.051100839417014
Bi 7.303871031818879 8.914679534820534 6.6159695282801945
Bi 12.248731827155959 7.029884022629471 8.502858353078102
Bi 4.86885178679783 9.944464987077838 3.79055253106427
Bi 9.380710766030875 3.9631980726663882 10.673189224080597
Bi 3.5584374460452706 7.649266216875848 5.388111597319262
Bi 9.033326743277422 6.5497772168841735 2.715206882077193
Bi 5.0889147495396125 3.016799591736701 10.144635642930163
Bi 9.219152926369453 6.172727916051943 5.737905495314547
Bi 10.830601728117704 3.5517261117177337 6.088743082958194
Bi 2.186543562123359 4.036853029288827 6.197889728250655
Bi 6.411148269841274 8.002007643587373 1.97414276372573
Bi 7.74483612373832 1.4395869524463176 9.959389470703734
Bi 2.990355172632778 1.8741661463918402 8.15581935915531
Bi 2.4162162374562195 8.45398051280345 2.695708292606695
Bi 7.718881904534825 4.134618289129304 4.006757248224762
Bi 8.2252206979105 3.4903979274212324 7.789174333858039
Bi 4.336844313565028 6.010744819489391 2.9385847073143103
Bi 5.330218963128562 4.180278734481013 6.080087712678198
Bi 3.845299208663197 1.688504230714146 5.25873905049487
