46
Energy = -168.09517194 eV
Bi 5.925416577681034 1.9039128007123145 11.511997949849347
Bi 9.957653257977386 2.2570883539442317 10.170769643557987
Bi 6.707442109221707 4.592192273474914 12.797996638583713
Bi 5.968601180936057 14.059133194588844 7.8433216108472275
Bi 3.348605317811176 2.3486692372352627 9.857097209844365
Bi 2.6125447351441187 4.934621545347073 11.30031537812901
Bi 9.54607917872012 4.8389540325392595 11.73687273938094
Bi 7.132890557119411 2.6424262849535993 8.830369540288247
Bi 7.713389041191475 13.299534164762743 5.4770435023771205
Bi 11.888915894370836 4.298726405592006 8.935169282751673
Bi 5.337495196339405 5.83561804968245 10.340386769377885
Bi 5.280922868479634 0.9433180708173418 5.030349535227118
Bi 7.187254865774159 3.416665745177766 5.081332349197205
Bi 2.105066556670305 2.735898270479806 5.729501221584805
Bi 2.1153564872012063 6.315402811970037 8.589194360575709
Bi 4.220022697131835 4.212086414667119 7.4735147808890146
Bi 9.375141537821701 1.5899131659496375 6.2731197697101875
Bi 3.8191149852202924 8.507742928078873 9.88419293943341
Bi 9.07280126262325 5.546526552288614 8.69900457137045
Bi 12.890049774774932 4.119881188426696 6.031767848460243
Bi 11.759905041659389 1.7917573375975528 4.3646662746310145
Bi 3.146126179903734 3.348506018209433 2.9135826347873537
Bi 14.131364985329155 4.9306833817235445 5.612190506056317
Bi 0.2937976731214932 9.706217040660366 6.100105816963262
Bi 5.418581050135808 9.541995000886113 7.470200292583117
Bi 7.9505283225423495 3.055834513863402 2.154335538865981
Bi 10.824740963755337 3.992260972475123 2.46028491001257
Bi 1.9106181728677212 7.332563689319562 5.155582679866617
Bi 0.3056660670700264 4.484585207157704 2.5893992678141498
Bi 6.484053435609335 6.802008904275954 6.424860336628181
Bi 10.253180688468412 5.315421453777726 5.153548856363394
Bi 7.161997574591896 5.9388649604211405 1.4970619114003723
Bi 4.601732073879518 6.075732987995946 3.205054846516168
Bi 2.6316819675764918 10.999541803011246 7.5198711702717445
Bi 4.393488373272831 9.750964948521242 4.002577693010524
Bi 8.857387623455233 8.466310010984978 7.5201303710482765
Bi 0.6779344441695749 7.5168469563791 2.3541092480797046
Bi 2.0967979386734665 11.682431750923108 4.597180569181105
Bi 5.93257339147831 12.360352577430064 4.677754534306868
Bi 7.697671665590256 8.06793074280548 3.688413529383571
Bi 10.516646173567072 8.333406980933354 4.917733006245372
Bi 3.2617029953155 7.25853949148474 0.791745884348756
Bi 4.448987987150876 10.198952286447536 0.9140097458590006
Bi 4.618865038232296 13.299534164762747 2.16366689653211
Bi 7.433420926817355 9.704803301527086 1.0245000910791107
Bi 7.5739875550849725 12.55587575250427 2.1325957906167097
