47
Energy = -170.4197375 eV
Bi 11.338805632918188 10.316013976541914 6.728754798983654
Bi 8.211502369599192 8.02353342211849 1.428477825233778
Bi 11.032908221940348 9.058818377238076 3.9418224541191713
Bi 9.281646936708503 9.330734614510913 10.442987191975348
Bi 5.388878337355119 7.960966179289687 0.234458332107163
Bi 6.20810979640989 6.7735963049208765 11.123500997548614
Bi 5.055932924538963 11.300478072509033 9.01206311337766
Bi 3.7077122443630013 9.058875067265237 2.6437663633696658
Bi 6.23823557375882 3.6599309193975733 8.853800628260988
Bi 12.984984512959855 6.348679298475818 7.898058126001433
Bi 7.320537705439975 10.899590439066557 1.8583456629311186
Bi 0.6696935987273287 9.662534901492439 4.927343514942596
Bi 8.40891039339368 11.473329989208535 7.012458695075147
Bi 1.0894369022005133 9.174218750508606 10.754210592693822
Bi 10.849335668223357 4.574399603255985 6.552984248830038
Bi 12.14307679848994 3.737129088958464 9.208744942857887
Bi 6.886660037480011 2.0212275999386993 5.254572355645452
Bi 2.86219511644023 7.408151589553423 9.073457668436488
Bi 3.2960812280900216 9.773652818335117 6.674745056565008
Bi 3.129084269798205 3.1121822310648204 4.558719773171757
Bi 2.210370473957246 6.596673895374242 11.981590475046788
Bi 9.22198330380591 1.5059604185574373 7.2086394826734
Bi 10.390261483831646 0.862217795899838 3.0754133150496283
Bi 5.401878876672714 3.863296458695066 11.768210229424824
Bi 1.10947577604194 7.348972470034164 2.8643208005503307
Bi 0.6923257190590577 5.026878865950341 4.802305284593422
Bi 6.112505509057505 10.912162079007919 4.686745192918914
Bi 1.3606738582333182 5.061616928826063 7.814971773344229
Bi 10.294118660322846 7.812421506184542 7.989667845000765
Bi 9.063563278755225 6.819098987959391 12.194591852330973
Bi 10.130205025672705 5.005333790449323 2.5141658714401673
Bi 6.981818671784123 9.032633846359095 8.333857248107998
Bi 7.087017879938563 0.790815899910587 9.328601496624234
Bi 9.444146329901399 11.631279432310276 3.885727813379091
Bi 9.32798078914337 4.769893832227869 9.925524151407117
Bi 12.071171390597137 3.2000099278602363 4.11959074497775
Bi 4.196332936822416 4.797449349103048 6.824468947467423
Bi 4.497082461534067 8.206804630025484 13.177909926794642
Bi 5.287526857226847 4.876562757812645 3.3357208930545807
Bi 5.292203937810002 7.886138725730374 5.0301432761936935
Bi 8.612213250922109 12.385981992251054 5.108209745031954
Bi 3.6014093275708037 10.720594771788349 11.635540084670458
Bi 8.686172630449683 7.095579116097033 4.348250036557397
Bi 8.188700304382767 2.4961106073467447 11.677135090236687
Bi 3.563760214033594 5.746290551241089 1.0929271428539495
Bi 7.985404245597367 2.8163331402414284 2.4957707508026905
Bi 2.792088263023324 11.714416298775934 4.302847912322774
