44
Energy = -159.58632424 eV
Bi 1.0642498451581615 7.63087608350463 2.1375973107261226
Bi 2.1818199487916417 7.3372038180042685 6.42674209875445
Bi 2.8133743409000993 5.168110813804759 1.9225094301789694
Bi 2.8777519066122625 4.323851951198062 6.141968704210575
Bi 1.6488917302815709 10.848406443410735 8.065582477848816
Bi 3.1317855958296956 7.425432286006233 13.376407932515285
Bi 3.470713873405187 8.916475939944192 3.6253061205733785
Bi 2.336850306012189 8.102415266345979 9.337048765386317
Bi 6.4720936637372946 2.109448140393967 6.068623948228758
Bi 4.774325664684657 5.791660837724807 4.211456084478911
Bi 2.6212549276901784 11.40224665076037 5.193712536953361
Bi 4.33512715025042 4.4953853836292375 8.804136869810058
Bi 7.2362355002273215 4.1693243242315745 3.3332269620276906
Bi 6.888682115224328 11.724681456597974 10.71994758064918
Bi 5.519809875500815 9.239894810587511 11.84054579018076
Bi 8.572641469858505 6.2520496741207765 1.5619787598248485
Bi 4.716758375933864 9.824901668208275 0.9780161737444593
Bi 5.364032135915066 1.5797703644398782 8.926587441145221
Bi 4.974992633475607 8.086347556796118 7.725879136735507
Bi 4.737331025328276 11.190700598719946 8.130702093611978
Bi 7.125021129297685 4.7859211016327 7.4526230464023095
Bi 7.514987322603897 3.4158485243440704 10.289204127573267
Bi 5.427952438999064 12.628563991482979 5.505985039205588
Bi 7.552174368489199 9.120958987880256 1.8604752433118654
Bi 7.513753351341286 7.177152268276979 10.63816476764925
Bi 9.078192773148702 1.9259383568228097 7.624810474223429
Bi 10.090754695883387 1.967097775956001 11.081413297542301
Bi 7.842077686917681 10.50426821271379 13.376407932515285
Bi 6.857348532699235 8.539667638893478 4.763328190522185
Bi 8.273977782084588 9.970886186977976 8.576133646547596
Bi 12.419581306221252 2.8197538682944816 9.207261723475215
Bi 8.396080876678136 6.00077148699125 13.343785036558673
Bi 8.11088691171862 11.162593177447555 5.714231426184657
Bi 9.093369898083337 6.288737892024858 4.609972572349439
Bi 10.66122750284148 6.99200851561049 8.845738755669693
Bi 11.838531457244596 10.125745241430426 5.753040151987108
Bi 11.191373633457516 3.6842341028668955 6.571835359850149
Bi 10.92678435062651 4.3656538912090745 12.824057023379797
Bi 9.834634687620287 8.460683153077309 12.304583425509572
Bi 12.667385305351978 5.567514859197395 10.615217041788917
Bi 14.214230150651156 9.172753830218547 7.425181090321835
Bi 10.948154978689388 11.39121441376892 8.385029925896665
Bi 12.458431936857986 9.247885850685968 9.967330116954715
Bi 12.265607104288136 7.106204870378607 6.238000206307598
