47
Energy = -170.1183955 eV
Bi 9.748046348850266 3.103657939805293 5.0223950450412085
Bi 13.288697189060176 5.3811022118645875 7.613213707749302
Bi 9.489870483362283 8.574514588887565 12.435692834956136
Bi 12.165292108081058 8.220731229238043 7.767429633226015
Bi 11.533743547243464 6.5798774394464115 13.389400721557575
Bi 11.85388468168161 5.775649627391555 4.400288550401791
Bi 9.782218537607132 6.3326467180663535 1.9861230528505613
Bi 11.28355593559774 8.620313655560441 3.325221519609363
Bi 11.09246576284785 3.254278033885756 7.814817429486203
Bi 9.467840107487703 11.955975067828046 6.7470052319098786
Bi 10.502404791212008 9.81132796948037 9.854437185949548
Bi 12.324231219997916 4.8971120034621265 10.939790753849493
Bi 10.451167556913944 3.757003731905471 13.167942282252874
Bi 7.01965960881468 4.47289482728992 5.410089379495592
Bi 8.578342304538621 10.235028949946832 4.415925545485942
Bi 4.965516553922199 1.4766837975803486 9.815354596184179
Bi 5.610496222018264 7.2195407116766965 0.9152673674975293
Bi 7.646773468055586 1.424402753413464 11.239500279218875
Bi 6.678478670533571 12.86569393166862 5.760402941994469
Bi 6.722000905608271 7.852623941354528 11.244208368094796
Bi 7.4922969048204715 10.01739861945467 9.140725915120967
Bi 9.832280875179318 5.584992343660155 9.332796796474954
Bi 9.90000804636462 7.416032446828624 5.9401300925196034
Bi 4.232542656050731 10.959858645922036 7.873781872279371
Bi 7.940461450099033 4.4683897318311185 11.608412215763986
Bi 3.463524134453458 12.58628338444173 4.0055622779347555
Bi 8.334582242877554 0.5429355538999865 6.007916326019154
Bi 7.514726729523333 2.44611107330395 8.35104519165291
Bi 9.11625758179929 13.237478568320773 4.003209434544165
Bi 6.636099797718991 7.172213894619773 8.221644617711659
Bi 3.6724672311081092 4.1883123513733365 6.861503445641783
Bi 5.19034596867959 10.154087313301002 4.861528837307711
Bi 3.0997649023711578 13.73589249296192 6.8153905746942645
Bi 3.790404463802511 7.7312849337427885 9.344960326904499
Bi 4.9419365511716435 4.574267202140503 9.643968669606064
Bi 4.992995009385551 10.091526008105685 1.6174894877850199
Bi 3.6798342963965003 6.749840236664624 4.559232395145543
Bi 3.9851294055635917 1.2592494201091569 6.091234515918426
Bi 7.222056575162511 6.939972711849545 3.536780938155208
Bi 6.261901990715466 1.7663764445471464 4.136665560969106
Bi 0.8353684439046765 12.238389807540257 5.445991246430666
Bi 1.848921026243921 7.256456424610077 6.986988861529126
Bi 1.3470163523743057 10.225798794413992 7.686866881926068
Bi 2.825486715243381 8.030081130842806 1.8399045505060296
Bi 0.6002630339198085 3.798775983242 6.529529752919892
Bi 1.2926832749223638 4.911186341503714 3.7853880742941954
Bi 1.5603785805306123 1.9201692548327014 4.321264957249883
