49
Energy = -177.99965745 eV
Bi 0.3816271038116076 4.600842425236716 5.428690333242815
Bi 1.8592842576364144 2.043518263206121 5.49984749238301
Bi 0.7490315111437815 5.3822859540449555 2.4994635154095515
Bi 1.6861352222304238 5.24409005179781 9.016882642340269
Bi 5.8694802150532395 3.439014828269763 10.711480577359202
Bi 2.462452204172993 6.871536016248684 4.6406743696023804
Bi 3.3485350738118185 7.716771147280138 8.26996277997301
Bi 3.3570632740009403 2.8472173014158804 8.090704432781363
Bi 3.2977768956358053 4.98107697314843 11.623145863525354
Bi 10.974853629966637 2.603966492645229 9.399691540268487
Bi 7.146314894019165 1.6068016132946767 3.823281753539743
Bi 5.216437872308137 4.743304607097321 6.553882437398605
Bi 9.728295860890146 1.5184260493657646 6.81168644788512
Bi 4.4169396995557895 3.174143405366766 4.076218049577745
Bi 5.8370714901901115 6.5200292093206755 10.899290759432432
Bi 3.7512557670957207 5.492419387905097 2.1818816210643215
Bi 6.7948559413880005 4.873364544910475 13.249980736625877
Bi 8.704269286142251 4.679226139472326 9.256967995251836
Bi 6.3793125653986245 10.077316111964926 8.593416915072451
Bi 12.443843805721839 2.899257584999001 6.754458696903351
Bi 0.9044982215030276 9.249091295796932 7.198459129849765
Bi 2.514360311836597 9.16314170196357 10.84574782498219
Bi 8.52454182717377 5.63433430146036 2.444825322418128
Bi 4.354890835921206 12.251200817592723 7.809702429569381
Bi 5.397029852845108 9.950768030760527 11.5099423170382
Bi 6.017861816799641 8.328963107154339 3.36926379279381
Bi 4.013346976394612 10.650966635456879 3.010742360786946
Bi 9.758476217460549 7.774401628669818 13.354100893409273
Bi 7.622394413509211 9.618623082427712 1.0386197647165483
Bi 8.317990088010243 2.80356062740356 1.258988921617158
Bi 6.131277398963453 12.626838989619047 10.242648551674627
Bi 9.689915927306652 4.93041228612141 12.172759379388019
Bi 8.108931714186081 3.877398291591749 5.62880581866952
Bi 1.3782177768047734 9.782641902070994 4.235965727232893
Bi 1.7248734662455194 11.512683748497176 9.094393326169978
Bi 9.36135823452943 8.05079051287595 8.749941155918805
Bi 6.2763790148446725 11.0026268723292 4.962456051982493
Bi 9.214086929020878 9.88668401040413 11.234510246764781
Bi 9.803786120326818 8.604159672398406 4.56940449574159
Bi 10.688501579620201 3.539337480539257 3.0048574953101217
Bi 12.097656908568736 9.148631268017546 12.00504434674122
Bi 7.671488499012883 12.285707550610878 2.5489101947632125
Bi 10.185695427329165 10.610025262957828 2.335523628752699
Bi 11.259922111714525 9.812964903518681 7.0267126410122565
Bi 11.886587314294724 6.804126750327406 10.034850739931192
Bi 11.29091767276338 5.900362616079332 1.2144232479506851
Bi 13.326588891803489 7.59726319632744 7.411063118771621
Bi 12.414739341096091 7.239236683725174 3.7543196482428693
Bi 11.28080446148139 5.670404587852105 6.173364389703478
