41
Energy = -149.74613349 eV
Bi 10.299519043884668 6.0302738022919 11.16273380757094
Bi 9.783830618304021 8.899166188472515 10.166766158283616
Bi 4.734502846479805 9.671930840362478 10.767058643483107
Bi 3.7924668818372442 10.343717638558756 7.899942296992491
Bi 6.929867059673932 7.828389482574267 9.76370197274534
Bi 12.169880528477195 6.532798970533678 7.1528060781249785
Bi 11.016800173235621 4.223255861244533 8.799330606027642
Bi 7.344792455090977 5.844303085958181 12.035189771434613
Bi 7.101586559332929 1.2832951729875868 10.23085959147812
Bi 6.616395816650626 12.156871895931054 9.749690624983689
Bi 9.591570995078907 8.080665010387024 7.246794296242661
Bi 1.4778591046959033 8.213210981784686 7.44926266957029
Bi 4.949748676733767 13.321360158366407 7.630987420106725
Bi 4.217776258207329 2.0557361720633165 10.82139030643492
Bi 10.578976209102327 10.453672504510859 5.603667706587217
Bi 1.6117337937327412 9.774955519821583 4.558288493771645
Bi 7.404530147172051 11.64845189013507 6.84148697066314
Bi 5.96291559042051 8.990904555982443 6.148425552506755
Bi 2.928304056152005 7.154924174540107 9.965689984196256
Bi 8.52156366345049 4.074950945030784 7.049083327351884
Bi 6.193036528348398 4.147531648737984 9.805561029502257
Bi 1.4946927702456922 4.066017251867091 7.404576051054544
Bi 8.517936414716914 6.465528763172028 4.020334933083857
Bi 5.072706203312849 2.8217013353111056 6.350793313315006
Bi 4.459806351112587 10.607462899626249 3.9834942062433867
Bi 11.570765224480326 5.813975910816083 4.202277948682921
Bi 8.566676510983294 9.65609693094066 3.4119695058692394
Bi 3.742878463823011 6.191464837558156 7.170960682896589
Bi 7.535709189038472 1.1786466310093195 7.177496371562934
Bi 11.436687980894149 8.868297239230424 3.1468271219702575
Bi 2.9922151846555707 1.4865034552884768 8.09911532562783
Bi 4.644252784319917 6.046363947730294 3.5979471949349278
Bi 10.028703764799456 3.0055184205284884 4.614311205481443
Bi 1.0308602119305414 2.774220216168267 4.671686568721048
Bi 5.6500622987516 6.12925815572759 0.6671268150721014
Bi 7.288155380524676 3.475264542311097 3.53530556931063
Bi 3.114464782699187 8.410496234607908 2.3457321215577682
Bi 8.636251082111142 6.703581037588971 0.9898743863308552
Bi 3.6899265695398955 1.4096983025394816 4.019612446637176
Bi 2.8262661450204543 3.88266604426487 2.468650521277444
Bi 7.645491142542105 3.8400186084112033 0.5397314569982716
