47
Energy = -171.50896987 eV
Bi 12.231102761714038 5.524347274601687 7.412433060181029
Bi 12.665836708035494 8.536543388644612 6.875651718353027
Bi 12.320037654535811 8.1641594318782 3.8547680874031833
Bi 9.91151935958486 9.860566525338118 7.3633404529234605
Bi 9.2267871540527 5.011723259839771 11.858408103651362
Bi 12.198048363188942 5.116640834898135 4.392464541267184
Bi 7.884974256455146 13.251707212584153 5.025037172839819
Bi 9.696944041584365 1.4653895743824412 8.79987872180261
Bi 9.303281611760521 6.1125625122164156 7.689027078747569
Bi 10.609250236995775 11.780988407896412 5.104319175550883
Bi 10.13720440822419 7.514394678048385 10.291031436875736
Bi 10.097900132741529 11.999335115689059 9.649518859892423
Bi 9.6915733578426 6.53791467752449 3.3255338886332915
Bi 9.142192628943619 9.95742648370358 3.0943176236947845
Bi 10.94645010229664 2.0625362251988815 6.086863691475684
Bi 7.074571122198116 12.102565313581747 2.2895096167581737
Bi 7.1225307158205196 7.034653975382112 12.811676585712638
Bi 6.484288961901499 11.175996378872897 6.766328480148136
Bi 7.29897419424097 13.025733292478263 9.072988618033143
Bi 7.8841325919533745 3.895980952653201 9.319817733180582
Bi 7.776367161232733 11.086151886618234 11.37055501289955
Bi 7.74941940875224 8.132799292041748 5.252881110543702
Bi 7.208933132435812 8.391154872177156 10.057557174853182
Bi 3.597587521845908 12.130349249072562 6.85371243937577
Bi 6.666661548347352 7.671872567373039 1.232191258364467
Bi 8.210590620296388 3.2881074974707913 5.54679718965582
Bi 4.33297036278993 7.997429642830335 7.362421768031993
Bi 8.060071370593386 3.384951924724407 2.494552216756256
Bi 4.606273817311392 5.286414189339698 12.6967771738853
Bi 5.6329434154164195 9.593974311801196 3.296542385102211
Bi 4.692828928260895 5.255937852272142 9.659542941440458
Bi 3.4029875381265704 10.221945915356347 9.29504476086474
Bi 2.6799637466280966 7.082254358675828 11.130631940705072
Bi 8.437573648616295 0.32829300661147065 6.269485389575029
Bi 5.748393592233864 1.382766285165437 2.0393196677484093
Bi 2.7300073982923885 9.66699109580563 5.274512159472774
Bi 4.644887114160619 3.0130540732169195 6.775214122020574
Bi 5.822288744981598 5.422156828241915 3.093834356135459
Bi 3.065374937884006 5.306634210275919 5.471652543634951
Bi 1.3874448841760727 8.454989413939348 7.8061190543097
Bi 1.8368230494325346 4.320400584593025 10.08507549073751
Bi 4.7711897397295235 0.7057623068897572 4.808579620800027
Bi 1.8531178309587268 1.7791748162428342 7.302989118466182
Bi 4.043652054844802 3.7666942846979703 1.222314532916917
Bi 1.701050299777197 3.808096198596397 3.1791694963557626
Bi 0.6584615575241539 4.607826558303586 7.269055888774804
Bi 1.778645563254388 1.0109117271533221 4.317224314421905
