41
Energy = -149.04825577 eV
Bi 11.798860621780964 2.3838050645549558 5.424682458797928
Bi 13.245413358631206 4.860778551786018 4.4228763419955595
Bi 9.479565006787158 5.0863574399089115 1.3179296966628105
Bi 12.80564028611115 5.929826856007425 7.249472758851354
Bi 10.29995865478889 2.4788393289786668 9.987847092652352
Bi 8.48568758133553 7.924707370763994 0.7039675205671612
Bi 8.79082253530942 2.3139582255346447 5.063078970352462
Bi 11.282050656575965 6.782114072717802 3.0929824161675414
Bi 11.564169563570688 8.578974566360367 6.508885052404482
Bi 6.113262770306161 2.706636858810983 1.48062390103782
Bi 10.162488120946835 4.087329091230443 7.409061308895482
Bi 8.910646422036855 4.72028909216314 11.490879757642086
Bi 10.25674523188051 9.170129307278204 9.205869151314918
Bi 7.455460552534866 4.560277477240933 3.5097613573469175
Bi 5.577178638483257 7.8399374771012775 1.639981212871708
Bi 6.368390437644871 3.673213485397038 7.495907345034311
Bi 7.738209451511211 8.941799472883083 3.5205425587720685
Bi 5.158683161807166 11.72285231059735 5.480246458675232
Bi 8.171422098510805 6.8533671578596 9.385304722530453
Bi 8.052984600874165 10.05658160405962 7.270361393825808
Bi 9.22115203042503 6.950852357766345 5.3096530099182715
Bi 4.912589518891359 5.171308240493474 0.25490376338564025
Bi 7.5752249781763075 8.786080631406085 11.689028390138036
Bi 6.531636836558471 12.547958154436678 8.156109017553094
Bi 1.1869758370237706 6.738922148915976 4.069394859975803
Bi 7.26216252265577 2.5001271213221195 10.18617625365861
Bi 3.5594373842582265 3.1036217276029316 8.667439251887538
Bi 3.8036213648969457 5.226336045819271 4.606202737510016
Bi 2.7660852371162252 9.343805974879423 3.7046229156709587
Bi 3.2548090606600635 3.5061635375664766 2.176765450071786
Bi 4.59767680353451 5.93271024897763 8.7687927797042
Bi 2.076484749208179 11.672907184596356 5.612703307561338
Bi 4.699271191071799 8.700059035698432 5.9861770968984604
Bi 5.791038616087276 9.881984085186259 9.43286320750021
Bi 1.878469774478647 3.438442315616449 6.1552451196155396
Bi 0.19423775656365602 5.894625748326028 6.836256113604025
Bi 5.165665276676039 7.648656009856045 13.094256874061855
Bi 0.9892278853973042 7.76609035734716 9.113854279180707
Bi 4.570504677376068 5.026128566909499 11.690710799863538
Bi 2.806934467752664 9.96863437792792 8.08484471733164
Bi 2.3879925991817217 7.123203425954871 11.785747912153758
