49
Energy = -178.81204201 eV
Bi 10.653956714323307 2.0377079829345828 4.5520407458384025
Bi 5.673002531012779 1.2738620361193789 3.150149335299924
Bi 7.077044002270599 1.7650761269585187 5.853173424327526
Bi 11.24685988606383 2.417019218540006 7.48998810331325
Bi 4.562383677762308 0.999555022964234 7.5079294747482095
Bi 3.2212785328717164 3.1683051075430106 5.797348032531711
Bi 7.7384432781661845 2.460216558178221 1.2492049224316502
Bi 11.779261144537871 4.517310061735736 3.152431187001871
Bi 0.2762760961210076 2.7946879276927814 6.616967412783605
Bi 4.906955350379009 3.694061235493535 1.4818076456055702
Bi 8.880064068337552 3.694650397693299 8.90370308857157
Bi 2.5524325467990945 3.7512995794033475 10.360532913755398
Bi 8.747819011062164 4.221163532250505 3.53212713666671
Bi 5.8816134469911425 3.0428506324818483 9.398617366658925
Bi 5.467403247856227 6.171251890640736 3.20261642456408
Bi 12.839121975623543 4.994176570494114 7.512615842942076
Bi 6.815118694391616 4.671917634299677 6.8834100377803376
Bi 1.7113415495515747 4.694232334181456 2.8776674626041
Bi 3.356527777149059 5.45896195403605 7.954459410603616
Bi 7.484412898136314 6.58891244690494 0.9259774008672229
Bi 12.381469423618304 6.546046385326077 10.086311806569066
Bi 9.991142786621044 7.812437279793934 2.1644403990528307
Bi 0.3063246594542507 5.013462178521185 8.710274003279464
Bi 3.224847836419784 6.070570593252689 12.235609093471508
Bi 12.839121975623543 4.990424337734131 4.692688001875621
Bi 3.972724047475298 8.149254097963828 1.4369599716034744
Bi 1.588470714764863 6.995488364079184 5.100016450595985
Bi 8.418611856574069 7.579932804084415 8.579195535573902
Bi 6.189962006174559 5.277352185553881 12.35262163540165
Bi 7.872938603350061 9.570757122058286 0.17106239064071602
Bi 5.276993544135166 7.444531397134893 10.399510053087283
Bi 11.846315223239783 6.782039935017178 5.23069592289966
Bi 9.51046134089048 6.114621628305927 11.096139088851572
Bi 5.40305112074439 8.677830611003131 6.056385335326177
Bi 8.857712720004269 7.485684715027711 5.072360904982913
Bi 6.4208790282301225 8.254674058350572 13.139126233051785
Bi 1.5786087918990788 8.264300959436408 9.014964499505437
Bi 1.0359180154253607 7.5467775004761934 2.1381571376261816
Bi 0.6318766330013185 9.696535302623612 6.662257627295243
Bi 9.574351442530997 10.939470468690034 2.5684518735208623
Bi 4.301554263863135 10.214925393897317 3.6429778352567954
Bi 11.190777565051182 8.94894447555258 8.502035764885136
Bi 9.436143681108543 8.65703514444727 12.838541331432353
Bi 3.4053994413294597 10.354307947823663 7.731622061705729
Bi 9.97543603132662 10.767780399358612 10.675463318366086
Bi 7.179134945632447 10.268814641440335 9.564857370886585
Bi 6.63084726360573 11.519070977928129 2.1082163397814093
Bi 6.974048539418269 11.247843529063218 6.650475477672751
Bi 9.724016740397959 10.316829222994654 5.700262150891987
