41
Energy = -147.67298472 eV
Bi 9.899941998802028 2.231510824880837 8.359625870852582
Bi 10.394962596753276 2.189350929193892 5.136970805992682
Bi 8.63119665827024 13.684764210813446 5.2800029992617326
Bi 10.31918720385001 5.922997234550912 5.330824847741605
Bi 10.321631511144377 5.173568779767453 9.100216196009539
Bi 7.936090476546173 3.7599103652637007 10.314050499979789
Bi 4.932748402371144 0.5360285916955135 8.690117217537377
Bi 11.759493718049812 8.592717211544674 5.853210586715062
Bi 7.057869438715592 7.636107017324562 10.199592348968121
Bi 7.773651534961062 2.2072594982699023 3.6931530114030124
Bi 7.127825183050907 1.8454817251656828 6.902998123569628
Bi 9.963657873728641 6.561262255857317 2.3435693878490875
Bi 4.144526505989741 1.987374073039774 4.0601275214785995
Bi 9.00876249665147 9.882360273751866 9.482619654450613
Bi 12.743782305289901 6.753102863108986 3.6594506324331224
Bi 3.033817262840409 0.10433159913331418 6.28947239695228
Bi 3.0468237098218127 2.6330644494891606 9.914519441997943
Bi 8.038796775115932 9.20566415867767 6.679103881228429
Bi 4.186597764564293 5.380644363974646 9.338879694073906
Bi 7.52219563930521 5.609441086679374 7.92927593101877
Bi 3.7385115079114044 4.076277553513844 6.397643385890782
Bi 1.251335180778572 6.058493190676364 9.378505923895675
Bi 10.90367530616574 10.834019942944984 3.994199209524108
Bi 9.285361245297727 9.479905706053517 1.8113775641819185
Bi 1.105380411622654 9.091520858363355 9.489857287537653
Bi 4.317376240667232 4.957866072746824 1.5983511771520091
Bi 7.3350900166261646 4.52744247995166 1.0982321712776764
Bi 1.2720632877325442 2.4695099832776606 7.140569773178211
Bi 6.060250599716856 10.193752099321218 8.855406997660996
Bi 6.487381833197632 5.591326660184177 3.7927692405897035
Bi 1.4389233654474771 3.2337923873470236 3.84992609598027
Bi 8.373794925583248 11.926675254244625 5.405364198350546
Bi 4.751233247394535 8.020308990547887 6.193372153491772
Bi 6.873814991096532 11.147984532199189 2.8796308695178743
Bi 12.743782305289901 8.500279751958582 7.581996742588077
Bi 5.926999699560087 7.610291423466531 1.6569353220259475
Bi 2.736805701694465 6.202996639931807 4.319126603162738
Bi 2.636806134616779 10.065642419342554 6.987979700269272
Bi 0.1710055998229718 5.942370408323256 6.494666071831759
Bi 4.355693219231711 9.611612024646455 3.6280927195350636
Bi 0.5723481310220588 8.80162832126623 5.144680940062615
