45
Energy = -164.1446327 eV
Bi 10.966994960206103 8.839761395672076 1.3063114976225791
Bi 10.42720256652521 5.871309281244001 0.8191685015472088
Bi 8.057404812400025 9.212909424233679 0.4738349005186194
Bi 7.498340670666935 6.415166373801542 1.6021458156257407
Bi 10.930459002720532 4.9395556920648405 3.692337991453422
Bi 9.712088631156265 2.1993407048306435 3.2132388601902813
Bi 7.488657263231537 3.3669006500723047 5.0267190833406366
Bi 10.873996423866387 1.222256767264098 5.844705655566562
Bi 10.04721134637714 9.258611594628789 4.278355335576979
Bi 11.609760091957968 3.8528861527716103 7.167231913468073
Bi 8.452524843584689 6.70111248938096 4.500374753722532
Bi 10.56232596649662 7.889970116100779 7.987494709973345
Bi 4.952962817000348 9.214055105365903 3.3300358388121576
Bi 8.530459217283779 1.539258728316159 8.12124839033836
Bi 5.150849375044819 4.574113935403057 8.07502242451135
Bi 4.97288982143823 4.397483958440414 3.572770820231576
Bi 5.031440495099652 6.8935400412263315 5.3560380504449965
Bi 6.76374340471401 12.874455654284432 5.975083228562919
Bi 7.614226245274617 10.721638446209205 3.1144229896079376
Bi 8.642498424087151 4.602510152818684 8.015831141125286
Bi 4.722345370635161 2.4015287795120965 5.967932837931755
Bi 11.013174437850143 2.2368155367129994 9.770901675185547
Bi 5.106364699897266 13.891832202458563 8.340711992774295
Bi 2.0706784574060637 6.149805045776181 4.915704997332845
Bi 4.691271699124374 9.171242429167862 8.034824717905666
Bi 6.674460740999891 7.128309949999612 10.410820932827662
Bi 1.2804091933143493 9.106565186641745 4.618692348133122
Bi 7.059796244367385 1.8821839019594235 11.00099128442429
Bi 8.993674389504667 11.278827925949962 9.370142860692445
Bi 5.55796275959263 5.201702828071819 12.511775564114588
Bi 12.581238686231652 9.408862305756378 9.66719258802098
Bi 7.615775954046956 10.09324521772277 6.907275603164895
Bi 3.6370077452302545 10.802444534478457 5.614236869652777
Bi 12.816116412803815 7.769349297820374 6.952850090365903
Bi 12.672326965652413 6.380302046066556 9.610778394972616
Bi 4.314742625845861 3.1197928691197494 10.659049446102987
Bi 8.133291332454652 14.084660323448452 8.447111760191941
Bi 10.392257514034933 7.8013316838984945 11.040537290466697
Bi 8.986337008209409 4.240884156534113 11.129460269635949
Bi 2.0363199148588156 5.329731000082949 7.984441716556614
Bi 6.90552123504892 8.865639050457785 12.910626570494287
Bi 1.9553842066425775 8.04576053856979 9.2232956795653
Bi 4.159759296740789 7.8944214567434985 12.008791166384679
Bi 4.2946424678735005 11.49091970266585 10.001500489015468
Bi 6.878581022799859 11.602121150387092 11.52123239955701
