43
Energy = -155.65593048 eV
Bi 13.448533868988324 10.83948790655428 3.668108416070811
Bi 10.148775019304844 10.060123046178902 6.3297879008867906
Bi 10.035636681875895 8.463143694852805 9.815872460854624
Bi 6.783777552283089 9.41198503422526 9.54512716492452
Bi 13.134930800393004 9.318514954372905 6.308879220493528
Bi 10.610553981630444 9.664129994747588 3.302675797585147
Bi 6.483994647156504 9.663310403150497 6.459642100432141
Bi 9.079139687705105 6.07521493005772 11.595324754443709
Bi 8.001537918488703 12.47304945147211 3.338524377857444
Bi 12.427704806280664 6.417955332254376 9.333972812417214
Bi 3.8965232761145234 10.317130492056805 7.982488846079981
Bi 13.117982615720816 7.855572251013797 3.6554410956117804
Bi 5.547533522571101 6.720790485045412 9.137185400792474
Bi 5.966500696587207 12.565711398990398 5.65726854983138
Bi 9.03515675804948 7.299229868905092 7.167698732567441
Bi 11.59291061796131 5.662117397728865 6.519228644768039
Bi 6.030774065964716 6.124600306996563 12.134436070406263
Bi 8.204560784491765 4.483713907520216 9.208355299149849
Bi 11.184805928249009 3.715125165545737 8.85391044781663
Bi 5.713553370810522 12.297166433151258 1.3605996249440737
Bi 7.264818161003977 9.808389772942395 2.0152123183349495
Bi 8.90556195355942 3.742917455491113 2.452639408953506
Bi 4.405592264533846 10.763528248722446 3.7913567489285005
Bi 6.975976306006841 3.2261915501246374 11.765805673776349
Bi 4.392992691119601 6.891246054683949 5.440729258418296
Bi 8.5659797242459 6.548291408810068 3.659833101545351
Bi 2.10412163619997 11.662187092498996 5.860961231052861
Bi 8.000594862700124 0.38806215373645553 6.245751779453855
Bi 2.3478129310145737 7.771988374859641 8.838004689009368
Bi 5.650794810522817 6.703072095543313 2.67347401111749
Bi 6.319548438927921 1.443658243749981 8.580737933446912
Bi 8.022750719030567 3.9406464041623055 5.3230048792032525
Bi 5.932281685357029 3.61476575093601 3.1187705783674384
Bi 3.719328150435631 3.3534872727068654 10.893757611228203
Bi 1.905560858001965 7.97976731043032 4.116026668589599
Bi 5.788328989842213 12.565711398990398 7.439048563841745
Bi 2.083661277361082 1.1779038956241625 9.430151249794186
Bi 0.5235872295490243 9.19070559579323 6.569820149831245
Bi 2.1791218655565467 4.942793044368859 4.630209260141142
Bi 5.1150799766571495 1.001852294794059 5.679675882917476
Bi 0.8197051459543183 5.623194292978338 7.281108043452318
Bi 3.4655217394520736 3.3424160918967187 7.860602297088802
Bi 0.7133378815574262 3.8216424600201635 9.829095504714326
