49
Energy = -178.69853686 eV
Bi 9.174544533095355 11.057921311780534 3.6067110584176714
Bi 6.136056528196572 12.095195574604842 5.815146926815595
Bi 8.458807902737234 11.278555325294308 7.534807576614017
Bi 12.338654694305761 7.807948651184773 3.36365409480874
Bi 9.874796284945422 9.534607700751899 1.0142322475279757
Bi 7.00764468231125 10.365156644235904 1.5878713193112837
Bi 13.277692880835795 5.115799032076363 4.080152138788962
Bi 11.777655806650813 9.010625157907588 6.111034409187237
Bi 8.7764207407908 8.857661607216 5.689093172422396
Bi 6.9383341513831684 10.070852232198456 10.176459180095186
Bi 11.841953033491167 4.782898390862775 1.3815366290284552
Bi 4.660913211847983 11.431906924602853 8.549798522202007
Bi 2.4471882237024474 10.250188393035268 5.063920927952
Bi 9.33254312095212 7.104199545013093 9.256405356681869
Bi 5.37526752128142 6.422414656386598 0.41743809367471923
Bi 3.3820074722998683 9.600405085981718 2.2318705093564652
Bi 5.036777026836283 9.303801172299531 6.355548201931119
Bi 8.202048606488773 6.007784670153764 13.128177727948701
Bi 8.015500271709953 5.312414007085358 5.090542327715864
Bi 9.438508698901751 6.720995318144434 2.167794691656941
Bi 7.338995286245292 5.037193460739539 8.086088989797881
Bi 5.865961577178727 7.92447062687671 3.0463498335577457
Bi 11.964515706685257 6.553547369636868 7.82942109374376
Bi 10.800565949065474 2.5759946283572615 3.0424062529065266
Bi 1.0980437928369409 8.032574608182525 3.5032394082890197
Bi 8.00742390031773 1.8369342783392708 2.2132865342141
Bi 10.787116937699011 4.297299152281187 6.009617580811826
Bi 5.462204225449849 7.387609094031901 9.887587055134485
Bi 2.5908092692292457 5.410712180592075 3.4094094306755274
Bi 10.220667102748331 4.646034011599052 10.88540327579222
Bi 4.1604027694299575 5.450372291073835 6.014586365725295
Bi 1.955515780602243 10.374403752269123 9.818410650941875
Bi 4.072628525368811 9.484805869489598 11.70775101540407
Bi 6.558370764660153 3.6210838391134414 0.17643592829856064
Bi 6.172703361995685 6.4150935838817436 12.677992745140772
Bi 9.303021988661747 2.759997095366412 8.637730264792332
Bi 7.552539987392684 2.3030659818250463 5.187299300546417
Bi 2.2629111373446444 7.578064413952307 8.577966253689338
Bi 13.440649975525202 6.18278080205058 7.544919696137011
Bi 3.2774637880120085 3.8351469586787426 9.26014765107324
Bi 1.3643985065062563 4.171567679072307 5.960400317790318
Bi 7.602692172124787 3.8068194041642163 12.214083034421757
Bi 4.516640734046931 2.538284424570266 5.1819821961701
Bi 1.3642437677365893 6.495693271715757 11.323710105278577
Bi 3.458698425115172 5.084175195989006 13.1281777279487
Bi 6.396697640922721 1.6701806844799856 10.331885779603555
Bi 0.24251842665281406 4.101643090863672 9.741453856342138
Bi 4.388791757881857 1.314234046530491 7.990645401962548
Bi 3.715328523179791 2.321980253545844 11.832401534180285
