41
Energy = -148.28647682 eV
Bi 3.316080237788648 9.571193223951076 3.0272974154201533
Bi 5.058124697462499 7.535767314983455 1.4814392951782298
Bi 5.881699085843969 11.128674239420556 3.547150005929878
Bi 1.0720434180117577 7.141741752169602 6.264438888087234
Bi 3.118805186808715 9.522242603486855 7.305109544817165
Bi 6.705545025396536 4.3423272052282815 13.800910597825025
Bi 2.256087401385973 5.095974678663039 4.115169479730417
Bi 7.633281452907647 9.087318922990988 2.158095920431098
Bi 9.417547117138454 10.752483491747036 5.56749086731165
Bi 4.163649952282232 3.8005175407182983 0.5942448085706454
Bi 6.547537020560646 10.549691047133694 6.600540380302189
Bi 4.5491288492263555 10.6383192707502 9.89217176604855
Bi 0.7775891095567096 9.813957778728117 9.329831982929372
Bi 4.48248256830978 7.133568825196552 4.43756711327477
Bi 13.534914578036302 7.807305536908628 8.310912520811161
Bi 6.196782545912472 1.5799893347371212 0.07314727563279097
Bi 7.585114160398244 4.858107994005481 3.424841455154198
Bi 1.7897932644301353 5.0633574435646045 8.293962297925761
Bi 11.179724846869373 7.39644904606973 4.005972778589326
Bi 8.172684964959247 7.997122013527633 5.08570067137705
Bi 8.751956167742852 5.786447327081476 0.7545284366230491
Bi 4.367248127625631 6.777417201877683 8.365847276732866
Bi 3.649811271392886 3.2875824250813253 6.091504453790861
Bi 0.6156806607866103 7.036416563978101 10.505759540301561
Bi 10.755119374535939 9.647555260681473 8.080555204152265
Bi 12.04017285740987 4.474195556523213 3.9694634180470754
Bi 12.198877575590295 7.2486382716243005 6.84152978712004
Bi 7.328655417089818 9.266324318159114 9.467038521902499
Bi 6.225899269290091 4.7293532161907565 6.6816271760131345
Bi 5.633457619867595 2.56805720994186 2.9344337549693456
Bi 5.1166055880082775 7.937158531788651 11.117494946975938
Bi 4.785632681660717 4.017208444319815 10.88187200830615
Bi 9.908781974543686 3.317498719337139 2.093004508175289
Bi 9.704816364179328 3.9103541927476657 5.93083728298123
Bi 9.399934922838893 6.877322071305976 8.045341545786904
Bi 7.48448724331301 5.176309193477984 11.620520801880948
Bi 6.988569688587385 2.0990946905476817 8.180854768034038
Bi 5.585546866929887 4.276533753351833 13.800910597825023
Bi 9.26483415289935 0.9735339653483361 6.459593690958882
Bi 9.838527002041154 2.769075170935879 8.864038095435568
Bi 6.946523370527241 2.2303701287527122 12.027002798787537
