49
Energy = -178.81970831 eV
Bi 13.022308885320019 5.495713877797957 3.7677041837894762
Bi 10.320480305247349 4.156028223020757 4.190944701524866
Bi 10.524101052830167 3.2333183120875266 1.3170231989223544
Bi 11.643543992499966 4.909687526100698 7.765278054291469
Bi 12.269041640254509 7.555638130450784 1.6625946958422204
Bi 7.612479833860943 2.4780224759315126 0.8751103740681042
Bi 12.699403985782062 7.268232858864873 6.214895909572123
Bi 10.341286209174676 5.940999797266266 13.421443463879712
Bi 7.246152718237878 2.2884374213165817 5.172831554468986
Bi 8.573483248571039 6.675709912049254 4.044102037016626
Bi 7.773378428073797 0.21583827886599136 2.9402565790695387
Bi 4.970277914736961 0.4509342058535405 4.138949026589223
Bi 11.917233996479982 7.033723156920887 9.92279988693171
Bi 3.880987117215224 2.366544905726114 2.0638304490887407
Bi 8.805947133348763 3.2892165552180685 9.777890831371142
Bi 8.418844431604747 5.228615292079079 7.395112349817552
Bi 8.407934947572222 9.719091940606853 1.4720774026181036
Bi 6.144512786770019 4.229291069875767 2.944106675542316
Bi 10.485206411608086 9.0075009189844 3.6557559773380968
Bi 7.672371395722015 6.752554469433828 1.1219781501259118
Bi 9.887749859199518 8.001144340323181 7.822246982113776
Bi 2.3054635302878776 3.1008737030587583 6.567855398153191
Bi 9.771822854863961 6.35978057091131 11.971610739162703
Bi 6.1425227549894625 2.221086826045874 8.589977561941978
Bi 8.544399447151795 11.043545355762408 6.761152459098464
Bi 1.822906718683576 3.9510327584751526 3.66767698642143
Bi 4.216773585317011 8.230047690506629 1.9630133876115021
Bi 6.534796278470908 8.888141262131274 5.965781651734453
Bi 9.492229211339211 9.4366209068471 12.146926909679618
Bi 3.344292359292993 6.518613253429088 4.4233963736420625
Bi 4.6875346483731475 4.806114409158619 7.659945133056051
Bi 6.100012354359772 6.403785613795749 13.421443463879712
Bi 7.202236896625551 6.391187848072477 10.304994966218128
Bi 6.293264801631828 3.5305861276358 11.483393494862927
Bi 6.006984779178941 10.297208098358686 3.2883747388137703
Bi 7.7554227556437265 9.698368403505084 9.625193723209913
Bi 3.1939460709575673 4.286906393085344 10.331594135576912
Bi 1.563768348713731 8.774801150231678 3.3612019015609356
Bi 0.9105708262433502 5.748581560883475 6.886703893890806
Bi 3.7055174166809106 8.133613652703726 9.294809663958862
Bi 6.493934720941776 9.246571189238258 12.613548814221911
Bi 5.519306626318672 11.674680331219871 6.852228367055081
Bi 2.6637896326675485 9.543471476346598 6.126182854101553
Bi 3.3588927755848865 6.802264877070853 12.107664141391652
Bi 4.191967489657831 11.156783593961446 9.592369238909559
Bi 0.3302965039914842 5.511943558186293 9.79564507706214
Bi 13.450508219842291 9.690092643677009 7.5251625709451595
Bi 1.8609830661442324 12.07873148294551 7.6829214301125015
Bi 0.8371713866862502 8.527148515076798 10.203777941094227
