43
Energy = -156.01553638 eV
Bi 12.468494122497363 4.184360299120098 2.2613788724654054
Bi 7.495729668442754 7.948302893300167 0.9341726727123236
Bi 9.870593813837697 3.7858011090634687 0.684833099968528
Bi 2.6212603235168452 4.5252453319504395 13.372435066063522
Bi 10.155337262822544 6.739522524952 13.81515597895937
Bi 5.303701184377736 3.274162862668628 0.0967532375835479
Bi 5.977816043465756 5.568389486457097 2.0352928523903175
Bi 5.996032599278719 10.615863397767487 2.8758620311169825
Bi 3.5991308543692435 9.302828161147762 1.4351220692080318
Bi 10.546121689249544 5.305050918101915 4.413416010870353
Bi 2.0911190449886132 6.598504704437686 1.8624006134642088
Bi 8.025292852393646 8.598983009756191 3.913461945445949
Bi 2.8860798174515274 2.4432748513857474 1.712776711578695
Bi 8.157918528538401 3.7813317040741303 3.244564229150376
Bi 11.917436832828528 7.173882261939346 2.385055981762611
Bi 1.8874680335839824 10.798137494046472 3.521535005446332
Bi 1.944702311412219 8.02680362269038 4.87559549975892
Bi 10.08425298597238 5.6820110543771785 7.641262881667648
Bi 7.291966061383086 4.863312917670582 6.835623805686295
Bi 4.3157258068955855 11.39313064362189 5.29963816142639
Bi 3.1716536155099946 4.6657116776113865 3.9424624261490586
Bi 10.155942512501516 8.680042153865681 7.188075822631703
Bi 7.470674809776343 10.128114105886965 7.512978206870266
Bi 0.3979374307112087 4.068182034336755 5.109329878325334
Bi 13.657768337851852 6.676600951928071 6.643804225229617
Bi 4.68386194513114 2.397719959437141 6.727600919632431
Bi 5.770042502978704 6.870907611974019 5.116491008951693
Bi 4.153692502140349 8.743483428178433 6.947840981441226
Bi 8.90813491066312 11.771503779491919 9.765234489940019
Bi 8.516244618245075 5.119214615540517 10.494800077560898
Bi 5.701096683096914 5.96409465104501 9.595172164434333
Bi 10.965475993102702 9.549647302388367 9.98737175535563
Bi 1.9287861231823609 3.281006068435734 7.672446857262559
Bi 5.353056185725275 2.398579513252014 9.764418499893347
Bi 2.301829460820504 6.230792555759084 8.342985308685707
Bi 3.830790390443506 13.35273062451806 7.565448020649489
Bi 6.129101855899818 9.005802294138869 9.981316847587612
Bi 8.536035039804378 9.471688419781556 11.775318217728906
Bi 8.439100611607742 6.191229450025843 13.372435066063522
Bi 3.080198986184208 0.4072220041005644 10.374857614209
Bi 5.541252784218489 5.621977238239302 12.809017060508578
Bi 7.485396247835802 3.345881661597788 12.85332215757344
Bi 5.840449898328062 13.186400561950645 9.825607241894925
