42
Energy = -152.78033269 eV
Bi 12.315818459656045 3.114031049770612 4.522267858146164
Bi 11.710086894261183 3.159504132956417 7.4925130509824305
Bi 12.757850591254579 6.043137292826514 3.835082932803708
Bi 8.96789845097458 1.6646749295752605 6.948908675187151
Bi 6.390875032989048 12.835523945253781 3.333458060018748
Bi 7.057959511118348 4.020442466830074 7.5000795391072375
Bi 8.243435435132664 0.7717852292113955 2.08278081383123
Bi 9.780800583089807 6.907954595744947 4.08429263711421
Bi 12.605997779456306 7.390591740038834 6.568644953248387
Bi 10.148106600061373 6.320144248813188 10.378426420679476
Bi 9.182800373720907 2.915055009659307 4.161852134851315
Bi 4.513776785184475 2.9835557572691855 9.001315670223457
Bi 5.8919607383037675 0.9935685126804352 5.386555614976474
Bi 10.154246878541128 5.751145052711796 7.389046761580156
Bi 8.624971831911585 8.976556442001577 10.152493704892409
Bi 10.871296536190382 9.564440378872414 5.239349042341736
Bi 7.545876239314541 4.663757569590158 10.5101982056075
Bi 5.281530763725291 1.4105056089780044 2.3806477991714243
Bi 6.232966747548218 7.182716918025719 9.413788747474038
Bi 6.719476287554324 4.930150368439777 3.2753792473140897
Bi 7.876294735831122 7.324202283547723 1.6618453045606971
Bi 3.0946202668600007 1.5226921160632216 6.785052239307808
Bi 8.394843677720825 9.093972571549479 7.062115364756765
Bi 2.2958254787731738 5.379977307970128 10.062610132117483
Bi 6.088801197568069 7.153328384222757 5.352871427355921
Bi 4.159880724826345 4.016470942860248 5.303276692309381
Bi 4.004096529180195 7.569679330617138 11.415897496671247
Bi 2.707441020070975 6.199808216585428 7.148634103436991
Bi 2.8226460855970985 4.604717785161268 2.6267010409126534
Bi 0.48484915307958354 4.218015434741875 6.6356217155082575
Bi 14.075019493383488 5.143361669784275 3.7307844544307467
Bi 6.4582868490647005 11.51159286967031 7.447574878346928
Bi 3.4926048577325477 7.518928114269186 3.4588902709551435
Bi 7.106825967195481 9.542160474910203 3.6614941322666317
Bi 4.182825284779151 9.467978202414843 7.16310005652979
Bi 0.42621507617082993 7.941854977808403 9.787436838036387
Bi 2.7494437134664147 9.916211063948055 9.869538093208192
Bi 0.6063324247830448 8.150537331283846 4.198616321897699
Bi 13.620986060493998 7.20444805450107 6.966589286314725
Bi 5.264759634431185 12.835523945253783 4.911005843185613
Bi 4.393657139383324 10.742365558290208 2.801621828445803
Bi 2.634276403920904 11.298571273848065 5.234138239457923
