40
Energy = -146.11003554 eV
Bi 8.593279664939592 11.287963567599954 5.399930745921803
Bi 8.508804905050196 4.326082363313302 5.443425213303953
Bi 4.434320850756231 8.666343062796722 10.78386847119343
Bi 10.392700945923288 5.853670455984635 9.407059533396438
Bi 7.700340980294899 9.172610337983267 0.7877173671075139
Bi 5.136134221996781 3.499758398190083 6.816315784784808
Bi 4.446667055160749 4.5441185521408665 3.121290899439933
Bi 11.953025170327559 6.850885089521307 6.97427607077098
Bi 7.4191017437322415 6.037928351627079 8.652964402347912
Bi 1.8317231127648301 5.020365466555502 6.007130494875692
Bi 2.1590313311088383 7.218073749573787 3.883882340278234
Bi 5.91775348858102 7.6983955923063565 4.40698927623142
Bi 13.176322190528687 8.33710771415183 4.441699007394614
Bi 9.030008801659472 8.425501430734988 6.39143130787049
Bi 1.8594627174482439 9.732688009328642 5.606521368655865
Bi 13.098591342284807 6.504361710685146 6.873248825794205
Bi 8.036103939607077 5.124528990608423 1.0187900266688896
Bi 7.807647493308834 10.025204558703528 8.649116561168197
Bi 5.417826508855168 1.7579513809981049 2.609975862119696
Bi 6.678573808273311 4.45616865168677 11.194288368220581
Bi 5.599238708986841 10.76110236084267 4.684181821806188
Bi 9.441566500875279 1.7718755142060552 6.747193619415383
Bi 3.8034891992955777 5.381429580584698 10.856535200850928
Bi 3.218414066180935 2.8790636088437105 9.099697283313722
Bi 8.322404868718742 2.6687111431658663 2.8806512399181843
Bi 4.804905509322201 10.045754050645188 8.054010311756858
Bi 4.842442413663065 8.462538159322323 1.5706805022339259
Bi 7.429827652676483 8.004683758392538 10.981044619826717
Bi 11.039441084278454 2.910771003391011 9.06048570156143
Bi 13.098591342284806 3.8167653454137054 7.041978670159389
Bi 5.673100860243579 1.6225779753558203 10.457850209175149
Bi 11.422815163561534 4.894556544231146 4.738049319376693
Bi 5.087214309095562 5.650296290260982 0.3721081131119704
Bi 1.733692904741174 3.127671533312625 3.6040633678709733
Bi 8.655999691003235 7.357546783643051 3.032469559742194
Bi 6.620243393471543 0.9366728599047638 7.637357967586248
Bi 7.588802019266565 11.653382333539332 2.5561577355442293
Bi 4.006980701634296 7.0405490189013 8.022141070654405
Bi 1.2466961741407734 8.438157001421263 8.281814024308929
Bi 3.726931140430218 1.3455022194413222 5.160922253551958
