48
Energy = -174.54915395 eV
Bi 1.6911346115914079 7.84675233109012 2.9308629722861284
Bi 5.260497748931911 8.585551687247312 1.3175251559822665
Bi 1.4996861444286245 6.255754092345291 0.33168142860378724
Bi 4.51651696432707 6.089406584871801 13.422560351947164
Bi 8.315943561529668 8.897625117696379 1.5995369158398578
Bi 8.231858905797008 4.7405693825668305 1.1948979159185809
Bi 9.895779922212304 7.251993065341472 3.6946484246985487
Bi 7.071526725888136 2.6412430265631945 13.043181669960413
Bi 5.371783443881157 3.8291101864229153 1.5880145359904099
Bi 1.7071460806169265 3.66706199571979 1.895119454097962
Bi 12.691823672750786 6.866639474990029 4.000163123551871
Bi 8.75271043075235 1.7762667770964706 1.7527629100180255
Bi 3.368238307338803 10.140488002797705 5.171118160570548
Bi 6.870276499463131 10.885927079415625 3.468833055134594
Bi 5.625057751348202 8.275836215544043 4.355351180705352
Bi 10.195796655268126 9.019815527122672 6.154612140423259
Bi 6.4909799699508905 0.5862695066515992 3.431270366462534
Bi 3.07025959603943 5.362654366990464 4.129157372257025
Bi 12.726349830813009 3.9308988008740346 3.3088098784663473
Bi 10.831796544829933 5.637670893435061 7.039711568350465
Bi 8.629540189055257 4.760218224323699 5.001045078208179
Bi 5.335540041695468 2.734791274170388 5.290338194162311
Bi 11.230971582867085 3.319126764214859 4.311151259977174
Bi 11.180053209937363 0.3210508407466606 4.655458997603187
Bi 8.079673728477882 11.374604935102138 6.226025541551301
Bi 3.896084987992032 6.086791477471086 7.797188620906819
Bi 11.583019638958264 2.138245528916709 7.14937655340069
Bi 8.383170299841915 13.312490741434399 5.635293523121342
Bi 2.537425631520094 1.6754813400122832 6.0113150265627215
Bi 0.5379296554333056 4.905834722692547 5.807964699186778
Bi 9.75967842462749 8.08767340448639 9.108143809643282
Bi 7.153379398581581 4.100193583604485 8.048279078085448
Bi 1.74916974175043 8.245512063798 7.280456754513225
Bi 5.028289532095802 0.546470427918983 7.433322266933869
Bi 5.081953302068404 11.973893893827093 6.8426590378196925
Bi 8.732840603921586 1.4436324627162918 8.04908362366741
Bi 9.537532594309871 5.098564529274749 9.716548156809514
Bi 2.378901271081471 3.519575585027019 8.515556840537839
Bi 6.627948309640441 8.534103922985446 8.53411660117912
Bi 3.716960510410227 10.025379821520472 8.972261478713984
Bi 9.614028537868263 10.462923357766075 11.629023986681073
Bi 2.017379581055822 6.803496016081581 10.134915282012242
Bi 5.042070845926651 2.5537858263364135 9.739881375053503
Bi 8.011821046905403 8.295349335907416 13.043181669960413
Bi 7.246960214435343 11.258964884322458 9.730513309345
Bi 6.182660152516249 6.873562811130509 11.055025551674534
Bi 3.76563489375109 8.568260765267997 11.784585688511998
Bi 6.876005466688186 11.089912860531875 12.76925617408317
