43
Energy = -156.67224105 eV
Bi 5.453731810421331 2.9270693537807686 10.147588716110821
Bi 5.557264561818816 5.035859872570832 12.382319537259244
Bi 2.8302139085947444 3.1461574245783015 8.503547873328172
Bi 1.1040224565489185 5.204576607175239 9.911843578523914
Bi 11.517393033177395 2.7889292485322588 9.566491775041479
Bi 12.907415434274595 5.886202263553024 7.38635876018808
Bi 8.466190056397814 4.4787956149493 11.593584583815586
Bi 3.7960454149765024 9.64700092709387 10.933945785333512
Bi 5.306433928224223 4.719328059814557 7.652815497457015
Bi 0.6876501640614833 3.104904874568677 3.5646933685837916
Bi 5.434275117614932 2.3780940252971705 5.472629374207671
Bi 5.476977488882882 7.209043456198039 10.246622427247237
Bi 6.872124419413626 9.679581063286514 11.352106793417038
Bi 11.990754967892832 5.770121783588147 9.770875888969673
Bi 1.4148392367476563 7.940648915200215 8.640254803149137
Bi 1.8482972564767617 5.071790819959167 5.5581759055708195
Bi 11.535121656968872 4.235380158551066 6.864868161356209
Bi 8.177928583428026 1.3454244688473358 6.450687163657465
Bi 8.786264701789218 3.7014427035610513 8.427200555475885
Bi 0.7989390386749521 6.045971105358182 2.814341553258619
Bi 4.33413926012195 10.627913837768181 8.04287512897807
Bi 9.798940287316137 2.349815867064439 4.044436095236935
Bi 8.097435177434432 7.412209740109662 7.493459511677182
Bi 9.300943022324734 7.127805477833641 10.383815426662277
Bi 5.256489976553286 5.084218785611199 3.839037125051834
Bi 3.826610033394762 7.901231149557686 6.749592475510282
Bi 7.149323376683394 1.8284612229600632 2.646344680420738
Bi 3.000620526434352 4.169040021170749 1.9042487874223735
Bi 9.173368145372104 5.322939836791473 4.386054017419557
Bi 12.907415434274595 7.058980190928527 6.786216782609056
Bi 7.379757919925826 10.32687623453086 8.36604190508546
Bi 12.069033561266245 6.242018643765378 3.902292633691812
Bi 6.669249043596373 8.386983103634291 4.417688325106725
Bi 2.292118479479906 9.161680549363385 4.402481752421476
Bi 10.568289217814986 9.103637898393233 6.805425171871572
Bi 3.605738769258949 11.962410303390284 4.591052998120965
Bi 4.382903572469837 8.328827042002773 2.347482250103745
Bi 9.295401284342171 5.8719509776090035 1.4055923430306319
Bi 6.605923152441662 4.417776200728477 1.1479730066845368
Bi 11.115084802119775 9.135016839088607 3.7763755026463057
Bi 8.567556407106508 8.771391017176146 2.0659183228916884
Bi 6.601422189075804 11.470582298036483 4.607746363102014
Bi 5.057326045316891 11.354433042577345 1.9804003042087557
