45
Energy = -162.94739069 eV
Bi 12.505648440451829 5.790778475891375 4.384648895793534
Bi 11.20987640211896 8.530955101294701 4.29297197678983
Bi 11.603990321149311 8.923031338477381 1.2859738261899951
Bi 11.338512068512571 5.4852841520411 7.190971632962707
Bi 9.693002549806373 3.0165369284474846 6.421704428481864
Bi 10.901968008508572 6.17895511669966 0.26479878403010326
Bi 9.126443133699432 1.2110293473924314 8.856352699181118
Bi 8.481027767498292 13.15948199634652 6.5024275023521705
Bi 10.138648177844097 4.653638764671753 2.8228375271794914
Bi 8.524043603554224 7.175822548141411 3.632455226926561
Bi 7.9769195518674865 11.116994461164895 2.9887909125693395
Bi 7.978700492569142 9.881281350255955 5.902831481376368
Bi 8.627491369320024 6.201181158971979 9.921212418155646
Bi 7.81745585436152 9.150855264166086 9.374300955688096
Bi 8.647994600119473 8.244117678830648 0.7366135136074023
Bi 5.526171488197814 12.414943668901422 6.509538889795392
Bi 8.280233497645659 5.696463170391011 6.90780340855128
Bi 6.426596516643113 2.663247911501073 8.921901398552567
Bi 6.511249183537733 12.414943668901422 5.350945439628944
Bi 5.706887171371431 2.713313056029733 11.906536473571565
Bi 6.3510092138415635 5.297638548044352 0.7572100636798079
Bi 7.147008873074405 1.9587084353915813 2.4534841842587793
Bi 6.119950193276122 5.760385870992101 11.65735767131722
Bi 4.418691909525576 3.0758782692241478 1.6997187016350535
Bi 6.098201179979897 4.562156885608168 3.7283928005021405
Bi 6.396086014892381 1.3469045497201557 5.369191224380342
Bi 5.104695093315954 8.714835656068761 5.174445251441488
Bi 5.173403781853385 10.030184978310917 2.3874676618925452
Bi 3.9278998698249055 10.816317871284395 8.548161556505052
Bi 5.370588501919556 9.014247287110047 11.421198943769188
Bi 4.402512928754005 7.671006801958999 0.597171039076048
Bi 5.0948766799642735 7.92202513483229 8.634057429720174
Bi 3.7474715024708973 4.4013032078643395 10.08932157115789
Bi 4.377318087238667 0.36175975298039703 8.76706855609436
Bi 3.490761142783903 11.297202812803087 5.467521058062153
Bi 3.163522979113478 6.793092357835239 3.2852400735241076
Bi 3.456240548430343 4.400941786102006 6.615031836244697
Bi 1.4690961921925354 9.079150063560586 4.239835518598273
Bi 2.6785829714254508 1.4616612005410192 6.4522165073846365
Bi 2.1005131172667255 8.80969670428076 11.515893910071973
Bi 1.0003136072394125 10.128633796271071 9.037032037549395
Bi 1.8556199849248822 7.773021084912757 7.114351109997356
Bi 0.894945707196098 3.4198062677287524 8.040441709557157
Bi 1.339867609531989 6.366733038033742 10.049421090163037
Bi 0.7019444250383922 5.294037826202183 5.599670355589354
