44
Energy = -160.58981014 eV
Bi 3.6524115911102775 4.424743027327087 0.05830211515568852
Bi 0.5791000333406403 0.3178821228696077 3.761554620094375
Bi 2.673660667024543 1.033172693618633 1.7083396441287007
Bi 6.452762091442537 6.566217795431714 1.2122651218265785
Bi 0.6016967799177293 3.9925080760699765 13.478709500818647
Bi 3.0075803397204304 7.3779491659939636 0.43055892027632797
Bi 7.7022282788878025 9.2201003483982 1.5964570996371445
Bi 0.007931717098075948 6.726840240950184 0.8556134214474759
Bi 8.644474663703825 5.017229164422595 2.7695656071238104
Bi 3.1095064181083565 3.7368046596440307 3.043584177737756
Bi 6.051052181581877 1.958838886382504 3.829774058315858
Bi 7.230375225610373 10.88866814268159 5.3075482189684635
Bi 5.030075549133495 10.239901237574037 3.2807074069470517
Bi 1.6192933059167007 1.7843787787302812 6.2579982503567315
Bi 9.838665924817125 7.814551298983999 3.326860930861528
Bi 3.3156305271230635 12.815326499651105 3.8723205697907965
Bi 1.1189409134297168 8.632839301023994 3.697084360935085
Bi 6.749126035398724 4.6822571203731975 5.137654723238764
Bi 0.07852013804994147 4.251520417452401 2.606369445570739
Bi 8.12919702963189 8.077442931967838 5.814136886492839
Bi 11.272555572039831 4.360393774347144 5.317865648972724
Bi 4.051944002413648 7.330482808909353 3.3244721862197055
Bi 12.771939524651886 7.085358581954753 5.521380654224538
Bi 9.581571503797232 5.380777438693909 7.663233096866896
Bi 4.478858157074562 0.7776765784469043 6.0975640574895
Bi 13.857333199215859 4.68673314314439 6.943077516087162
Bi 9.757545474485259 9.548704366538509 7.9644845769027555
Bi 2.3490115485852217 11.109812455645958 4.746459049860194
Bi 8.388688006515757 2.1839097806687024 5.866028927864358
Bi 3.5629157339182917 6.867496406000821 6.900946267159762
Bi 7.021663385434846 10.915470907888075 8.392464177016995
Bi 1.245629510763232 4.784974358188017 6.783335962167694
Bi 1.3803638700298424 8.987402983000575 6.707222082055279
Bi 5.44586262628202 4.195452128207725 8.514351908194257
Bi 12.19916083164782 6.7314567021021325 8.511323774532455
Bi 8.829889921178363 8.060747308632306 10.555206518095778
Bi 7.105730068782445 1.6292349553633394 8.630990890112265
Bi 6.264048691828863 7.964780357346289 9.009706701296519
Bi 9.687404979160192 3.032340189606155 9.578914129722515
Bi 2.5165977912885107 3.6382019433483923 9.33941108205309
Bi 2.289699084541225 6.6902507634771435 9.732049975026577
Bi 4.646044079430493 7.484960647812436 11.522050997102934
Bi 8.83281343795044 5.128518122907308 11.62412600724261
Bi 5.819596372101673 4.664189654505666 11.50642700029095
