41
Energy = -149.76095364 eV
Bi 3.581748919304692 6.472210543413479 12.227060314018397
Bi 4.998263771556613 3.8001221467706685 12.46600143520101
Bi 7.300372282062982 2.620068195581601 8.71964406177544
Bi 10.921631210337337 4.251329034666924 10.271435460217752
Bi 4.260535831455079 4.726840949205731 9.691905296003478
Bi 6.404853999986268 7.805759533678516 12.686948566903702
Bi 7.789243772495224 5.092359526691542 12.546423408295352
Bi 8.190652949530312 5.410744472024904 9.546812838016107
Bi 12.184289594053046 6.790873248393275 11.436097911478242
Bi 5.179301999783995 5.853355315805732 6.172937897883358
Bi 7.009543084544259 11.0957936919855 10.927770999869649
Bi 9.843480446359381 1.864758098356163 7.048448873278875
Bi 9.849062450727642 8.73246506157358 11.478983988081067
Bi 5.272334578473637 7.871975743607845 9.82401869316213
Bi 6.0582913243182155 2.9477416663154905 5.9170820274697
Bi 11.790224405391836 4.2159384667913145 7.362329642887059
Bi 13.760170228755989 7.494611335361056 8.972708428525047
Bi 8.392250794810344 9.20791744127135 8.801099495077803
Bi 11.581688727314084 6.233106927488222 3.756420772787273
Bi 3.175585296964027 5.686572982039573 3.8981313045998363
Bi 11.39597170232659 11.348855582088554 10.887623781070467
Bi 13.411745118519379 8.459214269145212 4.805839419465217
Bi 5.622215470336661 9.898525032550541 6.542393394451251
Bi 8.782394680194919 3.3956678998854177 4.601083073341722
Bi 11.199055918074274 9.097292621201948 2.8126662872916772
Bi 4.037291526015456 10.570391944470565 10.804304657882646
Bi 2.3316818708515683 4.889532312417107 6.807498690201606
Bi 9.615411863586885 5.964909240062468 6.09483629404055
Bi 5.749450267469365 12.946997471618703 6.84738454797001
Bi 13.50142738174377 10.514431258876762 8.856251217003319
Bi 9.83228466318179 11.92885260301067 8.296152818413253
Bi 2.398920680258065 7.845855865494625 7.5853629367540885
Bi 7.549505137690082 7.190260452260929 3.2613274477298946
Bi 3.358048601107 11.389612412589644 7.958532675334997
Bi 7.818284809722514 9.428493628004055 1.2346039127048398
Bi 1.8553638990047376 8.355113243187851 4.656500338072801
Bi 3.9715546237444035 10.507229835710419 4.050632789693163
Bi 11.619859502207952 8.73461032986434 7.216173193806418
Bi 7.435810796678558 13.592903009612751 9.273401901074127
Bi 8.553544067061017 9.92528043418076 4.143891594731502
Bi 5.017899661502346 8.44267408224683 2.1125255229378017
