49
Energy = -179.33233665 eV
Bi 4.23010636354868 4.4965854446960165 11.593353801993972
Bi 4.3190151843303 7.13267985785018 10.017985320491778
Bi 1.978095579084256 8.669415236053863 8.668253466995653
Bi 1.0669702135968802 4.765573339711577 8.911955057621308
Bi 7.114646013937668 4.144958580483829 10.595515651389842
Bi 14.751475693445187 7.231987578161002 8.823361389906054
Bi 5.528492867083441 10.430825424847715 7.663157978920583
Bi 14.608927088920387 2.877066309576384 7.536218317773102
Bi 3.3128304214152386 10.206664987301554 5.54580444021773
Bi 8.270070417339266 6.875880190762598 9.797524185115085
Bi 13.00341720890202 4.528572487258464 5.518268169511118
Bi 6.023996959490905 0.7128259939532019 8.987005098796084
Bi 3.5434447104786853 2.4891437954556146 9.35215074257979
Bi 6.771496039268563 7.637301469109126 7.247844469005938
Bi 6.038455296321848 3.4806482988771315 7.805444935571526
Bi 3.2851219377173617 6.21709800708832 7.3078267926985925
Bi 14.107974469117014 7.350947389506362 5.849407043740408
Bi 4.989268839072085 12.205681861109676 3.9420709719363227
Bi 10.142906685862945 2.457276747035332 8.291364647286622
Bi 3.42387453406768 2.199811871200446 5.243483400080547
Bi 7.664779886241283 11.414969795014944 5.695896729684373
Bi 15.120609862855266 3.9641228769604924 3.3176729788811734
Bi 4.735487229822375 7.951379297435016 3.986062158564652
Bi 0.44236822305726314 1.5921425409784038 5.0917989371026
Bi 8.060121031419675 6.232434899435827 3.7309319542886605
Bi 4.327342269370497 15.094922107994808 6.665960482806519
Bi 9.954433275584028 1.636609608661907 5.3688330663791675
Bi 9.492330713150855 9.01069915697603 6.883014559053426
Bi 7.234511243198053 2.7042121207369316 4.526013774430492
Bi 12.378164670346075 6.0912203556198605 7.789546396663532
Bi 9.463753554200409 5.342410865497154 7.399663437481357
Bi 1.1960402205927407 6.296591464564481 4.574652288979598
Bi 6.885007875275484 9.958146119586328 3.101884322382634
Bi 3.2145607475543487 9.315873602394038 1.7029839120622572
Bi 0.6166682755355611 7.663940861555168 1.9410535829810065
Bi 10.325892016800909 8.233304605081424 4.065483402903747
Bi 3.9652639135954244 0.23146250897771595 2.950315107742829
Bi 13.00341720890202 3.1166027176101374 7.264069773173997
Bi 6.5297086576291585 15.197160134283903 4.537642509009717
Bi 4.392500842203024 4.757439149656187 2.331669245798332
Bi 7.918528318106773 2.065769081302754 1.6380803515967983
Bi 12.690719742261468 6.420075799748428 4.792077079215731
Bi 12.1584306038025 3.446425022757856 4.2466602321153735
Bi 4.964523661832218 2.1989232495208624 0.7980803673531269
Bi 9.649229646420151 4.639356046252196 1.6995126034988177
Bi 8.186153571725745 7.207618549643033 0.8131680899169779
Bi 1.913572237977003 5.280503890189774 0.5260801178733265
Bi 3.5571625057350644 7.553235172677519 14.685096941063657
Bi 5.843087351902518 5.591591446913758 15.246801439949538
