49
Energy = -178.68613629 eV
Bi 2.2573982372263885 8.427192038950626 4.011530888896252
Bi 4.8087342060846785 11.634973923446559 4.939886399504036
Bi 1.1863163679324495 10.149946829277969 6.322966158477789
Bi 0.150925085962447 6.565459036801348 5.398318440327883
Bi 5.777060147153998 8.812416515111911 1.7013112227938547
Bi 1.4881999911153947 5.091335626977455 2.2446234445253106
Bi 6.126884263233199 5.89691849036667 0.825702141059393
Bi 1.0030955914389101 2.182344606537968 2.9932691057348575
Bi 5.241818868147521 8.581504782863771 4.777123901268264
Bi 3.569918967563548 11.44081310363976 7.692982633456643
Bi 0.8896776948282586 4.326635758463594 7.364071290046242
Bi 3.3896201987207637 5.9827421120807776 7.384780403571681
Bi 9.75709888372084 10.44820081967951 3.162527731580025
Bi 4.308101841241986 4.043387651531559 2.4377584548484252
Bi 2.3933568388882946 2.874107568366114 0.3785595864240133
Bi 8.766439953522779 8.193733919900467 1.3272063950620456
Bi 7.859405447114625 6.074529286647854 3.3480282270992303
Bi 12.757860488274236 10.117851823939477 3.767471018159732
Bi 3.788971710970728 8.43059722567824 11.135865081240114
Bi 3.3347296656044967 1.0027976286117115 4.630176562967909
Bi 10.103441441424195 13.239822710557267 6.796420600567395
Bi 5.354534323576745 9.14482184028989 8.631663249283287
Bi 0.9117373682963619 7.7159918706856345 8.143525834827365
Bi 7.74456931358462 11.420443643620555 6.02022638965714
Bi 9.388940691180816 8.58894286069422 5.582472710241775
Bi 8.325653920392753 11.962501474785423 8.941697814535965
Bi 7.649851559648659 1.6114856685797219 4.156742105445465
Bi 3.9379218398173275 4.81634175952074 10.144941888781661
Bi 5.340653270795716 3.0091186567938992 5.7624500951453665
Bi 9.683246695994361 3.6434343575326484 3.0599254730138705
Bi 5.585477755942491 10.968480742227529 11.07157174262777
Bi 6.929697000886082 5.588740652682491 9.978598784492588
Bi 11.608228200842865 10.554413158017894 6.601379712683085
Bi 1.5771736632634399 1.3729843277559872 7.097425348066868
Bi 6.187499278420456 7.0644247216777085 12.530336154744058
Bi 12.095829938132274 7.285644346542359 4.7304984985880685
Bi 8.977444547261879 8.878816619658176 9.315210915471674
Bi 9.737950825353847 1.0259229261309455 6.370958887060643
Bi 10.10078904869035 5.565770593328071 7.508817799811577
Bi 5.738120457420796 0.7563061621890862 7.760220924341429
Bi 3.4997600760433754 1.7960872026267443 9.498018034850771
Bi 12.045552623167742 8.885801762954946 9.734591799992948
Bi 8.052176914425083 9.47564423278886 12.21056880336687
Bi 7.980671417204205 2.756721720422836 8.154402244418497
Bi 8.403217537460607 3.1734877062427604 11.150780964410359
Bi 11.404983552323888 3.5426352161170636 5.605146928651059
Bi 12.90345924641725 6.7506827658641395 7.672630347402178
Bi 10.647329383721663 6.929265379841528 11.618806176893848
Bi 11.063215183549838 4.31651518914373 10.162306905948629
