48
Energy = -174.70804116 eV
Bi 8.388749719664277 1.5106118054213242 7.362321319787973
Bi 10.834726387610026 1.8221185534422386 5.498381869386399
Bi 8.286788014512016 2.0663674076001612 2.582235484980061
Bi 5.760063565404363 1.8795324834079024 4.255964440612996
Bi 7.92772204584519 3.173145675683919 10.740227021831803
Bi 11.039920618496662 2.645195077163366 8.429875783869361
Bi 6.42447706113423 3.734443575685127 6.641200012620469
Bi 6.479520265824166 2.7858862328683696 0.21449609363873792
Bi 4.449818812590644 1.608193487403681 7.6687626159132325
Bi 5.662482039691021 1.0725820883132844 10.418728126929192
Bi 10.172788578990412 4.662954469198085 4.6587964065081975
Bi 8.747407071800026 5.9843101517255795 11.922305907953529
Bi 2.702728104744126 4.235027283091202 5.924757514779939
Bi 6.33454534742018 4.334397331199129 13.08413335875923
Bi 11.211052451427008 4.519987347517067 1.805527596964232
Bi 11.425502259895874 5.7046359078949145 8.525864015905842
Bi 4.3143036213421935 3.658452742159964 2.2236819514788166
Bi 8.059148006813418 5.014227648388581 1.5943482448915451
Bi 4.839525438810124 5.327927875286878 10.564692866408231
Bi 5.579641816971184 6.186630160043678 3.4661006069080726
Bi 8.622610741985824 7.00532399833187 8.421167041629309
Bi 5.806625318534382 9.423278523873593 5.543318749008949
Bi 5.586499096465096 7.992415814636041 1.1108665518418819
Bi 3.197592419951324 2.737425472295971 10.23288010488966
Bi 2.219206496141836 6.971076811562358 4.578160823403681
Bi 8.694049621749116 7.93647517496597 4.057970177047649
Bi 2.2408754792173293 6.874535612354362 11.331272884650193
Bi 12.682718578273562 5.878578035988065 5.745851466042085
Bi 6.485551046533905 7.7397258373294875 12.461006605008746
Bi 5.58392048898567 10.598434956088434 2.722895657730505
Bi 4.004434789415801 6.740291598865234 7.093531571776769
Bi 9.721189519389023 9.633798994090139 7.151354657251516
Bi 10.23271332450431 8.979541264868594 10.105289395954788
Bi 8.857398054035528 8.434130393980013 1.0257670646484378
Bi 7.556927098261662 11.83924244848335 6.215295773416131
Bi 1.4305647077098986 7.645200950861314 8.47921645606647
Bi 5.923835700667569 9.188792270928095 9.515120457088205
Bi 11.877272583083677 7.426925074824525 1.5775949443700181
Bi 11.75055456242901 8.49783818473805 4.459134994691409
Bi 0.09727145611056529 5.733854782512413 6.450254023384953
Bi 8.638706132254798 10.839571190440358 2.965802887617405
Bi 3.42576345269075 9.69928874129057 11.189033546604263
Bi 3.0429495101932504 10.73185619426362 5.997176961962911
Bi 6.628970653306602 12.14959181625007 9.225176083708071
Bi 7.980462890142959 10.43852710336876 11.572318502958352
Bi 1.9481133780680002 11.08315375453889 8.849249834541384
Bi 4.579633456892756 13.3538964429299 6.327327946948074
Bi 3.8300342069580964 13.483189804079041 9.247999134655313
