42
Energy = -152.98469105 eV
Bi 12.597643559868445 3.250936076132341 8.364903800554856
Bi 2.408625533676914 7.098413832954014 11.698940795346505
Bi 5.10922835454814 4.142768568145013 10.822499835553042
Bi 8.140447896055843 10.291238737214655 11.003494616994557
Bi 11.752464373406175 5.9170892891737 9.766341729138635
Bi 8.917148661153432 5.5022883306419565 10.89507300232963
Bi 8.763284977777076 2.4238220137108164 10.509873626489965
Bi 11.731983809843818 9.761522790658718 9.289194186664886
Bi 10.240691200005095 12.390921920829351 10.225922755127623
Bi 5.218186291077086 8.264298766641883 11.241361317366852
Bi 9.466614211048494 1.771235291305937 3.218650075537924
Bi 2.923125016934826 8.76479463454381 9.17052940180272
Bi 5.883591721490475 11.943452421204832 9.74548810339385
Bi 8.716997930737946 4.544397187176396 6.904288287771697
Bi 6.091549531536359 1.804147455812016 9.167678435954203
Bi 9.947768420244017 1.946404565274339 7.774223952826344
Bi 2.2849626396560367 4.66665512958267 9.87079451486287
Bi 12.974923204788837 4.380135686527066 5.554440679121135
Bi 8.09208707354406 13.705544771007002 8.41507895088932
Bi 8.950285497494384 8.972476781878939 8.288170708475569
Bi 6.4577834114138355 6.3549948451548826 9.203093283298502
Bi 3.2666874045630783 6.278243075653901 7.383530383225996
Bi 0.2822406930587105 6.999296399411888 6.8814536308025565
Bi 0.41432973162107106 10.031488877467034 6.690492714518018
Bi 6.062919243902245 3.1699846449835913 6.348955955647073
Bi 7.064007796779975 0.7798654644230667 4.735004776349745
Bi 5.709474961330789 10.039538168799869 7.335771098542252
Bi 6.787916549375996 12.456813720987633 5.798792164630573
Bi 6.986422316868932 7.4341936683963095 5.1598641686680615
Bi 12.711545159159034 9.579400323771255 6.313072646988451
Bi 10.002844632758567 11.433757045784999 6.635705715861719
Bi 10.176317527363523 4.563938558092016 4.23098115886304
Bi 9.9605362409068 8.841112826867006 4.651975611866932
Bi 0.21066154852644356 8.366918497877842 4.181759724375866
Bi 11.451608840435421 6.758133726871112 6.816854222450525
Bi 6.692461638784265 2.484173546557862 2.2412653900423516
Bi 3.3224401808066295 7.868406254692762 4.319867826907897
Bi 5.4887166168796355 5.137792558138651 3.3231116099874654
Bi 3.25328611061071 10.638605496391946 5.554086393106685
Bi 5.778358873801133 9.347293859873934 3.0589428814896142
Bi 8.840264858564646 11.5884343392176 3.725418217672528
Bi 7.547566485782402 6.985070578349551 2.1630523766822845
