46
Energy = -167.43296264 eV
Bi 6.563229426470823 10.457698229187471 12.676068063106875
Bi 7.175024816371104 12.10263968253998 3.287561003658217
Bi 9.125474997674779 10.647899862182474 1.428492787827218
Bi 4.677602430109336 10.781996539604062 2.3180601759517976
Bi 6.742501872558099 11.89264621533521 6.3349323207343105
Bi 10.343959151398343 10.530587218228236 5.092169016405914
Bi 7.81143738353867 6.330279407177234 0.5540437719914811
Bi 5.227408837408159 7.882520197118872 0.5816222505590584
Bi 3.8438091421910294 12.344998065843741 5.579419300500248
Bi 5.140535920337268 7.969276385547202 3.813906149082578
Bi 9.764086744629468 7.787544568292213 2.363570054430843
Bi 12.671996864383178 8.540989948651443 4.967337180878809
Bi 12.34257785624771 10.305418527312337 7.409470667436565
Bi 7.04759072673393 10.9061823996657 9.880978402625834
Bi 2.5046436556641996 6.451564581593186 2.8944132394171915
Bi 3.413132367187369 10.081461188509019 7.778201777755806
Bi 6.297785280293184 9.084336473526445 7.557943063793404
Bi 6.971528755879727 3.743316058338902 1.9838747844260984
Bi 2.6496295578935505 9.481348863739328 4.949831088529938
Bi 8.556484890809264 8.004492244198646 5.169331428012274
Bi 9.22269074983963 4.428138946104818 3.9226924243679635
Bi 5.890483025511893 4.3826284791946275 4.753218200794826
Bi 5.7830623327679485 9.64673892641868 12.398200478903737
Bi 10.868969670083782 6.405828594209997 6.375828325930272
Bi 2.2336985741599236 7.439437839860625 9.82090442107985
Bi 3.79238989824607 6.116475667899697 7.511253424522531
Bi 11.418395859862706 7.874056632400665 9.017910545242428
Bi 2.8072008529939203 3.7013736523068945 4.081209808897847
Bi 8.61724385501537 3.8351447827733463 7.7812841967715975
Bi 9.755673812837122 9.762693701097868 10.72803071040315
Bi 1.353157329648034 5.819750366244588 5.671321262947382
Bi 8.242134682370642 7.792735733486836 12.492998359567359
Bi 5.348016353600759 2.7400947782677276 8.344200381195941
Bi 6.9353733877936925 6.379598340730093 10.094418363642225
Bi 6.688332107252295 1.3804577302562258 4.5743644870164575
Bi 2.8001248842217183 1.5069501843275146 7.074619839285325
Bi 4.467282473977613 6.92362816732055 11.822707169437779
Bi 9.52040201271545 1.883793984574312 5.592690969266009
Bi 8.13041860055677 4.137140822965942 11.821823488952242
Bi 10.667973315722202 4.205629002234428 10.139035105933768
Bi 1.8970383968211157 4.4291068206797455 9.226162229101968
Bi 4.927234832967498 12.344998065843741 6.237235675825175
Bi 8.833192640098952 1.7668446805056754 10.04132838578453
Bi 3.9721912622086197 3.1705091809035526 11.060541802437017
Bi 3.0517291935772 0.40245410301721785 9.980130947641971
Bi 5.9580061019340125 12.71444056485606 9.084214989733702
