49
Energy = -177.94771222 eV
Bi 6.83123542178438 9.441829391852298 12.850835815127022
Bi 7.817765792347551 11.616538322535467 8.751156521681944
Bi 4.606087467040263 9.326418421592843 6.825307483261613
Bi 7.22749354129326 10.733669721373749 5.872433282792977
Bi 10.477964907058622 9.062758332399092 13.874609780065438
Bi 3.8804726737623683 8.532758153592617 12.689084849774824
Bi 6.963345124756718 11.896249577143445 1.4622635801686743
Bi 5.317832990790734 10.464655021024338 10.291988657164694
Bi 7.810286704692647 8.64349609330835 9.842265487810304
Bi 9.487105813763074 11.045087546822735 2.94235130575603
Bi 8.580510023799874 6.8110470248654815 13.126779228202786
Bi 10.221345645734308 10.199439123277758 10.954755445812534
Bi 1.3587430701477654 5.566939648741566 11.3249531026569
Bi 8.346351884067609 7.9083699133961725 6.447846967870264
Bi 2.100785141311052 9.559929689564154 4.970325296065157
Bi 5.648119874570955 6.773517632608752 5.361728129947002
Bi 5.757879150275379 8.840913559564601 3.0409438849313584
Bi 1.7934535856332814 7.963752684055256 9.44728776398952
Bi 11.178646234929232 7.32216937223242 11.512004256418672
Bi 9.595746172893614 11.766586312569737 14.609514930694722
Bi 2.8232499675551304 8.65337409817749 2.146511194685865
Bi 4.345640664585452 5.644150853982044 12.02770715744306
Bi 7.324344629675006 9.88697681281846 13.874609780065436
Bi 4.6472161051993455 6.763259200336465 9.146948939853694
Bi 0.660631555119697 6.483430063387383 2.833711208923495
Bi 1.3795987413781594 3.6919373431541103 8.887564978276929
Bi 10.657126970880032 5.344730285499938 8.455689937442381
Bi 2.139470346218928 6.5013762459793 5.513768529081331
Bi 10.13725478815654 8.261333738493946 1.9408133048087155
Bi 4.0306366765569885 5.120783421071234 2.056968250424089
Bi 0.03698414259420015 6.1567870682233465 7.680818055217208
Bi 7.509006855710991 3.945216624438079 11.173575089342286
Bi 7.398896654451632 7.342142320766847 0.9520342239339092
Bi 10.756139580277305 7.035825034675351 4.676944686946826
Bi 10.59624640434574 3.747057387549595 11.102407390682085
Bi 7.6089978154141225 4.802629975522754 8.21270674391671
Bi 7.489413576568462 4.741569078795341 3.323467957150681
Bi 4.154266898008736 4.145184621302499 7.656105701808024
Bi 1.377608875599235 3.6623482681593154 1.904341801095594
Bi 3.335633029355367 3.0682548080473686 4.2119057715049335
Bi 11.768567399177709 2.742138857342226 7.312277076290668
Bi 7.33845211032428 1.8429107960315656 8.916488509816157
Bi 10.529652289408313 4.4507548975043125 3.0724910790066713
Bi 6.399877409440727 3.3297677054429715 0.6887969459626726
Bi 10.168761426799716 1.992957159922734 4.855707336063283
Bi 4.375333322088108 1.3185623735271506 1.8591596801892236
Bi 7.140894431763023 2.390975342682149 5.310085334974232
Bi 10.29240774433308 1.1611578177331392 9.43986182352309
Bi 7.261988607001968 0.9817524955523755 2.5634050646537085
