46
Energy = -167.54187064 eV
Bi 2.7173492324294073 10.42751995171491 6.997493364508943
Bi 0.6831931413763436 7.630002044798374 6.229184873790536
Bi 6.375312063281983 5.556439998275849 1.8409052419667848
Bi 6.244590462295821 8.934550803279516 8.590175045998675
Bi 3.092437299651919 7.103384508261186 9.40660990817864
Bi 11.571459551540393 3.9957092500609597 5.083182533187981
Bi 5.678257452137081 11.175815520088706 3.686113375485065
Bi 5.011287444885559 2.512179740663439 1.0283187204397175
Bi 8.353071785372805 7.324429701404797 10.254414972521314
Bi 5.351681365389799 4.800372536410846 13.514097792185618
Bi 2.7103635816710074 3.727537578728506 6.25539369482934
Bi 11.10725711724982 5.092801652095441 7.931349365409832
Bi 7.585045175056614 6.622891509099458 5.227750398810195
Bi 7.993887541689444 10.943659721093665 7.057198553401564
Bi 2.6736658643824387 1.2425362626970924 4.402373409070193
Bi 5.486745116685651 2.44448764106379 4.430514359217727
Bi 7.692119235694887 3.1857639962424757 12.328674023724622
Bi 2.0297424445264993 9.858248894780555 9.911240126294212
Bi 14.365435076550307 6.222540044423251 3.602533557854476
Bi 2.7545503350738874 5.3055062110639915 3.1021239403590912
Bi 7.762460660234165 0.46026119168513135 3.829998121693259
Bi 8.889642777386568 0.8761884602840607 1.0632571786095069
Bi 4.5481843541408935 3.567143452479822 10.600493633099033
Bi 8.345944371469962 10.324934725660924 10.403258500092223
Bi 1.994382895986253 2.6620030947581084 1.713264817437598
Bi 3.96353828674539 7.422231581439222 1.2360490764863479
Bi 8.19741574798907 9.473931514934062 4.227934237381499
Bi 6.564431910381891 0.6027375413471624 13.597097172259945
Bi 10.331578306913961 6.5582444477353254 3.8730208097484344
Bi 4.9651091072014015 10.38264928723419 11.038146037704099
Bi 8.662700762981439 1.1378611471821176 7.692878685718587
Bi 5.202972856369303 12.216586268572463 6.539178643279426
Bi 9.900281495227599 3.5874708424509296 14.434525419666375
Bi 9.196227439552256 6.3283038440825585 0.973929237015633
Bi 3.3627711849303314 5.953543354897866 12.158339614549845
Bi 3.719092752633483 7.716413874194505 5.879302490223148
Bi 3.1865041335784086 9.439163388554237 3.410485448159067
Bi 5.81286450569261 7.799708474240789 12.328674023724622
Bi 6.136355896343768 4.631261537644326 8.183716225445307
Bi 5.622972753596129 1.6732172668446177 7.48562703630731
Bi 1.8741767252457933 2.993304319142353 9.150214279154882
Bi 9.58721024800592 7.669814443275938 7.268582642630547
Bi 8.75323576334664 2.979138646731193 5.312534665626984
Bi 8.798470178228298 3.669088714025812 9.416124810349947
Bi 0.41474526492826774 5.706738040196925 9.014338749384837
Bi 14.229853126273584 4.425611466268391 6.062288148279163
