42
Energy = -152.29926555 eV
Bi 7.826443940401922 5.460324389048973 2.2733862496751076
Bi 10.404525513006512 10.36816519398082 5.283050693159219
Bi 11.171163379103708 6.618540282882044 6.57238637599153
Bi 9.837569320606923 3.1635948599117754 4.885167775575709
Bi 9.574843273456215 1.9028666537533723 9.103880870196697
Bi 8.043540504708925 9.042057108209583 2.3092372522555453
Bi 8.322226964402573 2.4979598455897833 2.3327682262062597
Bi 11.86994156188489 8.694257594323643 8.656206592166983
Bi 10.691779356846968 4.888054825146595 9.053413780497815
Bi 7.553455024571597 6.012648389221159 13.515195634865002
Bi 4.761516157154333 6.709714753787504 4.596318601270092
Bi 7.6475680711460265 4.585680732423591 8.934468904946234
Bi 9.5578105916981 10.836348283136328 8.345507961031247
Bi 8.11300060878824 11.738614219149762 3.808594573150831
Bi 7.624458834391663 9.052190163604909 13.48519952060503
Bi 9.335319850026014 0.5968567691435414 6.4015371347183505
Bi 10.731666149725024 7.554285501265517 11.308895515659755
Bi 8.503898530008794 8.417454559557257 6.65886199650843
Bi 5.3972360897090725 1.9353599395392063 3.4840295472817777
Bi 7.6710853475849 5.053623930618751 5.892748056572336
Bi 4.737196683855803 4.694577357706991 2.276486212563287
Bi 7.835992856483684 7.540982011070151 10.276792954839003
Bi 5.000406821000882 8.822181713227794 2.370114182019552
Bi 4.970689665532052 7.567281846048754 13.773973007610513
Bi 10.145149543572566 10.555004311053374 11.653479099925915
Bi 1.4567767730927832 4.13382998610289 2.0636523775816844
Bi 2.142365870610069 2.2797640373796613 4.189749928245003
Bi 6.779165371678167 1.0543244652805006 7.934354308942048
Bi 6.16717185619336 11.151076387388489 8.276050601948558
Bi 4.896705211274375 8.379953740047315 8.809997398751767
Bi 6.60037089131474 5.959003077627611 12.547661901218438
Bi 1.866506419090047 7.5181555356299 4.84367893670419
Bi 6.049549975376228 10.1958699059712 5.422976082594526
Bi 7.165866180664069 10.421167304297112 11.542402874107486
Bi 5.288554491862 3.1549618662784846 6.23312339107326
Bi 0.49992866497944355 4.7885431518495 4.861387063751288
Bi 3.3751807804830354 9.146885525782622 11.384291329910294
Bi 1.9771145830139685 8.19593743889102 7.838002529820651
Bi 4.345173630540502 4.589941027476737 11.020737063440073
Bi 5.476175112051941 8.613219029377811 13.485199520605027
Bi 2.2158102291936665 5.407756184526715 8.922903921987492
Bi 2.0531472206046346 6.3850340043811595 11.813726150563042
