44
Energy = -159.68658131 eV
Bi 11.494105592570563 8.271729182209356 5.868569111705191
Bi 8.23767540376333 8.995259020484072 1.8870516965715955
Bi 8.047150528982321 3.585476633247624 7.842632047640468
Bi 3.2550886977594162 2.306707689247874 7.037486484255233
Bi 9.470304950371107 8.412729812049337 8.205823746353106
Bi 2.5013814201052207 10.080429340073941 10.545734973436538
Bi 8.298109925493344 12.267122883004268 9.924160128252481
Bi 9.465783330863777 4.112794456100263 10.48688959025663
Bi 2.5310702491313086 5.034610206558252 5.6924485985890305
Bi 11.742558520838578 4.381252002492337 6.587520730435889
Bi 2.4054799857153215 8.831855105098715 5.951645583367308
Bi 4.931188885633584 10.103111125835891 4.4240122311495815
Bi 9.638424269130224 6.644657815354605 0.5311994086538768
Bi 12.33491369980037 2.843613512978933 1.8408354662396238
Bi 9.93271121572527 7.673539328476622 12.659508290091594
Bi 10.232383817353337 10.19750347637588 3.8651693739891324
Bi 2.782185512441216 5.842990170814172 12.38905811006116
Bi 4.9563523091556325 8.073452782873717 12.386115726558412
Bi 5.011126396841909 6.243255641513424 1.660897467910395
Bi 7.76666388398323 11.86425394366263 4.4508827846730465
Bi 2.1630752889184595 5.727255924310279 9.434416309880453
Bi 8.45840924865377 3.8436142936120326 3.479708680470018
Bi 7.512130266402742 13.277367941598152 7.0952212656768
Bi 0.6376632805793572 7.649033205716944 11.24799783328582
Bi 7.838590772382846 9.595212280366178 11.364059561298298
Bi 7.343284457098165 6.036060191710528 12.825729591580771
Bi 11.149421615476562 6.594644105538823 10.01833878427875
Bi 9.968719589409476 1.2505337601752793 2.8918336780873934
Bi 1.5876207523653885 11.073068800469258 7.758683414852246
Bi 5.411292167796675 5.61345846163002 6.654750378247619
Bi 3.597961698630825 3.889498504243334 3.008889499948457
Bi 7.384091240830847 4.573324978223959 0.6954676417245065
Bi 6.242817136827748 10.358570046225092 7.217458981646056
Bi 11.082101185275468 5.430681177122481 2.9912423221416846
Bi 5.113877119752455 3.679874082859268 9.078465776141684
Bi 5.615922139597788 2.9421061103336177 5.110751197368168
Bi 10.717850895732255 2.18606601079314 8.436935333807257
Bi 6.691805797833365 7.0654955330969536 10.002151378623692
Bi 3.8872189565532596 8.191776752672837 8.588823780553106
Bi 4.3733626782405475 12.686995895169295 7.747868913553701
Bi 9.198174300931191 6.204484862574069 5.988817433453021
Bi 5.336678439572133 12.084300485497657 10.631813228546893
Bi 12.280344553636407 1.9487159343034683 4.726620667614986
Bi 6.56266384323992 7.521252554702931 3.956048818426287
