42
Energy = -152.16167204 eV
Bi 1.8313678874441308 9.204858290123198 12.272304839843875
Bi 4.307311499948841 7.698459649529939 13.239271029086822
Bi 2.54653953397038 11.44763508627753 10.261130652342622
Bi 0.26047615813683755 10.330551019465794 8.601654283990243
Bi 5.275233267847569 8.567553138824573 10.467850450762162
Bi 8.442162006119062 7.367880289958164 11.467134667763242
Bi 2.8179234680014114 6.720326869881236 10.82666305760045
Bi 5.416817849790121 3.854807068087699 10.10825030447684
Bi 1.53154031398921 11.727210388601609 6.241324021241937
Bi 0.335704120557537 9.540005677382736 4.415328153310957
Bi 9.749028076092982 9.384901555900626 9.808850430337936
Bi 6.845364848133702 10.254276403387768 7.681718068851614
Bi 3.124288036561344 9.640017605572575 7.848143901751324
Bi 9.825095336374291 2.0811455920545314 11.713156622017168
Bi 1.1882069920047016 7.181976679926638 6.142021673249425
Bi 6.9173460085412835 6.312383331127485 9.083227042117446
Bi 4.392958519314393 2.38255356690986 7.613144815445983
Bi 5.806737305841113 10.749004787022782 4.766499089427798
Bi 6.936518997810995 13.0328747593867 6.37180537187986
Bi 2.999814784009245 8.133066790952359 3.9022873028445737
Bi 10.186439174685436 4.619986477995822 10.093603315395915
Bi 12.063965130354239 2.1937010010322293 9.679976977733759
Bi 5.229819363136131 5.890055942253031 6.127278561887503
Bi 8.087417102432125 2.536242047312299 9.255002606414608
Bi 12.508791312106492 7.196651440381479 5.487178512968011
Bi 10.464314907925981 4.174612159573864 6.052418699798405
Bi 10.65102637892572 11.021970758169957 6.046989135401291
Bi 3.462956081676452 3.8417379079019476 4.816508979323967
Bi 1.2764558711592413 5.684292411202842 3.4725885645822894
Bi 9.218084538959857 8.499315535434562 6.917904798251017
Bi 5.454913085447458 5.477677150497573 1.53620045099208
Bi 6.823320190764057 3.258428415385997 5.9603758090311505
Bi 8.543066880304588 11.943754517131586 4.060108035593614
Bi 6.656025701206423 7.175909498067519 3.7486468518251534
Bi 13.311010053077126 3.11911004934539 6.022333033261399
Bi 13.157795423634864 5.968912992249641 2.782433130394063
Bi 11.04904629962933 1.2973935566703076 6.919955270786758
Bi 8.246222489951563 4.80367585297383 2.5638445365671165
Bi 5.962544777330595 2.7818069619186963 2.984896191867633
Bi 11.775466478981496 3.2806572137885612 3.4169125587262785
Bi 12.559132155407328 9.830112422037192 3.937065768140628
Bi 10.635319296599068 7.615413114911984 3.1611602020968865
