41
Energy = -149.1981434 eV
Bi 12.156163333270973 5.237304587137385 10.032963751506186
Bi 8.718802420147655 5.7509419133669 11.83498909375507
Bi 11.318852643395763 8.185599828952832 10.193476845302499
Bi 10.025190669196828 3.009315430420264 9.66610597213115
Bi 9.456726266820823 8.669672991705129 12.58197872508697
Bi 12.247657129394124 6.279961935093599 7.117472969335706
Bi 10.96986930592993 3.9399678362359665 5.4055902646278104
Bi 11.270863980179504 10.201356340117577 6.809800876215912
Bi 6.144216016581893 4.42499344723232 12.955716887945703
Bi 6.965426527132833 9.506656019666933 11.095994246492499
Bi 7.4568184096278465 2.260304886959632 11.261182562957694
Bi 8.639282392814367 4.244759230604812 7.300171678840859
Bi 6.8507358423868565 6.817398324282263 9.596698090462255
Bi 7.182610100861383 1.7116676662466928 6.4469405013777115
Bi 10.988231973841282 6.450404448896326 3.5104487780875164
Bi 11.402150072945938 9.440913518477291 3.860501836324859
Bi 4.514864002776796 6.626512202975709 11.585302355139833
Bi 7.220050351338076 11.933208503525037 9.2206781140359
Bi 9.648014444445515 7.796429484483988 7.651681761408476
Bi 9.080233862759682 12.337708511595972 6.800495104402502
Bi 2.3565609149156965 5.263361959407608 9.907762194358167
Bi 5.558737806030123 1.3580321541791698 9.03842883149088
Bi 3.643601540399339 12.960496720555541 6.780793092788825
Bi 4.4564362028295506 4.024022483293838 8.146828316349861
Bi 4.606681653161288 10.5678683243036 8.414678663835053
Bi 5.960406764436149 4.268775916960781 5.020188982495273
Bi 7.036546021744458 10.731708841240739 5.275937507392293
Bi 8.413937615744306 9.92126846838556 2.677871269470781
Bi 5.163132361836238 8.146458605437351 6.5923843466554795
Bi 8.309151407927908 3.2358531802023958 3.2650800161095965
Bi 2.2258833035092236 2.5450610934278006 6.67530906867638
Bi 2.3243140287742614 7.235174019445949 7.571516085767752
Bi 5.515042999412984 13.184233214349469 4.396635843628062
Bi 7.9845519283945325 7.183589895380811 3.959108411699397
Bi 3.215466538584774 3.411497760469267 3.9270786642428326
Bi 8.48181644633383 5.572345161905215 1.3427207874677844
Bi 2.8218292924076915 11.824131747474166 4.116752812940425
Bi 1.3031378470998598 5.1971591070320855 5.508303997134073
Bi 5.556302122706776 6.20993280141766 2.052233495969424
Bi 3.3876204566597696 8.832556961774165 4.15478273453588
Bi 5.2787472902106325 9.159435397646009 1.7872690259794626
