41
Energy = -148.44487555 eV
Bi 12.568205897414918 10.021127419502792 10.67190419735267
Bi 8.705469763171218 9.844257818266302 8.456739116587814
Bi 2.0078654092050208 9.581858446617911 7.04205844935451
Bi 6.136282727152299 8.899895749992385 12.371791489782025
Bi 3.2686525793070866 3.2216299409131315 5.903073479167311
Bi 12.053260228195713 4.978002503401471 6.461345708946551
Bi 11.659865539147683 9.811531759499996 7.760320103158559
Bi 6.453128015764706 9.699247161329268 2.6741286472118713
Bi 8.390049568413119 11.96203810525435 1.9184017796945303
Bi 5.952065151487893 12.124406081887695 8.379418253881228
Bi 9.337961614030444 6.91731772891592 9.715546416347683
Bi 2.858591387271654 12.26592695186123 8.370748861011785
Bi 2.9638565604998184 4.268607761878015 3.081475422026428
Bi 4.921417727926314 9.831450096135805 6.070020430745944
Bi 10.313991610696053 7.359870995650097 5.6229680624123946
Bi 5.766326760079702 11.826485462371913 11.456342159277426
Bi 2.568696205170524 9.996123065719793 4.07756097706072
Bi 7.577374813022321 4.9532594590541335 7.469997919537855
Bi 12.392820525829391 7.1672184251897715 9.51238527461291
Bi 6.264089582645581 2.5448643856163167 6.053208170873475
Bi 2.3562009421456804 7.267865097522351 2.6763420192472185
Bi 6.016623431399524 4.427508884416535 10.116598443838166
Bi 5.230281391039324 6.274795430733626 2.5478160668202503
Bi 3.0825237630688416 10.480510589370187 10.836996121469499
Bi 11.323413323278142 2.0665793855025987 9.277721273798981
Bi 3.0318584990928534 6.197542782160506 6.543369842292801
Bi 9.850651901121077 2.9346783862958548 6.785665891015066
Bi 8.66632939015802 7.7878041069594826 1.6537833116460796
Bi 9.102763793879106 8.15409016581354 12.510518949216978
Bi 8.621762006043724 1.7122440919457607 10.68311068784529
Bi 8.18864722018148 11.128394721252477 4.808095107345867
Bi 11.881970184836279 4.35642923133926 11.222484641836685
Bi 5.815139115402871 6.9149405221226266 5.534460631604211
Bi 3.436856675955874 5.961407563211624 9.550720918977111
Bi 6.0186138853341635 1.5833924134068664 8.986523948504052
Bi 10.395486967342586 9.899015510699178 3.0423311546705896
Bi 9.659054244177407 10.827435401916288 11.195347499947939
Bi 5.074604187603969 8.539829288385953 9.507201127301453
Bi 8.959694563864774 4.554203043448472 11.894730190423923
Bi 11.880587942601922 5.836718079250126 3.513877320838439
Bi 8.882651145224743 5.455182225371748 3.678556172498454
