43
Energy = -156.16489954 eV
Bi 11.081928144879072 9.727375827550855 1.17285764005323
Bi 11.468149120290587 6.714780250047206 1.4473978198411523
Bi 9.239386144014448 3.4832105779874243 6.580312880778042
Bi 9.133506831891246 5.872005627166604 3.255938658845955
Bi 13.097480463285091 8.619530397488049 3.1600779998980824
Bi 7.403808760830417 7.802590183537821 1.7207151522608182
Bi 9.437679290043627 6.772863404948141 8.395564225523403
Bi 8.256346293886075 0.7163956080184994 7.2069029400721805
Bi 10.67956334198344 4.073016771597397 9.17656912415209
Bi 8.688981374476194 4.115157175427241 0.7742043640994684
Bi 6.048461801070722 1.8610730173207062 4.95594437234574
Bi 12.050683754026343 10.308382335570922 7.374201415490602
Bi 6.188354774095523 5.091528558572143 13.879080005273032
Bi 9.70287442855719 10.751518666865403 3.7277327187045275
Bi 5.910572986392133 3.174236300683699 1.5557970686557758
Bi 10.87128255243697 8.387757452385621 5.271955639366979
Bi 7.527233582893161 6.5975618844755894 10.755469826864028
Bi 6.959467988740908 1.3496954727718515 9.8508344378121
Bi 6.313650462863459 4.536440212270187 6.44885641418331
Bi 4.401531790742674 0.4178311443027632 7.066682245049124
Bi 10.171470231878956 12.652431407020652 7.1011678195909
Bi 10.57647635319184 12.410759830367327 10.117300742935047
Bi 6.7087076409767405 10.09762106852065 3.609076095340773
Bi 4.8814540868587315 6.064071371490271 1.8049409393684344
Bi 8.457582067889748 3.676183860053818 11.191547751471001
Bi 10.901250119245336 9.09038949451115 9.956009050877709
Bi 4.817341686964013 6.414624307548256 9.285128055418726
Bi 3.1837444955851435 3.2170053093611077 4.025064996916259
Bi 4.7507421725541645 3.032778835500551 8.648419635316696
Bi 7.4205867962151855 11.359501047112422 7.560070315788697
Bi 3.9032253903300833 8.174491784755215 11.686283261425281
Bi 1.7190663931560752 1.4391708053362846 5.958524143793936
Bi 7.398290938090929 8.642432275211977 6.189076359059654
Bi 2.4012157194148367 4.855766064574355 6.493807914991279
Bi 8.20494570547579 10.462856166163796 10.360205768716687
Bi 0.9350693193546524 6.095335565741742 9.91419809814696
Bi 4.476820780065842 10.595039563646981 9.949214184443738
Bi 4.583726420038001 8.842397743844439 7.4077653355271735
Bi 0.3868492722749606 3.31611025371318 8.244240666350754
Bi 1.2505406385889728 7.989935161266955 7.5768290120186075
Bi 1.586746422658511 9.59128632371814 10.284722369507909
Bi 13.09748046328509 6.9756671842767854 8.357292929549514
Bi 13.807332679426398 5.037217888199593 6.11859051453458
