45
Energy = -162.8395187 eV
Bi 5.9281126047074375 6.138134609689317 2.938793565623328
Bi 4.527458920686726 5.44607429161689 6.106114270449363
Bi 8.55668109242265 5.973990625935563 12.903287238402108
Bi 2.0761881163446105 6.324816705430546 3.472115510417267
Bi 11.851747012422816 8.36325303808525 2.6739886049669646
Bi 12.558541098973722 9.396279585941041 6.031801270302964
Bi 4.00287906443467 12.830909498508138 4.518057750435895
Bi 4.982094161255323 8.135485196365828 8.830508211612168
Bi 8.05121941477044 1.3765217118710975 4.333411600137641
Bi 10.3944939033757 4.6717124642363 2.216326495741424
Bi 5.8777453590937485 8.974322110469226 5.325837517779925
Bi 2.4021780549361993 9.115491743939145 4.748071503815666
Bi 1.014099225767601 8.393502064723258 7.340855228511136
Bi 9.175211113214473 5.817918779259607 4.848968456505007
Bi 8.715588222941983 8.090673291043935 2.849422590857369
Bi 9.715157226903674 1.2506854291653586 8.397441150846642
Bi 10.142391212342048 7.6037275796262795 9.709280707415529
Bi 6.726121365284397 13.245658129586953 5.789487736691416
Bi 6.71840372858186 10.227377199603316 10.299579407987501
Bi 7.563852665719808 4.144513726172375 10.584697456242779
Bi 10.716030697830707 1.6932726242659464 2.9300710356511344
Bi 10.285949776856743 4.1473401402692165 9.219264931713704
Bi 6.032882867971487 3.102707705218052 2.8045866085648217
Bi 4.1708197030852965 2.6594833353511884 8.870881471691233
Bi 1.7916920029587016 6.854017177069625 11.79403177344141
Bi 1.0796975145960999 4.276435130960058 5.5162630864054965
Bi 11.367770682711889 5.662965875566513 11.789260513687637
Bi 2.1105737802120883 5.597219469608515 8.050885724578757
Bi 6.463606319796051 11.342595579397148 3.4323227624609567
Bi 12.558541098973723 7.854551871407188 4.650420837505278
Bi 4.738131833500423 11.28251656323144 7.0657589440783255
Bi 10.277326065068188 10.562382110671905 4.2562727424355185
Bi 8.835090628733264 11.357933458792607 8.29588169834451
Bi 8.852485079628591 8.90859788894197 12.058739896651947
Bi 2.9945255993160864 9.478787739238948 10.86078387404191
Bi 4.21894732192497 7.951007267876384 13.178933144508134
Bi 12.247268513176932 6.511239988209602 5.013263474563471
Bi 8.79294241297659 8.921160949464687 6.449377356709716
Bi 10.35687231423655 2.7921390404355027 5.808732649815029
Bi 6.914083066198817 2.4152510319001026 7.443511806412769
Bi 3.663489236290369 2.5233037488051515 5.862066948062931
Bi 7.258219386374319 5.495447471569456 7.791930506098501
Bi 7.641409800208974 4.698351069782035 0.800927821880187
Bi 4.6026941671687105 5.873720773254646 10.878891031675286
Bi 11.60008235992571 10.145496421412902 8.887865298249759
