46
Energy = -167.56831233 eV
Bi 13.762722329064848 6.661966171899479 4.2411619217316145
Bi 1.4993485958470203 5.715882677154987 1.921044833277062
Bi 0.6607707209898085 3.1389439388973486 6.988418145191446
Bi 2.0693285072445162 3.2359680748008754 3.814389725698855
Bi 2.142881629632241 3.851590007316224 9.668030192936717
Bi 0.8688620951842198 9.436867696632069 4.843898810703655
Bi 1.628130467512202 5.947570936633756 6.548677474323113
Bi 3.6490561404485677 0.5482281621459222 3.7021613539784686
Bi 3.387933505961012 1.6649307170505023 6.681304130276932
Bi 2.6078874493148922 10.025700355072246 2.4366388364978637
Bi 3.93218321428516 8.321621580109856 10.364471736844731
Bi 5.306588060482074 5.3617094261294005 12.49126571026061
Bi 3.9311519985084944 7.308274796564511 2.725312724151869
Bi 4.3688534766088525 1.8557929446488777 9.75079380111325
Bi 3.354912352945757 9.404763218568833 6.715240284255861
Bi 5.514651340108811 4.40744386898996 1.3928058229810318
Bi 4.5583919084489475 4.176004425728965 5.31267935549556
Bi 4.461256821968651 5.745585043326229 8.571056922315796
Bi 4.159064096352498 11.56735117407927 4.630698748376711
Bi 6.386065374274844 1.5923343985751512 4.386836156083632
Bi 7.354343941169023 1.9773466082950908 1.5337832270477125
Bi 4.58822030961811 5.648999904234291 11.94298443865141
Bi 5.731114135889456 7.794483084110339 5.581590913935674
Bi 8.044986104136742 4.104002443333812 6.791073657866598
Bi 6.543218983707237 4.019959638159567 10.158225904062526
Bi 8.527849472902092 5.692950506133254 3.929224537457692
Bi 5.722513055372289 10.750507746776469 9.288019067465097
Bi 5.083625355754692 8.015527188846027 13.935064203895694
Bi 9.851650306912083 3.631931722330485 2.20247761335246
Bi 6.67767698747398 12.496731585668634 6.973495691687308
Bi 7.600780522703293 8.28457486567466 8.125677948955639
Bi 6.1363043911851305 8.277478464801597 12.49126571026061
Bi 7.588516099170078 6.305442470366 0.24633187700093412
Bi 10.098456821379607 6.16930599992587 7.750116118876776
Bi 8.363933464336537 7.024679150364741 10.859962246201462
Bi 7.029887620189549 10.449015155026405 4.679628583531757
Bi 10.069735805586557 2.386777835441727 5.0646390165146595
Bi 9.605140039480329 2.294310507677257 8.961176298018062
Bi 11.162526238884242 6.817800103708643 4.977029276007278
Bi 7.9679298375732674 11.546154422143033 11.16676484572099
Bi 9.23527237691198 12.753886029500743 8.608652583014136
Bi 10.182363437606309 9.50302958209926 10.617368020346365
Bi 10.074243469427607 9.965769497561721 7.581604270307076
Bi 12.426015894123797 3.31216491697576 8.455061986281303
Bi 11.488171585289633 0.6390766964137994 7.392720435684756
Bi 12.507116149662432 4.069191601485647 5.428624534697308
