44
Energy = -159.58281828 eV
Bi 4.840622092961165 8.704950746864887 0.8480944515715989
Bi 7.006324861557462 11.830315846773171 6.091598972220729
Bi 2.892451785792246 4.87526911554919 5.508216195625352
Bi 2.534040828714643 5.995497196305272 9.594174123794511
Bi 7.102016231109962 1.068299976604464 2.485332323203297
Bi 10.344442348285863 1.4738098483300885 9.047093449305619
Bi 9.718907054260827 3.404679412916916 3.7651012835068576
Bi 3.134736048073098 1.4656921744288323 4.675303533979403
Bi 4.192645833937505 7.0113486611886975 11.938276801749797
Bi 4.10193326397863 4.855463861521531 1.3021095997874361
Bi 6.6442325607103 7.564881637358162 10.179080720590498
Bi 10.292558138175407 9.465219236209466 6.30318800289733
Bi 4.515944501708416 12.105934367330025 4.360024371156694
Bi 1.4216085796177804 9.884632013410977 2.4115390909594034
Bi 5.2072735727383614 12.105934367330025 4.033415404912673
Bi 5.885069659061352 11.40201016587787 1.5394068746878322
Bi 5.886996056228576 1.2160949461365422 11.058784994949281
Bi 9.064764254884496 12.433985381205249 7.081212013578102
Bi 5.332334588908299 10.173153562751057 9.335949399875966
Bi 9.105746391650733 11.094089088948786 3.9764141139159284
Bi 6.813342016978528 4.050684880783897 11.637720035593535
Bi 3.923465035128052 8.951912540842258 3.8891240029647394
Bi 7.7656251179890665 8.312328834134846 3.4411392890034582
Bi 8.78652037227875 1.734515656211704 11.720271683557824
Bi 10.478806483026487 0.611126099220552 4.64047968395367
Bi 6.093699051222527 0.0446546688240956 6.8645957606241375
Bi 5.105207903609752 2.10069923267382 0.4071790790615744
Bi 0.23597889336591266 10.724867717160583 5.10657695662953
Bi 10.934203359776223 4.186417321068984 7.874505182799824
Bi 4.936889992642513 6.585621984563948 7.758604677975518
Bi 2.8714648907080713 9.604459533871847 10.95103263915728
Bi 2.4609009044412837 11.913062355793187 6.672060046096784
Bi 8.523199858147215 4.972184108178287 6.159385856659849
Bi 3.249512546278869 11.204547604790633 0.1764395149811761
Bi 3.7455140403539535 3.5119083982329835 8.190659756115137
Bi 2.753709842936994 9.020032410040836 7.778488731373568
Bi 2.4740471773727664 2.3240795432304133 1.8274512260594977
Bi 5.964407777927487 2.5960483291504985 4.878610854577954
Bi 6.8158109953241794 2.9974012902659175 8.770406453527753
Bi 10.307818847352493 6.921991323101489 4.555688276122494
Bi 5.41197294470864 5.621648737570072 3.9626437143062185
Bi 12.280237041802978 2.9233714076725135 5.440280899292179
Bi 1.2583060477222094 7.716915609276335 5.035309169408985
Bi 7.302888009661508 8.789479440480529 6.445208591001268
