49
Energy = -178.64343151 eV
Bi 4.776141631306456 4.970815872794926 2.3430590077204427
Bi 13.08000359043782 2.8856229100258735 2.544298531360995
Bi 7.7955135876525095 7.819209849027834 0.46851398161871066
Bi 8.402920904230463 9.429941223451056 2.984415734287088
Bi 4.872022979567444 7.842679550006743 1.3552153802765405
Bi 6.753074248586516 3.289831066191894 0.7147094892425844
Bi 8.884073869667304 5.268583374467076 1.7332881961194913
Bi 1.0073356696332032 5.503879448730224 2.7161842591183167
Bi 1.2101572642008276 1.883882294362985 1.8723913144763995
Bi 11.278023055588656 8.223301239588046 3.213918501247556
Bi 7.552315747858566 10.539767867372202 7.086148843250487
Bi 5.064871739208671 11.03208532233489 5.29898221623014
Bi 14.238140453320304 0.4951938331118911 4.019777540782504
Bi 13.660343148695064 4.916983249207759 4.883992626130838
Bi 7.304404657989204 4.943799343546619 4.3524728943880975
Bi 10.660392495396504 3.5629298226274306 4.467022194162313
Bi 2.8304962014911417 3.004332382798196 4.302965526711501
Bi 1.856641801607361 8.44942134016857 3.75500563213015
Bi 5.803819490771552 8.212506789463502 4.283944891403946
Bi 7.339820451201807 1.9484609474690249 3.417570150784248
Bi 13.08000359043782 9.411326772775125 7.647803743753834
Bi 13.364137181523565 7.7004663411371785 3.5992516573900586
Bi 4.739773171879165 0.5220725089036694 4.155463504483308
Bi 11.106461158695371 10.23431596184071 5.546222576222847
Bi 11.818854883823185 6.143611505629867 5.4353311423038555
Bi 0.6860081173186253 2.1704061494843376 6.38157086629768
Bi 3.170333641523629 6.305831644105226 5.671178197229108
Bi 2.5541657269675273 0.5342567326770248 8.200484366893173
Bi 5.0350225858625395 3.8944893819359105 7.190634315228399
Bi 9.20029690229436 7.795294643142984 6.133903776077481
Bi 10.564005476116382 4.677112420139647 8.377664500962496
Bi 5.426464172123288 0.779751723046955 7.068167095041497
Bi 0.7404012264517513 6.1102098032490755 7.527513516234236
Bi 9.309911166310572 12.855538400789218 8.264962105484116
Bi 11.472051416611201 2.0837210699436803 7.024883183314244
Bi 12.103230041400842 11.939252782766296 9.045378361563188
Bi 14.656587306863008 8.796840661455796 6.148295507174276
Bi 6.108036566473481 9.835011824951575 9.687145398394305
Bi 3.594007581718524 10.353742470028582 7.891047852362271
Bi 8.506760607359547 2.7234440637002977 7.196870455651481
Bi 3.4985538741921496 7.395048687716187 8.539365187609121
Bi 10.38090127274183 8.28162033275075 9.062757451289752
Bi 2.7500135317686514 3.4282077740775345 9.190946111345214
Bi 7.616815004346676 2.0505362288167284 10.155278241377939
Bi 9.576458120579002 10.90650107342599 10.542072125316995
Bi 9.76913711968681 3.942232218515987 11.260224176128284
Bi 6.978137488596945 6.961524515273782 8.794615545799822
Bi 5.559854142659694 4.25628777913509 10.252036743518797
Bi 8.701791121699479 6.801721283265282 11.308659865537846
