42
Energy = -152.69907859 eV
Bi 6.173836664125987 6.396335230076493 0.47056441897209944
Bi 6.791377053548592 3.543114528025837 1.2702943210986042
Bi 3.9969559901379577 6.649695045389447 2.679403176954698
Bi 4.995536834355528 10.921337670747858 1.4504086699757237
Bi 4.113753257283341 3.526014726343725 2.8258921133084374
Bi 8.657047157969759 8.03526640413535 1.214924039806832
Bi 9.480270052770567 6.265554584279982 3.573743920057528
Bi 3.1740090020674234 1.916961317155269 6.111366512993146
Bi 2.4286441007316317 10.038916008849519 2.8507323420998967
Bi 10.191350903894614 2.890493595195128 5.767580555641207
Bi 12.324404917703372 7.027173465431269 4.409444365308856
Bi 7.052877027294756 9.598709096683772 3.274907285664534
Bi 7.599946772764138 1.1968239808406866 5.436710949087887
Bi 6.728043708524686 3.9223707708278717 4.321903380551251
Bi 9.636488576567745 11.220537153007342 3.77362741497271
Bi 5.53571713348577 7.299468303237856 5.2026719458212565
Bi 4.073605046437343 12.26708873163121 4.017571733628479
Bi 2.5091504462957754 5.170926057299385 6.012417886698077
Bi 10.018913508037004 8.699904902277995 5.440633421900987
Bi 12.343129290394204 3.2161320944642995 8.019883411733518
Bi 8.477132650227984 3.382336952345621 9.457232635652908
Bi 2.0667256443026636 1.26838200693884 8.8869438183918
Bi 3.5852508577712077 9.64160460504563 5.682409900939019
Bi 8.744726745503847 5.23607367416012 6.989208532630758
Bi 5.650210975871908 1.8199060856350735 7.7305432029782395
Bi 4.919236905116133 5.0819544545259046 7.892744041119626
Bi 1.4745080474403176 7.696403740433437 7.622561424431779
Bi 6.795683566101663 10.45932203593315 7.54415577181712
Bi 7.809040082289704 7.42441053431327 9.43051914295567
Bi 8.717606693666669 12.52493416371821 6.432171249569964
Bi 9.726220664116266 10.500449620722073 8.52439525777553
Bi 3.815058796148912 7.600888552906521 9.533458890919164
Bi 0.6542671984504813 4.0017236262208264 8.379861568934754
Bi 11.727098015851972 6.146839698077803 7.346830120738876
Bi 11.106415919743382 4.205554613135548 10.674481632473729
Bi 6.66849079426077 5.121816041440801 11.224730184743558
Bi 3.1393281721092867 3.8302389189976314 10.192868388562783
Bi 6.610740636794738 9.172400351127203 11.60888336390089
Bi 1.1092416397186509 6.4130368942342955 10.397567247786249
Bi 10.708798604878798 7.287277771829386 10.581124943200187
Bi 7.569765760981338 11.780003326874434 10.206504489714984
Bi 8.55322998347426 7.030911705773177 12.791611462813322
