43
Energy = -155.86157574 eV
Bi 6.001935173003313 9.258991940118037 14.632285784825601
Bi 4.566943595009973 9.798057990050626 12.017247104045447
Bi 7.536297122416811 9.256410084029518 11.975930572771265
Bi 4.052975100111989 8.416460597397936 8.231297911854497
Bi 5.603981314641347 7.022930273385408 12.623818584733582
Bi 2.0326670599345156 7.057845178083473 10.830211409618041
Bi 8.65618453245224 6.75328553501664 9.632702884156817
Bi 8.4639942459184 9.212746254885154 7.939219933820268
Bi 10.82251241130152 8.904994732617013 9.811181709096859
Bi 13.629428479469034 5.528940469572135 11.070940506500287
Bi 1.4512281684002073 8.88450456780645 6.675389876562028
Bi 10.994782687460345 5.0060717222094455 7.963755401191986
Bi 5.373140071878701 10.865116742121817 6.829555492280594
Bi 1.954901202961476 4.069355890798094 10.464594416474268
Bi 5.710093526415293 4.373729531175546 10.000154432076364
Bi 7.494292073764211 10.642680555256517 4.59952949467458
Bi 2.7510366443253114 11.42402715384811 5.3538384592966235
Bi 8.598131366949872 5.920229057491662 6.181108856712202
Bi 10.64519182859258 8.436346448256403 5.519468850679716
Bi 0.6166080627706173 5.898812453305702 8.339895899336396
Bi 12.619216497740837 7.577930174687247 7.644684587725849
Bi 5.255896999556703 5.720303284486786 7.175086062309985
Bi 8.223499090407964 2.7495467942264624 9.55291977353788
Bi 2.96245835815098 3.676802486317036 7.015290252025769
Bi 5.534256574991084 1.536994023632904 8.838355908349543
Bi 5.899825530235246 11.859238541853262 2.3051327443536525
Bi 12.95648443566953 4.278856997655373 5.631024056776952
Bi 4.680105864370581 8.002786985219915 4.044275508776361
Bi 1.6459079565598953 7.387838855416508 4.016872306683149
Bi 12.495468256554068 6.563219743785006 3.7960644338182217
Bi 12.10774654853104 1.7731408439986283 4.143634372777646
Bi 8.345698777038729 2.7130014164406018 6.388672387556152
Bi 8.37118326176451 8.29333183412868 2.70620452128793
Bi 3.334298143750633 10.292205429397589 2.579650892204172
Bi 7.023126262677672 9.763681690075535 0.3682123519101613
Bi 5.493932193212338 1.8526159368593855 5.72425976568938
Bi 1.7316555019810718 4.342724819441847 4.304635403677049
Bi 9.220028460100274 1.6424402212211002 3.2233079903639323
Bi 11.453451677804898 2.663538678452349 1.351724758629418
Bi 5.900989723435899 7.09279771577975 1.3816030624958
Bi 4.763709045641504 4.456313445826491 4.011821310193303
Bi 10.576965876785874 5.6010494282291114 1.6674051510886938
Bi 8.173311361404641 4.594953441293357 3.2500042865463006
