47
Energy = -170.72552956 eV
Bi 11.29672251321608 12.56240744955054 8.075331504606735
Bi 9.442270272661803 9.19611475500545 12.172413044844602
Bi 7.743670616606524 11.48701900640907 9.588615699766274
Bi 11.340702357575738 9.628239376279117 8.959827068610997
Bi 7.91892827493222 7.333255632706122 13.990349462178301
Bi 10.183366604013324 6.232576098152809 12.329125427246014
Bi 6.693369420493004 7.873172967486472 11.237443010898806
Bi 11.989724043181905 10.391640277042704 6.055795783519406
Bi 8.456168396832027 12.807334880465048 6.926116567202621
Bi 4.687534644617162 11.023967988535334 9.497852566063033
Bi 8.472425451719106 8.900102992056327 8.156572732894652
Bi 8.507315166201797 5.7681603379191735 9.760474498608142
Bi 4.023570178400932 12.825107681579935 7.109571023217241
Bi 4.8131271875015535 8.960020207385048 7.217231854153979
Bi 7.648477509204516 2.932981950762937 10.517333484655072
Bi 11.409250015765508 3.905681419867722 7.0338891802662395
Bi 4.618808424515995 5.046179371379705 10.9671353056461
Bi 10.689994537397746 6.767801908824047 6.113890086574396
Bi 2.786681565025422 7.573417965024413 10.569417042717719
Bi 8.976470498854587 10.198217473807174 5.36211898379839
Bi 9.380879476556386 1.8934881770453704 8.210571964765744
Bi 5.472253954815407 11.092786658885789 5.034222393548024
Bi 2.5905519520465594 10.4477636097547 5.750318054454089
Bi 2.209687561365619 6.19148888681688 7.909670101369214
Bi 8.036556418652491 5.298248613252494 5.826030418803166
Bi 1.5800378369254622 4.797421099384353 10.553868506838493
Bi 10.34719254852662 7.321805198969245 1.6322255679509474
Bi 5.188421953615486 5.2742345415619765 7.986008692394627
Bi 7.930935672822937 9.06976974508799 2.1088686232814724
Bi 10.450754878669121 4.407484836444394 4.175689813365839
Bi 2.7952216970643127 8.157441999529643 1.3388290417201982
Bi 5.432079902638146 2.235552667213525 8.357087888205282
Bi 6.286914766577879 7.184638594585989 3.964667652943566
Bi 3.031852844739664 7.251170264863517 4.250680185304953
Bi 3.325507406906194 14.00889281032815 7.206423509073738
Bi 4.232920692968198 3.4453653743970545 4.795492970484083
Bi 2.222799598634973 2.1962413689951226 6.802334891767486
Bi 8.368912672805111 7.777193196648252 13.990349462178305
Bi 4.671129262309329 6.254295336516578 14.535864261807909
Bi 8.697039493319005 5.009825468793301 0.5661052618071778
Bi 7.272611541977457 1.8604747684498606 5.947479704423291
Bi 1.8212454796424775 5.374945909096634 0.5305697279592531
Bi 5.782587887646577 13.833943885900263 5.401171656226819
Bi 1.6869063606653458 4.601153604851079 3.502856261502551
Bi 1.7831129372835592 0.04666864161857967 4.659759913845738
Bi 6.080778010924671 4.801317442916413 2.1303011062493833
Bi 4.379709636917846 0.7816078515036518 3.220668333909194
