40
Energy = -143.86306658 eV
Bi 1.2859674273789121 8.391635141657309 8.872217028269247
Bi 8.577451001590513 6.638345394064494 11.086774914969249
Bi 6.181371053813373 8.15128203536323 9.980574185826216
Bi 12.831169759476477 7.387761560739447 7.965862478683954
Bi 3.3812886106735234 5.661639862744654 10.328360201047113
Bi 8.002929063504439 10.3150961774245 8.726140661712455
Bi 14.20239404206163 9.650745794253636 6.476776526574961
Bi 6.190257417619533 4.619493573466149 9.880653145781716
Bi 4.087298416409712 9.162876618211246 4.578646139355313
Bi 5.937862721811995 7.984195678221198 6.798688338605592
Bi 6.872391866669007 11.659499218221102 6.236311376823739
Bi 9.720916186012364 3.4304094959691467 8.954309556613921
Bi 11.172204298921796 7.679100235797876 9.663094179941714
Bi 2.9483193283217872 6.505998873637887 7.117171165986647
Bi 3.920311767496953 2.7029507534842545 10.562630572535726
Bi 8.918115750782105 6.207527706203462 7.845707019077825
Bi 10.898812337248312 10.04786202176606 7.526494027950311
Bi 13.061502574420514 5.9067550483933635 5.241125640528614
Bi 1.2953219093001478 3.9481369143554974 7.844135541348315
Bi 5.707398243357029 3.72962213779032 6.697566422491243
Bi 11.907548875209539 5.728587168916979 7.191478684831259
Bi 12.831169759476477 8.256543545181586 5.743990179205119
Bi 9.576105743459351 11.719793223570399 4.845646902679319
Bi 9.284752390031906 8.612189460160161 5.065721471209344
Bi 7.520782429920485 1.581764210162864 7.955135087930493
Bi 1.253281699633885 7.563604564645604 4.57431057602684
Bi 3.422685928365522 1.8180887087470412 7.543367454295768
Bi 0.4271316419639819 3.432661340358358 5.091172171491779
Bi 7.057853240148144 10.057069335299266 3.58142505309668
Bi 2.9039213883012596 4.495811500392799 3.1887361388927293
Bi 5.351181196828202 6.474165000438533 3.891423371504736
Bi 8.488677773482442 4.345786441650397 4.852042192472312
Bi 9.978035103351235 2.04994294692777 6.205581827873358
Bi 11.458077849345122 7.966838364041385 3.040523801058254
Bi 11.182155576905998 4.998625670792323 3.5516318810500214
Bi 4.467689512772814 2.1818418961713646 4.335021270166344
Bi 6.984976393003711 6.510894184474185 1.1099931630042168
Bi 7.52764514153721 2.427193264555865 2.612850648205531
Bi 5.357670115149174 3.9398406179335086 1.0797908945228027
Bi 9.299201813937032 4.530607827587013 1.1304778076140696
