47
Energy = -170.43178685 eV
Bi 14.478965847717907 11.076402349665077 3.7669849876040824
Bi 0.34910560573930094 7.185867778769016 1.9803421909550412
Bi 13.043312899953342 8.431102152531192 3.9637784815905253
Bi 2.290265241095726 9.512428328662468 2.0549679727671224
Bi 0.09883969821238577 9.542902956231261 8.071437890153577
Bi 1.7305220569138229 11.137125383341086 6.086243226031569
Bi 1.4304713659359376 4.7221927760196785 3.5115247994447705
Bi 4.462500343699638 7.441314605348719 0.8392918191390019
Bi 3.5747089815244673 8.956788398717483 4.767592951001106
Bi 13.82693466861637 7.016791285241182 6.623928746469089
Bi 4.293569035226695 5.834306901152653 3.328462380844868
Bi 5.853810441225652 10.691378537548701 3.685576644252992
Bi 2.445538133320473 9.030231314544524 9.9427539457696
Bi 2.1903569181838365 2.9800065597118284 6.36977229452258
Bi 2.125326016579207 6.235276288180797 6.163484528884284
Bi 7.142797080019097 8.518277888785057 1.9711186591826846
Bi 7.0253317225778185 4.49731307804697 1.5927348499494127
Bi 4.684340269776246 7.871907039916831 8.220134323206825
Bi 7.640082925881302 6.270219874498212 4.0317512697723314
Bi 10.47505900781577 11.464465200079278 5.476625534525622
Bi 5.390561938087209 2.9774362392271274 5.287961236188343
Bi 0.9419392702091665 4.660125051069658 8.580082579839786
Bi 7.502140158877942 11.424848383717201 6.157869730194787
Bi 4.958106698328881 2.9690642575792023 8.516165506257007
Bi 3.246457787640997 6.049526137049529 10.204352997909913
Bi 8.364910604867003 8.991409428532268 7.801067671318964
Bi 6.964553468440139 1.7871128671393366 2.7706007508370716
Bi 10.76554985890609 10.844650712067324 8.46213292172007
Bi 6.503145938653365 9.314417881307813 10.210499368339496
Bi 11.683416138221036 8.651378289550443 4.990462571794478
Bi 10.195580436774586 5.442944043847639 2.5147801920445585
Bi 7.616584754902837 5.1112006077754595 8.947752801668726
Bi 9.960718530589263 2.5045203670474603 3.4859105894307545
Bi 4.7031186785696475 0.39708123868244 6.6711204342787855
Bi 8.152787928382775 7.009251100664577 11.344413080702441
Bi 8.753622323222737 2.9745312837918445 6.261808434305082
Bi 10.198506041888686 6.316213523587605 6.382359611931146
Bi 6.183437582985701 4.659540139154128 11.596531096648462
Bi 11.204628974706415 6.896532983664067 9.230365671891052
Bi 13.043312899953342 8.92907414516818 7.7390291112218135
Bi 7.8084831962608385 0.11107987253706125 6.7477811469499045
Bi 12.535465751222757 5.250880705536727 4.695600756178398
Bi 12.74012787090462 2.314928559322713 5.166444092599866
Bi 7.158567766173553 1.0197471871082486 9.545141479968756
Bi 9.03725637366549 3.216284313549965 10.8176081475403
Bi 11.248973885271722 1.913164760683134 7.798099219279147
Bi 12.020758659089157 3.957063112148413 9.852149360389316
