47
Energy = -171.70834441 eV
Bi 5.367049397376925 0.6102108295384273 7.987992843048699
Bi 6.786028493630678 2.9468515579546564 3.778814612521908
Bi 9.457274017968716 1.8901098349816425 7.409444984693612
Bi 7.136824425893661 0.5324942052963786 10.526389758651087
Bi 5.537296081812379 2.464072758904508 12.318797718481413
Bi 9.353173965520917 4.427443334025283 3.3042266405125953
Bi 11.007354989081444 2.449022533495886 4.8341671793962
Bi 5.384647396999163 5.373018943752968 2.5130218458079523
Bi 3.2859395098728963 2.848806628484395 5.458901780123017
Bi 3.0104062431158325 1.6172575027348641 9.6088893680517
Bi 6.691609479398661 3.214393427753527 6.852174952899476
Bi 10.875105451706823 8.185783713633544 2.09021229988081
Bi 7.891041883048475 8.272102297339643 1.3323868297798476
Bi 12.306074313678526 5.191929550218517 5.773567516688234
Bi 13.121373339806546 6.734563560152314 8.420289148283558
Bi 6.528031678057789 7.8120093890803055 4.039921722622577
Bi 9.702020592597021 4.958421630637057 7.520551638599999
Bi 7.6751244368517995 3.521558130737807 10.355395039651134
Bi 1.183203539253546 2.84606038217006 7.600505342141111
Bi 2.57298345242176 5.327871445054968 3.7670726914316135
Bi 3.9914381680693642 6.089812858726214 12.606225142805464
Bi 8.131978004152595 3.7148141489592232 13.325452118833967
Bi 10.164039296327145 7.268524951841418 4.915159799537369
Bi 1.6879846045233176 6.031597268530893 8.424965592514042
Bi 4.124352032340736 9.053705738090766 2.6212594641602593
Bi 12.706968289133533 8.819676827833325 6.336672539875814
Bi 4.001976281823453 5.731047715673254 6.44979058413752
Bi 8.373458041493654 10.774216039012368 5.186936057018195
Bi 8.849434382134957 8.693453666311367 8.232766142342541
Bi 11.330148130464567 10.547501519550668 8.39937822682101
Bi 2.5817197171693134 8.960083152827549 9.153634045715359
Bi 6.989484588293392 6.561688188511143 13.039022219102602
Bi 4.725531059523115 9.218987940147935 7.034323430574489
Bi 6.551462371754752 6.943897073999218 9.99126682015844
Bi 10.46186617281696 6.700272214834041 9.962029717981988
Bi 8.346699153822176 11.333723599568616 1.085772002399657
Bi 2.3655695979635087 8.760787152467172 5.1281802810746875
Bi 4.151103562087185 4.615299389129267 9.838861571076544
Bi 10.722338708156995 11.088566421747007 2.9776634876840204
Bi 8.775889151782106 13.652988576026221 8.933710332348328
Bi 6.477807862310045 12.360809830724904 7.432225504639516
Bi 4.636912768674875 8.87062261605744 11.418818220952419
Bi 10.401280970774005 12.69091883198667 6.515691339887374
Bi 7.493973958169835 11.011811260556074 9.892629654459666
Bi 4.158246847410583 12.023248712207929 3.303434217057206
Bi 3.108874829951838 11.64854294205681 6.14895352680252
Bi 7.078371367547179 12.870892313440986 3.4139266535365587
