40
Energy = -146.53228358 eV
Bi 11.473551903040454 2.1352870105503543 8.956086759202474
Bi 7.824399721284782 13.097833632612488 6.713706888750507
Bi 6.821421395589711 3.9685890433417357 11.623970629754316
Bi 10.609968960727988 3.0610437000446695 6.200141504447644
Bi 9.702789668150189 0.5697079314166126 4.544197472332787
Bi 10.835538777836167 5.069774861469351 9.706505579940814
Bi 8.739124750079997 3.6649881518678513 1.168303734624692
Bi 5.025380274334946 2.119032571295752 9.966688829754997
Bi 8.517653165420052 2.129009582583107 8.269587496121268
Bi 10.367929475187564 5.566586857926449 2.920140738645231
Bi 4.978440277299726 0.4310960877101938 5.8942087807515735
Bi 10.867730201070032 6.924225018877188 7.228126052327583
Bi 7.819441754495498 5.34299247284236 9.079791353750336
Bi 3.849588749487716 4.542900056649857 11.405468590781114
Bi 5.631505260806092 0.6023474211749125 2.8611110717798764
Bi 8.570461418720164 5.980759608201631 5.391443387956816
Bi 8.706278756815468 8.316318842120639 8.921190591606358
Bi 7.629233056112155 2.6458962055820554 3.7884729924739386
Bi 5.832892425043802 6.535465361731165 3.2595069767765037
Bi 5.286317391216565 3.289935446013779 7.050991349639772
Bi 6.030580759063209 4.957305115051914 0.642439643373888
Bi 3.95825897301489 4.220404120819579 4.049161849566574
Bi 6.3693126097374115 8.567701912607543 6.880124209838053
Bi 9.474871164478678 8.409702384341184 3.7095690270900388
Bi 3.9926313819639487 2.7417522964847656 1.376342307739986
Bi 4.133051237533776 6.302140964361622 8.936375689163855
Bi 2.3410611956916063 4.1524885645244805 7.708879193691228
Bi 7.4356721843777835 11.06863413653287 5.495170512281601
Bi 1.3702160707770796 5.457701320562198 5.091117669639041
Bi 2.5483897187479316 8.763766428376105 9.868889910203142
Bi 5.186212978082689 10.162573285339729 9.262367400743983
Bi 4.778982531080813 8.837382256445968 1.5827977144959864
Bi 3.0874451414394004 7.891429903808789 5.668980685532748
Bi 2.273182911580719 9.425124705371775 3.2003993487160307
Bi 7.323230016084266 10.26377091733045 2.557132143763106
Bi 0.8872588579682684 9.11487322921632 7.3466336400338355
Bi 3.9936300047446625 12.742372639228462 8.24519655322865
Bi 5.200191302668004 13.097833632612488 5.462730095089656
Bi 2.5752905631831235 12.28586018327594 4.0983958234522575
Bi 1.3108962651747886 12.078071575926437 6.89163995203838
