47
Energy = -170.51354115 eV
Bi 9.166282505702865 8.103422293667265 0.9877344595777239
Bi 6.40448466812768 11.739807743810987 2.491098570937767
Bi 6.484435921009984 9.526249514471635 0.3889609845217759
Bi 11.829120835048505 6.105325234747172 3.560337365903713
Bi 5.3942792452469455 6.68491097878187 1.0858007601232753
Bi 9.485422614234428 4.436001570573053 2.387938640384206
Bi 3.8739057182739294 10.708256719907443 3.8540697491967193
Bi 3.792572715587072 12.693374874690825 6.219174231451695
Bi 7.626924060063614 6.702915022887856 3.1644514737763987
Bi 10.01227785511357 9.651460155325912 5.933795806291984
Bi 6.8238875553720195 12.573757477591549 6.367314559729838
Bi 2.3006401913428904 8.47913192964785 6.39810388387876
Bi 3.2128882546358337 7.245871677756271 3.1973876054480748
Bi 6.993786990866895 0.7975350200864355 2.76191780692759
Bi 1.4195491021837332 4.824331132845527 3.989638081829253
Bi 6.778477173070656 12.033775901978297 9.441825610809707
Bi 6.697234951583787 9.899843626766089 4.854084463429763
Bi 5.937753780063991 9.057546694764396 8.41928934516334
Bi 9.844815157102886 12.476849360037 9.232323143465136
Bi 10.466784411048778 12.729200258299931 6.261572000217489
Bi 5.307668398388998 3.3359726526248012 2.2814659298705546
Bi 2.265981938926769 5.393256490021875 6.951727514008735
Bi 2.7148626638184314 2.187301092667553 3.2580541050663108
Bi 11.189644436185326 9.076565527700861 3.0447832446890426
Bi 6.415928037081766 3.3495501951073585 5.246338017623517
Bi 3.283805643764445 10.555683922075938 8.494205895129907
Bi 4.756403353503252 6.768985078936271 5.813537605279709
Bi 7.537992564199872 9.438309629284616 11.089997774730321
Bi 8.368342516430966 6.239333317014592 6.830614879894439
Bi 12.684718057368695 10.696009574663876 6.916676265253783
Bi 2.5515485625161105 1.8855872661193702 11.226839904921576
Bi 4.465221928591232 5.864229831640738 10.467798105561373
Bi 3.097062117191548 4.412297505389088 12.79063861687963
Bi 3.3272595237652456 2.230381940012433 8.266420762655228
Bi 10.90303349228532 9.628499930041036 9.18041550507274
Bi 4.5773747749209655 8.872792258885713 11.275087299613592
Bi 9.376906547880276 6.3081974878011176 9.705287750100815
Bi 11.435576732594297 6.4413097758206534 6.58889705215604
Bi 4.934771624039564 0.6930794248612817 5.162752177029061
Bi 9.162741283634665 2.2342627367438848 4.476974002239922
Bi 5.84842961792727 3.971541378947477 8.285183561193797
Bi 7.220822880324583 5.5682914676688675 11.775831017308194
Bi 4.877020197482212 1.9922908220609832 13.173030843362822
Bi 5.3148242621874155 12.729200258299931 8.192823831488893
Bi 10.109625341517022 3.911841403302451 7.741964242421353
Bi 7.678586899695839 1.65073966552295 8.984228916863042
Bi 7.584946906007556 2.539053604009757 11.928860678710654
