46
Energy = -168.00933695 eV
Bi 9.475515522338332 11.37177382806727 1.4871974726865758
Bi 11.604499201064252 6.075324482020799 3.6448373283634394
Bi 8.8963722780785 8.394507933327326 1.2379781590851662
Bi 11.65795643928912 8.951568132161626 4.663259891692262
Bi 7.992539524651546 11.967679231861188 4.157755383552396
Bi 7.578227036980648 10.35212515683821 12.220031748559292
Bi 11.656216204177118 6.605750816722174 6.651155113678116
Bi 8.67129797836304 5.253645586470111 3.912730575557869
Bi 7.646025217320306 1.8878572569360472 1.2642214737483113
Bi 10.056462115406394 2.65844068402497 2.989741619412448
Bi 8.619939557599217 9.140901709409365 5.021544188549189
Bi 7.092187795057471 4.921646021655908 1.2712947387760405
Bi 8.657444273255974 6.593393962646936 7.642903604046412
Bi 5.315990253477466 11.370539787186843 2.8498421890000794
Bi 7.927453152879127 11.630800874730276 9.324452749280383
Bi 4.823983978007228 1.5474279083008375 2.4814418482128984
Bi 5.829687687162049 8.795502608465762 1.3424177069028305
Bi 9.77250526767673 9.624912926328902 7.872485476996054
Bi 9.806004172304009 0.8192844381242715 5.426159171457914
Bi 4.641309451119992 7.543407806084109 5.381458480721494
Bi 10.014644211032069 5.578998119015661 10.251380534903008
Bi 7.251773806824095 2.3787880250552496 5.766346349749764
Bi 6.160728812306881 10.956308590152291 6.9621000375058255
Bi 9.792872237896932 3.2676748380226526 7.283112833608855
Bi 3.137819205107811 10.095439231459872 4.670107853267582
Bi 5.100910052214354 4.400293960595461 3.5468757202607795
Bi 3.1393563219444323 6.654117768090248 2.8182578260062217
Bi 7.121517541176196 8.771001330875693 9.814457460599069
Bi 4.007831297493274 0.37793694114751497 5.232095213742842
Bi 3.5363292914890225 8.638844767276643 8.473562639323713
Bi 5.232662734398748 5.408503853692346 9.219981069290224
Bi 9.0617288618523 2.6640508538800147 10.190229188345684
Bi 3.9285618075704494 2.9926035770285697 6.851152754793739
Bi 4.100225774118905 9.159977800153936 11.506951910653642
Bi 8.506116012230972 7.315379386386372 12.220031748559292
Bi 3.2163046304661855 11.482840026106404 7.446953899830054
Bi 1.6527924878170475 6.682832044442851 5.5167272317404485
Bi 6.2869530296327385 12.749857618112973 7.225148322737415
Bi 1.0776682036257517 3.778469570741286 6.180993780476721
Bi 0.5273603078005743 7.876959597152791 8.79539131159487
Bi 5.567914069787099 6.459858381810377 12.086205373308102
Bi 6.081734231430034 2.9701173457478776 10.848106399573824
Bi 4.313338786278414 1.0486026924087415 9.209577062124863
Bi 1.6204414163638616 7.330421473903362 11.64529435202455
Bi 0.23383705797025997 4.827619133732107 8.9293448261963
Bi 2.6886466356239893 4.569017380779574 10.742783484987946
