49
Energy = -177.28404603 eV
Bi 13.381640063090487 7.551420247878274 8.761170774028027
Bi 11.96842445216928 7.217753120229013 4.379299233484169
Bi 12.39068307006315 10.035305201070173 7.346892280682514
Bi 11.828998933815194 4.991969224062152 7.989735505620217
Bi 11.014340860697613 8.55583260559465 1.7868579679356853
Bi 11.551348683567657 3.1343281415984534 5.473888473729669
Bi 10.695858746957756 11.080119451344126 3.506548012017384
Bi 11.204760847653672 10.599077821715316 10.10545448891342
Bi 10.93086541693813 7.080522754930961 10.677420228001466
Bi 9.574721954910911 1.8144485461331405 7.20982549693268
Bi 9.182246742339382 6.542568272212247 8.213341004355069
Bi 10.178766642556003 4.9481810354341045 3.4439975727155843
Bi 9.901986807117956 13.440511780696443 9.929720045417408
Bi 9.066140946876802 3.9650409453636932 9.817401920889692
Bi 9.967034005720311 9.086598849905052 5.757285029197086
Bi 7.633359451784578 1.9084668889550995 2.2785794100180903
Bi 7.92612876355148 11.194405333416372 2.228667881161016
Bi 7.167180681629665 0.5900836085841717 4.949361853540695
Bi 7.673648216791601 12.331106700999214 11.676022032036485
Bi 8.4554641011979 7.85945173054414 12.832875372363036
Bi 8.693037605728147 4.923901331730402 12.861480322234563
Bi 8.243749641257974 9.80803362179234 10.024376054804359
Bi 5.601818507171837 6.624509814743622 9.53099540282965
Bi 7.5517786100362425 12.44068727346782 5.071865944824487
Bi 5.969867639839354 4.123342790836529 11.222537770605124
Bi 6.062015845945772 10.03040432498802 6.1947061095900295
Bi 7.690585179236154 6.28037388168075 4.623793168147958
Bi 6.749933472086997 3.202218470674817 6.484898273081721
Bi 6.322436030108441 1.7378892452725752 9.161656544178918
Bi 4.651357811186224 10.641631429873023 3.530550813265448
Bi 6.268583301436719 4.688185911753002 2.366807261046003
Bi 5.419964497407224 7.5351531315850995 12.38180791978803
Bi 7.959170172546626 8.088199067770507 2.0810133985212613
Bi 4.974219624593998 0.5066496636147927 2.679193547761165
Bi 7.274640569160167 12.55275360014003 8.692610904846653
Bi 1.706849168334753 9.230822238399712 10.902160114988153
Bi 3.8232837477720087 6.120094402261849 6.291436014833362
Bi 3.8445668005339595 2.04122445275187 6.0030339051865464
Bi 4.4153758379580355 10.320776586853505 11.616354817709956
Bi 4.456772603066897 7.42242040564872 3.4431688316242575
Bi 2.6112228433500273 6.247025694012026 10.035891182482237
Bi 4.581338344161239 12.669391609678573 5.851742293504639
Bi 3.4417966208074033 2.3294590136166637 10.015593979119611
Bi 2.032463472316629 8.33219416543449 7.360307827592686
Bi 1.8458138480932433 9.222276921656633 4.257619464591403
Bi 3.47547269821004 10.676711255287506 8.7281817004684
Bi 3.6543808157755757 3.2411034043408833 3.2053485414607925
Bi 2.0240223126092465 3.747443926825484 7.8435352177351705
Bi 1.7815389415234077 6.109586054326785 3.9946440418217253
