44
Energy = -159.56239619 eV
Bi 10.177848149707575 2.36420614775506 6.12651576145796
Bi 8.504392813227621 0.8846636769974803 4.01962904474357
Bi 6.229963567511576 2.0506860646372806 5.670207217357675
Bi 3.5078833475623687 2.0644410500339356 4.248140826762433
Bi 11.887853358326032 6.985570451551748 2.706446263107928
Bi 12.295110665080115 4.938312456244397 4.899870048537429
Bi 3.5463702173232328 1.054797113014515 8.309966002320293
Bi 8.709199704957298 6.73330781267829 0.15506500372861273
Bi 8.296365312015311 3.948787265647717 7.992151197160661
Bi 6.799590848939303 4.558150437562022 1.1979993320925477
Bi 10.360614400231816 4.157399044790135 10.252754668756669
Bi 8.19461640975032 3.8722050983709604 4.170635484630444
Bi 2.719950157177902 4.371987263610696 2.395698459118343
Bi 0.3822993289568339 3.614177206385904 7.552467340861466
Bi 13.133763259838366 7.937553193722259 5.320583280217767
Bi 4.119414776913655 4.773478869514645 13.44699384287846
Bi 11.872793519163315 6.637921223174518 9.227416847541072
Bi 9.280003015905404 10.493946828084363 1.6881363658963657
Bi 3.3635057105696964 3.7740473302209256 6.813446534675774
Bi 4.171714695194743 2.3471504575135027 10.971922994312184
Bi 7.15001627135705 9.35107484692033 13.503031458460155
Bi 8.94118276423982 7.779837414731912 3.0523478740842043
Bi 7.918240161555732 4.850839893413197 11.959274429344797
Bi 10.203803627475065 6.225019497673053 6.749524732106826
Bi 4.773393498457482 6.688436409690107 2.0290801217602548
Bi 7.675191644650906 7.880632180691977 11.922231371517741
Bi 5.380847451033576 5.0119480012374655 10.096001491657661
Bi 6.817174893066314 9.660368638076152 5.520513375392969
Bi 10.427405424202217 9.224366433297872 5.989432542746166
Bi 1.2581644910539813 2.1060364912738883 10.077757116486168
Bi 5.0562255252633 10.202135890488533 1.9615171143965182
Bi 10.188702949046727 9.210525806749981 9.108922631342281
Bi 3.5593611071851265 7.4086064203831326 7.879220123285183
Bi 1.9195576566408035 6.174328995047288 10.331266109983275
Bi 7.111516537880278 11.875917783282253 3.4319997347724414
Bi 2.5862587607144967 6.996537649733015 4.870720636555904
Bi 7.396804257470774 7.990072397536927 8.875863381549244
Bi 4.8128402341204914 6.945081937130065 12.469854137666877
Bi 6.685471223229677 10.88853764181677 8.37596428771927
Bi 13.133763259838366 6.335953313840338 8.595951981456064
Bi 3.8076921565726773 9.813854952014928 4.9585399554291545
Bi 2.8835196352843107 8.936092403341865 11.192024824786566
Bi 3.659400407019901 10.468220818819894 8.429327786447482
Bi 0.8853372156647737 8.501395294694088 6.9352249842562
