44
Energy = -160.73278947 eV
Bi 6.169651149175701 9.472828652607767 1.9077396481326612
Bi 7.855912194535084 4.951158095772667 2.164926282325129
Bi 10.040392056351523 8.263581896010235 2.9827495037735736
Bi 8.57788340950018 13.165517715002895 7.38424615576193
Bi 4.886677470701772 7.821037008013997 13.498586600453802
Bi 3.1778690272808143 8.786867241038072 2.0288117067279137
Bi 9.210180073206958 5.228303496249689 6.21035604563883
Bi 10.882877653343114 9.873947884726801 5.4463867347795345
Bi 8.239209833200901 11.435395975672924 4.91292019007676
Bi 11.519125877175286 6.515065821451207 4.945396349395999
Bi 5.644419148309346 4.917430607689341 0.06453332976981485
Bi 7.2695661232397395 7.401856245333965 3.902561558795108
Bi 3.5734063752505745 9.67348060856976 5.507025186074716
Bi 9.422828163799341 11.014642191049665 9.46412219270808
Bi 6.42878789881121 3.398015741235049 4.417284727644128
Bi 9.345102265996237 8.459104518046429 7.727799195693072
Bi 0.7719578860702753 4.940256241324094 2.109048403297886
Bi 3.7628339380739524 6.836598806675552 4.327067791953339
Bi 6.324061204687998 9.819415916296474 6.7727283794514195
Bi 1.9803853267002247 1.393324901487415 0.5501613344920886
Bi 5.721245627611201 0.8672676560316993 2.8608172015573166
Bi 11.011025411025932 7.176509160656112 9.937755825255023
Bi 5.640233921020847 12.509822761417258 8.033531193636852
Bi 2.7438785883548946 0.25912854557651027 3.269740940891623
Bi 6.596031532418075 11.314342415206534 10.643458735355603
Bi 7.082549953223693 2.8836186976289535 8.209374813801887
Bi 6.574218509137781 13.165517715002899 5.370884466596707
Bi 11.259846653288761 4.539621251585156 8.346328656114675
Bi 0.7683503399138065 6.452207271339123 4.770995566132302
Bi 2.626189461885423 9.168272987750077 8.40871091690385
Bi 6.49526518241957 6.352570497790467 8.826369214655246
Bi 3.549713387412342 3.6683677338475094 1.938279397982196
Bi 8.595893513884036 1.7380997743804187 5.799943462964124
Bi 8.427161425410791 6.06907666569028 11.191856385846632
Bi 3.576929524692294 2.9537464381213616 6.484536613323849
Bi 0.25808664861401115 2.081416041269763 2.9514268971745223
Bi 5.021917803686963 8.668445324880949 10.311472236629918
Bi 9.303153169974776 3.2405907562097127 10.310146443942921
Bi 5.5535368102741085 0.5925196486281528 9.509390114900807
Bi 0.8005483532380256 4.315531199375029 6.950761075957738
Bi 3.1131094261453063 6.175426804595091 7.869601610742852
Bi 4.028816622365711 13.662440467130569 6.94971308499146
Bi 4.22719444410413 5.257950962880873 10.60579620399177
Bi 3.2261816749209946 2.5746446355421533 9.52667588480417
