44
Energy = -160.50947142 eV
Bi 13.503428825113826 4.319257085328064 5.867694557422213
Bi 12.222407850193557 2.9189057219070658 3.510083193141466
Bi 11.757682188585326 7.123482223797195 3.960514543916765
Bi 12.810228948393831 1.3557931420230354 6.054558137102377
Bi 10.17946580804527 9.377494543001431 7.008943990435915
Bi 11.27776345623228 4.838656342778195 7.8900280448677576
Bi 10.576912370774437 9.987255784496423 4.020070512145357
Bi 9.798623773240672 6.2938116374738655 1.7321138197405277
Bi 9.589584748244501 6.561769554316597 6.033328322214992
Bi 8.286645781254464 8.94576527802513 2.2550583913669024
Bi 9.3061938852814 2.291876497318765 4.166933801700787
Bi 8.927220513802816 7.028105477005229 9.809212600689008
Bi 9.982345639792895 2.173600671187262 7.153027286958897
Bi 6.155625890691305 8.079164460680557 4.28929940707977
Bi 4.856917587218365 10.504138674719863 2.9421958518057583
Bi 8.152651185834447 4.47123993071152 11.304707290519067
Bi 7.2158056501602 10.054696654695393 7.163391303345636
Bi 7.011552599105836 3.1464750644763244 0.9928956614909479
Bi 7.732283299431389 4.823629508978551 3.400971600299569
Bi 4.7933800701152585 4.971035144515159 13.162357295368418
Bi 6.644179070674287 4.0433886172229725 6.855447917513516
Bi 6.04754758436822 1.3222707254897594 5.482345061804666
Bi 4.0619026861162695 6.8860782637434514 2.2564750824944357
Bi 7.192279586705832 2.3525789459749133 9.340356198096083
Bi 6.870600592011521 10.995603089115631 10.088452654522317
Bi 6.424279385866165 8.183814164969062 11.164856838454375
Bi 3.6144123670840633 9.692988909651435 7.126178242493056
Bi 3.2076133574908914 11.898323676563203 5.082692261021802
Bi 2.9240831452929816 4.074229377621368 2.465726226192805
Bi 4.886825945981109 1.7649794905757983 2.703765093587785
Bi 3.3789949216205044 6.126206895708152 6.064668636234041
Bi 3.153742650733617 1.1787340126690087 6.456682433383249
Bi 1.8282762712374407 9.958622190018907 3.1770006254021346
Bi 6.320130314169219 7.274349911471072 8.237317867453974
Bi 3.888625336500347 11.47620923416978 9.571155119292472
Bi 5.18086503478107 4.038204903017176 11.445957983182835
Bi 4.073476514497521 3.4057103887953857 8.493768384691196
Bi 0.9041234569076196 7.66757744240642 5.021257049364949
Bi 2.705555198991763 9.473530055667212 11.534277059801246
Bi 0.6180299404532271 9.725317299335707 7.2988006607193965
Bi 1.6849483231114781 3.619170335528829 5.548013976928835
Bi 1.670561583264328 5.657891878223053 8.583597356890012
Bi 2.9759284032243736 6.4318051272592145 11.226307555664723
Bi 0.3295574649086204 8.295601058352156 10.016757051001235
