41
Energy = -149.22872323 eV
Bi 11.622900274589929 7.132097060415788 12.31040828319349
Bi 11.566364711592781 7.041336507909197 9.244225118545478
Bi 11.488861894399262 3.7319457508622804 3.516939958910225
Bi 10.8792810430827 5.15890929238099 6.096537060016604
Bi 9.566480694447057 9.406582761001276 12.160581406441816
Bi 9.329557231801067 5.24769533358699 13.09605391503326
Bi 9.434570671343389 3.434115091364337 10.659010320799673
Bi 11.386703860881493 8.956697850448615 5.119452687723241
Bi 9.555835624063066 2.4528744845414594 5.498808126173323
Bi 8.761653653816182 5.910202067450779 8.974959593075607
Bi 11.925501891792129 10.72510806914171 7.547018258874223
Bi 8.960133991420367 5.560774071242683 2.838295543480182
Bi 9.596248498019657 9.39961435859295 9.064810720542285
Bi 7.818183379628635 10.952411139340475 6.313704596778527
Bi 7.695392601849116 2.841578504823888 3.1029655207138442
Bi 5.3365072817172265 1.1038278529124679 6.17859694373209
Bi 8.655594868545382 7.470681564682417 5.448082307406901
Bi 7.50233900746936 7.193738171617631 11.568254394148315
Bi 6.418152327514691 3.5648243254036145 7.604279808721335
Bi 6.526276675700533 2.4571029766494643 10.442953815395652
Bi 4.792536143083819 4.477613838298476 11.867098267533864
Bi 7.57236520657056 12.624125345648865 8.867421444372404
Bi 5.56851770598429 8.15447448347419 8.20622768509863
Bi 3.400554943923812 3.206382850128766 7.433266644043321
Bi 8.267564128941109 9.155060968682266 2.582421364525444
Bi 5.667496992312667 10.563289624020994 10.119558546071147
Bi 2.4225177096833956 3.2166303442017123 10.34464320369642
Bi 5.235969867047626 5.845514262236615 5.018602977786771
Bi 2.317331144576075 6.305635964435051 6.087562673014973
Bi 4.738534101667605 3.0066206133888627 3.8590442038870054
Bi 10.461224481699348 11.8835254455361 5.135294144448334
Bi 7.1192505175290375 7.018825511551134 0.7959320672078403
Bi 3.9772019509523986 7.179232253850592 10.630668529064469
Bi 5.472204507501335 12.34924945826405 4.968094651267432
Bi 2.775757840681518 9.087049399890176 7.369696311629643
Bi 4.6315775032650786 12.649315314064596 8.175666050503425
Bi 1.6221041910599374 5.919709650636882 9.128223924089799
Bi 5.988388013063728 11.034951281128693 2.0472987676021073
Bi 4.61711830738423 9.408079535913435 4.942977691893894
Bi 4.403654876004526 6.409967618226426 2.051948548230864
Bi 3.47077967049282 9.311818989152037 2.131603911424447
