41
Energy = -149.00328561 eV
Bi 8.179697322248092 4.084290785627822 11.896931641346645
Bi 5.832723462242421 10.454377328675216 10.274441316190625
Bi 9.843077445784928 13.41728605427991 10.192761666311299
Bi 8.409360717048566 9.257080527212219 11.303576146886892
Bi 5.44477475820583 5.704367235993181 11.998862606316386
Bi 10.794968505424782 10.486016502114907 9.91137344880142
Bi 11.849437774864164 6.402135861673885 9.643171855344377
Bi 8.817494787911448 6.418348385938559 9.97165704734475
Bi 11.20406154187013 4.397093947208562 7.421034122912455
Bi 6.7002238878311635 3.1979142707381825 9.437185383880196
Bi 6.858690249348943 13.293930448497717 9.912382302075686
Bi 5.073539112266282 5.973474022371566 8.922583415253449
Bi 4.11732813466495 8.388911474338292 12.933614365253606
Bi 2.5225934133700667 5.8183241160567905 13.038413082255671
Bi 10.295677409368386 10.93628727278349 6.9564138588795315
Bi 5.725812999046209 10.217724167843398 7.214257897057839
Bi 8.54381893618018 13.423295959236597 7.405304129206891
Bi 11.584695133158876 7.349722320423334 6.761060296086071
Bi 8.673358104439682 8.346049724403818 6.969039357403922
Bi 8.155874812377066 4.68667209765826 7.172895390011973
Bi 11.481280165048608 3.089284231702471 3.858575168194939
Bi 4.696416580468757 5.701460823762576 4.847093816983967
Bi 9.49928507865334 7.510078426998552 1.915718528314767
Bi 4.144335381133467 1.71718283542474 7.129862497845977
Bi 8.717363313923393 2.2020522610669686 4.921893308253506
Bi 10.412697548766271 4.617167667447948 1.4296321187385013
Bi 2.7010494779660768 4.123946964500489 8.315661517276682
Bi 6.361142843810456 9.87927812302218 3.4745221650399047
Bi 7.653628521929594 7.242121198524446 4.290899702451047
Bi 2.1244700985721936 2.1882817350813575 4.848310827828725
Bi 2.575543527801475 7.495300422489804 10.54646994625448
Bi 10.033684314490793 0.7656516140627821 2.5096384355509875
Bi 7.1251565686908815 6.572366984718073 0.2639652112513602
Bi 5.109838061935716 2.6822227986825093 4.403988502023398
Bi 2.995628708015587 11.426787769976524 6.541407038819086
Bi 7.925192018823967 2.971156876533818 2.0579634268722122
Bi 1.7365377871239236 5.1641786055507435 5.60217420965505
Bi 5.072250031481387 8.719159061914016 0.9302360987364519
Bi 4.538019031857709 5.8409950846754475 1.759359534232329
Bi 3.2319729720050843 8.44491485800721 7.009441012326554
Bi 3.3865729116901373 9.542382604622643 4.155501056371537
