42
Energy = -152.83128965 eV
Bi 7.753318880330052 11.113803666485984 5.901276789159292
Bi 10.406078840631936 7.586966003411075 4.5626954097074615
Bi 10.40005974925136 9.724541051588785 6.768027449118857
Bi 4.079178317088027 10.277013436049629 4.196484759141583
Bi 6.812170429826571 11.81401482769889 10.456561891081883
Bi 6.905631020396291 9.677920076816186 3.2077604222214555
Bi 5.381008737937354 10.667131745685904 7.877458701723384
Bi 4.790621791964022 10.736270007982478 12.377500099182438
Bi 12.646766953318407 6.370897869571371 6.273445118776656
Bi 7.4894335928019915 7.894828730412218 5.611319421508615
Bi 9.872470846432197 3.9156134259038833 4.058917497074145
Bi 4.770496441157896 6.882091628432125 0.9659267913153273
Bi 3.82617851562397 7.739462126486363 5.883006877475261
Bi 7.185099898784005 9.073915015946294 11.660269705406762
Bi 1.7571611107174931 9.092988070938429 7.551677617461472
Bi 8.856456196658414 7.101793827546203 1.3096589263605019
Bi 3.163049089851928 8.851696979154422 10.364001060570361
Bi 9.68891178008412 8.141370370913435 9.31722875371609
Bi 5.734551813742551 7.899878285848326 9.076355520808765
Bi 2.5449295462559234 8.414659543327446 2.3200198385515476
Bi 6.504139526507482 5.7020088993794875 3.1716833800034587
Bi 7.636650109920819 5.542872491336606 12.377500099182438
Bi 9.846739416472964 4.260167683542417 0.6148961693305552
Bi 1.703467453910257 5.902173618325012 4.05183280196539
Bi 8.633056194319176 5.484647725828178 8.010153220383078
Bi 7.5534782467824355 4.072327399439987 10.517321765946368
Bi 2.9289922992415467 6.21117272000843 11.890311361004807
Bi 12.759002909638893 3.5767485541066435 4.996338758668014
Bi 2.656457832678502 4.65378661284594 1.395962065548525
Bi 0.4147653517549009 5.185636751217278 10.513857620335363
Bi 4.181287117888156 4.6145582830675425 7.598944639962792
Bi 9.187114726431021 0.9700393377472851 4.572073395398643
Bi 13.230030964926227 6.754021860287607 7.983025735891531
Bi 6.95325901466211 3.433165182782754 1.1067042085300987
Bi 11.494819336084865 5.705360037116333 9.006886180517279
Bi 7.001592796578374 2.699569532932131 5.9100935009128515
Bi 7.265066228841648 1.5726931060597054 8.745488825422774
Bi 3.899854034306343 3.7822013356959667 4.009761629090043
Bi 10.536316870004034 2.555208840229176 6.805530697440826
Bi 4.479268011586746 3.972895171860692 10.524289399224756
Bi 1.191712007138153 4.04943715048435 7.7675412418483
Bi 4.518029345170658 1.571558381634944 7.3288840007283325
