42
Energy = -153.30548879 eV
Bi 10.835593771738477 8.343418975922907 2.176417799809171
Bi 10.83500958663263 8.964041376199003 5.202315751395273
Bi 7.9118623107260975 8.94345151629891 2.98656781356103
Bi 5.780882111058232 7.468902428749583 1.4021034189187895
Bi 8.522238493800918 4.984847533392056 3.6193046825848962
Bi 13.026068774743038 6.9326118777092685 5.118623130991688
Bi 6.704640097268534 10.827800806500637 6.000284250539464
Bi 11.444215085539602 5.432294246158291 2.9451025751202247
Bi 3.9431794431294453 9.407623776394345 2.9006210477491825
Bi 4.664213892831438 8.563203438153801 5.744524404323807
Bi 4.43806530799041 12.751237099801333 6.7584516387150035
Bi 2.4652844461232446 10.349992250349677 6.891582507919459
Bi 8.221942756178853 7.323474198177854 5.5873395881513
Bi 13.203916478698405 9.418937579902996 8.294541844827165
Bi 4.553431413512215 4.979813690291273 2.6812045192296337
Bi 10.576097044482779 11.044874679177042 8.152880581350425
Bi 2.2387902483281534 6.946069606258731 2.2678093867584805
Bi 12.926603679766298 6.295271942716772 8.133465467770673
Bi 0.06169686538576518 7.133026362735581 4.360406881666161
Bi 10.465856773909335 2.297475003799459 7.319855733391013
Bi 8.641982436339891 2.232770554993904 4.90134757588473
Bi 2.524942090356518 3.7961860579693365 7.001756824307415
Bi 8.97519255428376 8.68631931003364 9.261074170854995
Bi 13.203916478698405 4.793757826745323 6.185243534461227
Bi 6.206406573657412 11.512129690663158 8.956315291336182
Bi 12.991717156581227 9.777240724100555 11.353021063614184
Bi 4.987114863549443 5.12509280484038 5.716255844879381
Bi 5.825426795581318 2.1935793437184676 6.082107670094625
Bi 3.642712082833635 10.058228017685886 9.697997901352618
Bi 6.615340067215459 6.088043652109184 8.891296024707358
Bi 8.56315658594572 1.7374220428662464 9.626837894886243
Bi 10.775761309676117 11.859238289033144 11.138869530167383
Bi 11.13107470418755 7.406316039313444 11.0676376187985
Bi 10.046773144869354 5.199087611606806 8.117178051523304
Bi 8.142077569948057 10.321054401937575 11.708857936176354
Bi 0.16157481935029844 7.665324852637739 7.3538125988648515
Bi 8.975386626971265 7.800892380037642 13.215794007703913
Bi 1.7978800112984061 5.81083625561765 9.17634887217384
Bi 4.202395841877051 7.139363621663036 10.480452702788655
Bi 5.884462083119691 3.0397569337927313 8.9913453853042
Bi 10.08890661905156 4.07576111238606 10.956944746755825
Bi 7.491986257389428 5.490375745076232 11.793247386110707
