41
Energy = -148.63069351 eV
Bi 5.107059428796299 0.8937678796101706 10.47419248016422
Bi 9.236295959180593 3.346074547853791 11.093436981162666
Bi 4.618266978578333 3.600222242932246 11.818220359262597
Bi 7.248037149476622 1.2917721952353243 8.039388857655583
Bi 7.064222811005685 7.274356668717409 12.33246019752277
Bi 2.1118600467719335 3.9737082343046723 10.131784761206994
Bi 2.610460125863503 1.2602404101907205 8.766025545116197
Bi 6.709990512907364 4.091755800850155 9.581250248007267
Bi 9.004915469558384 6.261204193366503 10.172933682357634
Bi 7.147259557089322 10.246267370727892 11.629942628590921
Bi 10.106624067461562 2.690160596279832 8.209138700252002
Bi 4.286454776613946 7.327692435604477 10.961686718161051
Bi 5.112154946124529 7.343995228227993 8.055678590495463
Bi 9.790668529354866 9.855288990657447 10.141040904458482
Bi 5.965065489100797 2.1067304924021752 5.4219438675144564
Bi 3.758876808070033 3.788279930985925 7.510661969098964
Bi 8.813545162385363 2.678871494672223 4.568395586678432
Bi 8.531800157574358 8.524141690727518 7.708927057156588
Bi 2.1224244501543876 8.241998032729851 8.195006260668167
Bi 11.574268750134085 5.9627724409156695 5.499651336427637
Bi 11.595690218476241 8.107945985259205 7.6449739801170065
Bi 8.832003283785822 4.976143283490816 6.5828192586091046
Bi 1.977446699424502 4.2847502762822005 5.110991332716686
Bi 4.929489514434011 10.04878087732863 9.519369213568954
Bi 5.5571125514222475 4.469524095050696 1.4714900151051946
Bi 0.7193805679275416 7.010469360206574 5.803812067179072
Bi 4.710220313849114 5.391200009473539 4.295115094717357
Bi 10.170975332435471 12.31946882064203 8.266345221997291
Bi 8.059599011537157 5.258369800925676 2.998908001344601
Bi 12.220945116577212 10.844308920339074 6.460411845672692
Bi 11.625584131924368 7.893828277466821 3.1563182724542007
Bi 1.930240586804207 9.861068300508279 5.604859014740878
Bi 7.403410849966343 8.486184604977568 2.631774497944164
Bi 3.356290788910418 7.788142449978634 2.9178352696131427
Bi 7.513050304515547 11.387436657913893 7.126702101514036
Bi 5.392870942412366 7.4221897400534 0.6087254606674656
Bi 9.62181324403184 7.05813154392371 1.0305392947448277
Bi 8.311297495638952 12.269026137607032 4.350887669981191
Bi 4.918310229829074 9.541413870569048 4.896376964722361
Bi 10.930415695217508 10.812007051073502 3.7244445917214124
Bi 6.025627946944928 11.26670004988467 2.597376625681147
