45
Energy = -163.29051704 eV
Bi 5.26606136382202 12.504022004669785 3.182306161338471
Bi 8.867605961429366 12.640480097780486 6.793477556025462
Bi 8.131415315643018 9.81087381232352 2.1549271727251025
Bi 4.493215510097372 12.318287362876761 7.0685774177247005
Bi 11.303764151595832 10.799625746688697 6.249087529916262
Bi 7.50860190484807 11.713401358175178 9.405331475358453
Bi 4.160157578463971 10.260232811146382 1.4036596665219907
Bi 2.7411907951601737 11.679865943020094 4.66308143603633
Bi 11.009702222269043 9.879376885311475 3.3317494494105238
Bi 6.689224091376248 10.975139170040002 5.461532983490941
Bi 9.915272621827574 8.420121797146233 7.511962788742345
Bi 10.121436396212088 10.25414584680206 9.886212065150632
Bi 5.059405095550958 7.6651852433691285 13.048860223070644
Bi 5.40651102197631 9.630141901361894 8.483026987433355
Bi 9.297084928620345 7.210034115967546 0.9651934749688963
Bi 12.093949265214988 7.08462156324974 9.374125550379997
Bi 0.4181727712818448 8.17197750205073 4.997262961031727
Bi 5.536935940694307 7.743486046051579 10.984506016129462
Bi 10.080475030549389 7.038435755560155 3.9373666320392644
Bi 2.352309694124198 7.1929729132838665 1.2855113308211008
Bi 7.0254202650656215 7.734929377950475 4.166005691480678
Bi 3.299741654461586 8.603798896256556 3.9764866622269777
Bi 6.649033013899748 5.826434754826612 1.741236428559066
Bi 11.38508065693267 4.107750578698618 10.002981739725385
Bi 8.766292624365985 5.7618029447291805 9.765834374308122
Bi 4.72779945926696 4.897912254880519 4.949002766267813
Bi 0.24510803627178446 5.1891947558527205 4.449768371525877
Bi 5.697485812414578 6.291773215681813 8.27468641798219
Bi 2.6088146294715306 7.539886562766785 7.218225688217107
Bi 10.174522078122669 7.735222608611073 11.64722754144573
Bi 3.1792471782920284 6.044848294076191 9.997216893082163
Bi 8.96009576767791 4.3426103850069575 6.040090783602548
Bi 7.252353151865045 4.5426335001996465 12.216440814835435
Bi 8.293234691813074 1.7931428454690204 4.485837301694939
Bi 9.192646908712645 2.2129789771736514 12.402713296324137
Bi 2.250275607047519 4.577490183468389 6.752512399791133
Bi 2.6439018750489836 4.53877138220574 2.6755741528558463
Bi 10.762212629040052 2.4990186028982357 7.547424161115135
Bi 7.056381500345332 3.013826577017667 8.330094099095671
Bi 5.29420755163405 2.036978037974977 4.057636289186398
Bi 4.933699489749279 3.0907994331579967 10.778871275441444
Bi 6.33501175598625 0.605938851263592 6.532798950409096
Bi 6.371457251892955 1.177813853926333 13.048860223070644
Bi 8.820725974632486 0.857555144162223 9.672477403019005
Bi 5.831563024869174 0.12444539932854859 10.318892236732427
