40
Energy = -146.60562026 eV
Bi 8.28353599545888 12.335145174337931 5.306299276051889
Bi 11.540748156770473 11.215129367236873 7.175619993938039
Bi 5.99971901077131 10.727428043856984 4.060642212544752
Bi 10.848060729991666 11.149610548696089 4.171932908961246
Bi 8.66024113452487 11.369278137637469 10.220785160998203
Bi 3.163077317753854 10.952383335165948 8.230007580446859
Bi 5.349704595521021 9.3898167757012 6.739522798873701
Bi 8.735742934982277 10.169517761459726 7.434556806788727
Bi 9.999023159492618 8.437238415790953 3.045679293696488
Bi 5.943028356362368 8.051762780358795 1.3483565956737624
Bi 3.7563202459052385 10.208482072029074 11.15690199124264
Bi 12.378988836969185 8.537101420609432 8.361605823590441
Bi 11.428393990854975 6.218817116050139 4.572174442644631
Bi 6.6985847005044725 9.5788892549328 11.727138142389796
Bi 10.952405767151436 9.40636778287915 10.9494991788844
Bi 2.833351644145708 7.306910092354458 11.593047180872212
Bi 6.976020714645585 7.3455582975572415 9.704546871478613
Bi 7.181053186952189 7.910739319887018 4.143069380693223
Bi 3.2828541455238502 6.737287066044198 8.665518743901446
Bi 10.068537221018987 6.802806786126628 7.3146821779659055
Bi 9.40226862410103 6.811316144483801 11.517238980536582
Bi 1.308229799160864 8.68285532227479 7.383644144980266
Bi 8.773049845600475 4.6652109343375345 3.9510634399365316
Bi 3.36904540369259 7.437392003696976 5.355150614824294
Bi 3.045667506393021 7.749500046405271 2.3070767740081384
Bi 5.372056954023766 4.582765448239598 5.0404559451186595
Bi 11.233534510216145 5.1717639515496705 9.743051776337447
Bi 5.418791464179349 5.19447069827233 0.4015871545829716
Bi 5.4173286632607 5.657064724274717 11.789980694912614
Bi 7.203402459401102 4.109405618531034 8.37102762558111
Bi 1.8775506291031798 4.064811875203577 8.569387419486649
Bi 9.102186190224222 1.642361066112345 4.350888607904992
Bi 3.8568523906969365 3.182539248793589 10.745818087843247
Bi 9.3859008173101 2.7525502073681327 9.987709558435636
Bi 7.752468500501559 3.430563280801105 1.2886420463584927
Bi 3.4875177672156923 2.5558645790168257 6.403457697846903
Bi 3.406670447905099 4.709990497525967 2.642595033930548
Bi 9.742433971647316 3.161037948279491 6.95998927335102
Bi 6.202582824845665 1.9878184549848477 3.459896221999315
Bi 5.468331750965865 1.6608972329883878 8.586163183041872
