55
Energy = -200.04432701 eV
Bi 6.425004186492996 10.222071977356318 0.5407420921645328
Bi 1.282309041997102 12.716642882892234 10.403525712939777
Bi 12.814529083454964 6.361103880679363 1.3213367087278893
Bi 9.512708266142283 9.845059390561667 7.3222936619451735
Bi 2.1427301426083036 12.859807465025515 13.614908073279386
Bi 11.451168337133568 12.223292044805858 4.207587905175221
Bi 9.055458401322957 9.355038367456633 10.961313734195672
Bi 6.231918947027907 9.510737805817742 10.257362923367868
Bi 12.236597142369636 11.640148964229743 6.996050202977507
Bi 12.837646689090203 8.81773013532993 3.1611335006376557
Bi 9.014427414817286 9.84715690897414 1.9772329743097448
Bi 12.382996928782239 12.030587944236403 12.162754073222352
Bi 7.743522366452272 13.883982363847606 6.185005620557577
Bi 7.084856029429217 1.4755310182463668 9.465651401214641
Bi 11.790974401655538 11.033514567283882 1.2287476201999492
Bi 9.761659884995058 0.9858280155642362 11.235025523178358
Bi 11.774708477949876 8.161116685432074 6.139220823494549
Bi 4.058075825875628 11.559216070806082 7.827071674369768
Bi 0.5056075779606038 8.93761315086762 7.068161314266811
Bi 13.492373505077984 9.15965795734057 9.944462691115014
Bi 4.810710961116338 13.198535171185387 12.013740021860098
Bi 0.9908153706344808 9.482177497986706 13.4423515163056
Bi 11.871158990528095 8.021805003837398 13.080666673581767
Bi 6.295921839994218 12.76395828327031 8.674111453379606
Bi 1.5465428579087648 9.72829292308636 2.358226707128001
Bi 11.467719233786205 0.4161767888396945 6.185005620557575
Bi 6.945618037116796 0.19837273022104412 0.40297921239496814
Bi 0.4037717344903685 0.3259811713333356 6.764670842705366
Bi 12.946166827782683 0.2575089501645416 9.460089854283138
Bi 8.759666286428473 12.19921105186166 3.946037089445016
Bi 0.8213844873643016 1.4338360940692234 11.532340139261816
Bi 12.560945405922151 0.7131135058564434 13.388441790789313
Bi 11.83042356681436 12.173695825647375 4.207587905175221
Bi 9.27781334091097 6.519932631495441 9.803842821057133
Bi 4.121474156349058 9.167600862794016 9.79606713342169
Bi 4.2170507279732155 12.84095266355857 1.8023105349443223
Bi 9.796817086802362 6.48031490219667 0.5974662708792396
Bi 3.9704096684828305 9.699896377242661 12.811408455052266
Bi 1.514215802378921 12.665641781631333 3.2962319645798805
Bi 8.57653026076268 11.286565686500007 4.856316588291931
Bi 3.7405642913309545 0.12028445260870207 9.313354805846942
Bi 7.291080380217609 2.3566774163283006 12.397277371353653
Bi 9.244868078171374 12.972406924521973 8.692252209780095
Bi 7.0352555420084135 7.926179378499275 12.749553512719263
Bi 9.842788820881761 13.927148184742945 1.6883089880018314
Bi 8.970634821128394 12.495637002863985 12.765429233620427
Bi 6.057956147730648 12.022909288068488 12.152588407103332
Bi 11.88957059444686 1.0662774737799072 3.752375520927401
Bi 1.7577728689172636 7.222098006707038 10.05330249544034
Bi 12.13938385694859 6.657619301126211 8.696909880644425
Bi 0.18514446757757763 0.9474659158986607 1.8560403418324447
Bi 2.5589047686780293 6.906492971079873 13.010190124272356
Bi 10.925523308688277 5.392686435820724 12.097827058294444
Bi 3.8875906847973236 1.211641057008366 14.051427415140397
Bi 1.5482387410610419 11.649192850620825 6.087078663139565
