5
Energy = -15.46459846 eV
Bi 5.22398094596397 7.417358302922059 9.504898073032907
Bi 4.278321668997404 7.486977026710258 6.9069571205495
Bi 6.501456150297004 6.593716771528735 4.964278904784933
Bi 9.171492428858825 7.474603269499965 6.055189759736239
Bi 8.459520115196947 4.783105113277851 6.385760228443665
