54
Energy = -195.93571462 eV
Bi 8.008823299497056 7.629412404803791 6.996982798002458
Bi 11.56264723833678 6.512568128283539 6.170439925337481
Bi 7.9179983765293125 11.394848410331242 5.3377064726187395
Bi 12.199926259647997 5.899609798086607 3.1857262575590464
Bi 6.055268662812213 14.46749169749244 10.957781724682448
Bi 2.3165056469796768 5.593645634044196 10.64691088028721
Bi 13.768075212921811 13.730505033760453 9.886811001820456
Bi 6.644455840429359 5.822941380414392 14.9550732320202
Bi 12.907870287718078 11.711101897768764 14.822312414498912
Bi 5.684256123901889 4.116422364204092 5.5220509669475595
Bi 8.38401238920569 16.817760604301498 8.527593089911631
Bi 10.79036054807233 9.66727557177865 14.105306601112291
Bi 6.684995046195926 11.736031312644858 15.150915121834593
Bi 8.105783546218921 10.474804078113523 8.192321383537545
Bi 13.643967266938303 8.861601833259984 14.138145609900539
Bi 8.319816183251897 4.910625846641863 4.2038731203101545
Bi 12.709122074173814 12.6317415655537 7.297480997999675
Bi 7.011349056523739 11.77747344118479 12.120011519841233
Bi 11.584563229432606 9.99961319416899 8.363664108622624
Bi 6.77095496397992 4.14870046976446 10.11683263722561
Bi 2.00659698199834 11.738668416125897 8.618453728420658
Bi 13.011674146062697 6.964220299601728 11.01600419482288
Bi 11.103382860307422 13.999527738453136 11.522692596254176
Bi 10.66211248713553 3.646579007880036 9.93507720027565
Bi 14.355854268135532 9.011355316390917 9.183203478028037
Bi 7.438801126344559 2.0046774578686692 4.264088412485243
Bi 13.401754206654227 11.19764255014252 11.827444064645066
Bi 4.883675237505854 4.970553817325486 12.519357715255548
Bi 10.052173147321447 8.049404161145432 2.937229987620747
Bi 4.505221483868716 10.58285301408547 13.437425261298573
Bi 7.170051114609628 13.992736415106945 8.151727426253167
Bi 2.5021005101880056 8.745267717060036 8.487397289195226
Bi 8.119899953779285 8.122864306486557 11.072992239139658
Bi 12.206515819609342 3.6892006733205402 7.268568898976328
Bi 4.724529449901788 7.704340504417042 11.217135797148819
Bi 14.192496632431073 8.106315134189733 2.389036185935865
Bi 11.944252686189687 10.042214238860133 1.623501149479352
Bi 8.55244249305742 5.5290911570515044 12.651248512881631
Bi 6.736778339096549 8.704092318013734 4.375626880131018
Bi 11.284528475123247 10.307054414572871 4.645865359191946
Bi 4.872790161820339 10.698065278704147 7.939498236885221
Bi 1.7435097471462606 10.329669393334227 6.015835286648293
Bi 6.9608296602471444 8.807198592164026 14.06590182661095
Bi 10.30060531421806 14.352071405971296 8.5672665161327
Bi 5.50664947210075 6.405205348700428 8.473543806714725
Bi 14.307097304156821 9.735417718036459 4.974808222928912
Bi 8.547989668823316 16.125096875112717 11.427847417727133
Bi 10.397129018764675 6.674913344492414 9.432826092411013
Bi 14.459284662828857 7.2377314140049025 6.702280517320296
Bi 13.664517123684417 4.15433125205552 9.90849876436697
Bi 4.719858697981073 10.953295681299446 4.886094279102811
Bi 3.800065810270838 3.7758941338697016 8.885514881286468
Bi 10.354598549988994 10.938863114275625 11.180539231032935
Bi 8.394890146272678 3.3654992850170915 6.808091904132525
