5
Energy = -17.04016415
Bi 4.441091638656661 5.836217714213963 4.7902824323207005
Bi 4.401999101461309 5.0159888168964075 7.694828383552106
Bi 7.435539340125391 5.246692839024455 4.617627523957591
Bi 7.258723251674934 5.983339804971934 7.578875775040836
Bi 6.530926255962814 7.9860404127744555 5.386665473009985
