54
Energy = -196.48827714 eV
Bi 10.354962934133681 8.637555762427754 10.626360497716384
Bi 11.531354730854133 8.976124191645807 2.4906652176390707
Bi 9.714041552412645 10.899931206877858 8.728320802587893
Bi 11.624933160366233 5.288343519136428 7.351304378474012
Bi 7.539117652222573 8.93379968413151 11.808893342166055
Bi 10.348990679585121 9.088240522895582 6.3442141568694765
Bi 9.695722825238228 4.654179790871453 11.632679471779033
Bi 9.964526616628438 11.625956903445642 2.216162492527331
Bi 9.390584318886138 11.806029960005636 5.278597981453735
Bi 11.14132418517035 5.64068331218428 3.6212508432781907
Bi 10.518411011996559 3.0999316429736345 9.14328902911906
Bi 6.47219721038667 10.507258276207445 9.397901247998751
Bi 10.727196251574204 7.876041146408832 13.763890055740333
Bi 8.097151659696008 6.627317164950077 9.911192936076043
Bi 8.667005680588865 4.389579703574428 7.066053670914166
Bi 12.300648958920767 3.2607489582536044 5.139054596761873
Bi 5.038026789180586 6.124031452516122 11.872542962941973
Bi 6.064952598948872 3.941837682728233 13.763890055740333
Bi 8.257888482558789 4.951219744569176 2.755193463611618
Bi 5.118102938354 10.609113160750043 2.901805153471007
Bi 7.293852508471089 8.540860617286237 7.087557491524148
Bi 8.571561592798865 8.909237108061534 3.271315037182299
Bi 7.3356601308771765 10.789201165275749 0.754136774046565
Bi 7.762516151415496 2.367222146253358 11.899987486711774
Bi 10.60463675741648 4.941346102836602 0.7065220373082169
Bi 6.333523897439755 11.207980244316758 5.664993832373146
Bi 8.927613582385598 1.93563452687733 2.7597893121348953
Bi 1.9829974965737158 11.303000795638939 8.77749868109904
Bi 9.6258948989131 1.7989980714135556 5.700866142046387
Bi 7.767566550345609 7.752431149497293 0.4597797433147386
Bi 3.48595282766109 3.389917619957395 12.158197378984037
Bi 5.106599220180999 1.982097659789708 9.980332438241874
Bi 4.89291580882969 4.925340423216408 8.966629506688795
Bi 4.9081523281834025 7.529413993175266 2.93484242469807
Bi 3.276517814074436 8.302637800136537 6.64708649950974
Bi 3.6786886263385226 8.768915294030869 9.624643216370533
Bi 5.470212650225214 6.215484374013739 6.000302278288974
Bi 2.739202253978301 11.387811352427244 5.850634489257595
Bi 6.524943422448431 0.15886481149501866 3.578237315871244
Bi 5.989460216211089 1.9628352119669448 5.981763689460403
Bi 1.9704138804506828 5.601528063600342 9.714635582380968
Bi 5.008600535368067 3.8305858904867085 3.4989762705050476
Bi 2.2454304329966113 1.3088856729663767 8.675802814758377
Bi 0.05326652996130683 10.307204017051127 6.653497354768593
Bi 3.1634623379619633 6.85649994299427 0.417578701864565
Bi 2.6997592862816595 3.4109049171347166 6.135543842111946
Bi 3.814175841702665 13.845464494258344 6.467132856870648
Bi 1.881934193308587 7.75302482428092 3.0094721280820944
Bi 0.4366802094079032 7.196219623061681 7.410136573270867
Bi 4.091220860571518 1.2766837827518132 2.0875052794254523
Bi 2.186337151188319 4.768369436419316 2.389247566351043
Bi 0.0018415597043406615 3.475368569418218 8.203575850681982
Bi 2.0006861002809417 0.9707906889741432 4.325765527325932
Bi 0.06210898444578683 4.862195560796148 5.475023042979709
