5
Energy = -15.96696001 eV
Bi 9.393510698938046 6.377980570122998 9.62278190524605
Bi 8.188523929252318 9.1529819923258 5.970252070765338
Bi 9.974645147518691 6.960449161785436 6.893775499730679
Bi 6.441785295542452 9.83598140099862 8.10418173974934
Bi 6.9381633927298605 7.832810538288671 10.183220580033371
