55
Energy = -193.15385179 eV
Bi 5.245469435040764 5.245469435040764 5.245469435040764
Bi 5.245469435040764 6.912909074583249 8.256593792643466
Bi 5.245469435040764 6.912909074583249 2.2343450774380615
Bi 5.245469435040764 3.5780297954982796 8.256593792643466
Bi 5.245469435040764 3.5780297954982796 2.2343450774380615
Bi 6.912909074583249 8.256593792643466 5.245469435040764
Bi 3.5780297954982796 8.256593792643466 5.245469435040764
Bi 6.912909074583249 2.2343450774380615 5.245469435040764
Bi 3.5780297954982796 2.2343450774380615 5.245469435040764
Bi 8.256593792643466 5.245469435040764 6.912909074583249
Bi 8.256593792643466 5.245469435040764 3.5780297954982796
Bi 2.2343450774380615 5.245469435040764 6.912909074583249
Bi 2.2343450774380615 5.245469435040764 3.5780297954982796
Bi 11.33317500662887 5.245469435040764 1.8353685843570675
Bi 5.245469435040764 8.65557028572446 11.33317500662887
Bi 5.245469435040764 8.65557028572446 11.33317500662887
Bi 5.245469435040764 1.8353685843570675 11.33317500662887
Bi 5.245469435040764 1.8353685843570675 11.33317500662887
Bi 8.65557028572446 11.33317500662887 5.245469435040764
Bi 1.8353685843570675 11.33317500662887 5.245469435040764
Bi 8.65557028572446 11.33317500662887 5.245469435040764
Bi 1.8353685843570675 11.33317500662887 5.245469435040764
Bi 11.33317500662887 5.245469435040764 8.65557028572446
Bi 11.33317500662887 5.245469435040764 1.8353685843570675
Bi 11.33317500662887 5.245469435040764 8.65557028572446
Bi 5.245469435040764 11.267119894119622 5.245469435040764
Bi 5.245469435040764 11.399230119137796 5.245469435040764
Bi 11.399230119137796 5.245469435040764 5.245469435040764
Bi 11.267119894119622 5.245469435040764 5.245469435040764
Bi 5.245469435040764 5.245469435040764 11.399230119137796
Bi 5.245469435040764 5.245469435040764 11.267119894119622
Bi 7.265600421952145 0.44382152916445106 7.724341445663475
Bi 3.2253384481293828 0.44382152916445106 7.724341445663475
Bi 7.265600421952145 0.44382152916445106 2.7665974244180545
Bi 3.2253384481293828 0.44382152916445106 2.7665974244180545
Bi 10.04711734091708 2.7665974244180545 3.2253384481293828
Bi 10.04711734091708 2.7665974244180545 7.265600421952145
Bi 0.44382152916445106 2.7665974244180545 3.2253384481293828
Bi 0.44382152916445106 2.7665974244180545 7.265600421952145
Bi 7.265600421952145 10.04711734091708 2.7665974244180545
Bi 7.265600421952145 10.04711734091708 7.724341445663475
Bi 3.2253384481293828 10.04711734091708 2.7665974244180545
Bi 3.2253384481293828 10.04711734091708 7.724341445663475
Bi 2.7665974244180545 7.265600421952145 0.44382152916445106
Bi 7.724341445663475 7.265600421952145 0.44382152916445106
Bi 2.7665974244180545 3.2253384481293828 0.44382152916445106
Bi 7.724341445663475 3.2253384481293828 0.44382152916445106
Bi 0.44382152916445106 7.724341445663475 7.265600421952145
Bi 0.44382152916445106 7.724341445663475 3.2253384481293828
Bi 2.7665974244180545 3.2253384481293828 10.04711734091708
Bi 7.724341445663475 3.2253384481293828 10.04711734091708
Bi 7.724341445663475 7.265600421952145 10.04711734091708
Bi 2.7665974244180545 7.265600421952145 10.04711734091708
Bi 10.04711734091708 7.724341445663475 3.2253384481293828
Bi 10.04711734091708 7.724341445663475 7.265600421952145
