53
Energy = -194.31980322 eV
Bi 2.5629584391660205 8.288409342397047 10.71691474834608
Bi 5.011116262233037 10.04475093978779 10.987122551873181
Bi 4.558461417226164 12.301621560380859 8.976269426313898
Bi 2.651517053196081 3.894433478370288 10.850126274835763
Bi 0.39336509486826976 5.64544733030217 7.771844441269693
Bi 4.017839806431171 6.8756147671864305 13.035294900135623
Bi 3.2427725994642187 6.0285382382312305 8.72888953101457
Bi 5.510552411269315 4.918821652716855 11.272484201837582
Bi 8.882493824857098 12.318522221572723 9.089071013909962
Bi 9.501369027891734 9.872555881887207 10.800418167545496
Bi 7.341806195278048 13.150582405042924 5.281679255790022
Bi 6.896808131296374 8.019942007246803 13.22653708011877
Bi 2.224843470270036 10.9818113611787 7.511380240899861
Bi 7.229428512427858 7.949915198680454 10.15364523054841
Bi 0.5903678947942141 2.663895804203632 7.170758762736446
Bi 3.5405021431527093 11.73619084935121 4.867823348733372
Bi 2.0367234988438025 9.378260946181026 3.6397267736337535
Bi 7.371562733850732 5.025865959026854 13.773365859804457
Bi 3.8433259994329476 5.13973720061263 4.665708843843697
Bi 5.307325187617923 2.7849812698623837 7.236097047037685
Bi 6.759781478298083 11.005941238609946 7.34581570744394
Bi 3.883447590795378 8.903957617383801 6.014781054990298
Bi 0.9164667650412703 5.956619614506543 4.7368176256817485
Bi 2.961154158966984 1.64157873026417 8.823334384069039
Bi 6.344650953774456 11.739390751919839 2.7398623933623196
Bi 10.081629031899615 11.842127890675151 4.793388823026096
Bi 8.606147932867694 5.287281472501152 7.481670574375766
Bi 11.014906865864681 10.29384667954539 8.183385887616616
Bi 6.6368223649492135 8.806026290871804 3.546371634321719
Bi 9.300980125033243 11.681136850206972 1.820499603654866
Bi 6.389496892237698 0.24828036775772877 8.574367904626996
Bi 9.57092120170674 5.556965560352944 11.774027145891429
Bi 12.25004903272458 8.844340767285898 4.603591812036454
Bi 4.207282875213503 8.582282316639958 1.6147167039822896
Bi 9.473642243103335 9.030459714003975 5.858533454797127
Bi 4.7029825976781146 0.057558831618286135 6.035601066068166
Bi 11.343296926825598 6.267031782776776 8.472062920995716
Bi 1.7250405901210906 2.9908734541145887 4.356860451012285
Bi 8.498196348306122 3.407437549655444 9.94956414084077
Bi 2.9803085033243915 5.786417557806165 1.7949286572600305
Bi 8.349621613579995 2.2107389673094997 5.277965184414459
Bi 7.321440015221833 5.437898261291141 1.9128920873980229
Bi 11.269355055769541 7.369070978516689 2.1121891489622215
Bi 12.732829477203204 6.022101383375679 5.7229573018203155
Bi 8.947808181472734 13.407605785160381 6.8829728682750835
Bi 8.693833832788172 8.759302617007977 1.198304839237673
Bi 10.126629336588076 5.481196412785239 4.243400896391406
Bi 7.2594000588251815 13.210185965347996 4.344464193066187
Bi 5.149591712132114 4.431731847166344 0.08933375568729393
Bi 10.839946789664474 3.2899846587204906 7.9758598195442145
Bi 6.052282485694659 2.707269036054726 2.465932554371196
Bi 10.640593399533456 2.6116325492790065 3.307574758677078
Bi 8.677451114951966 2.891212149514768 0.9354241671014129
