51
Energy = -186.53319559 eV
Bi 1.2970305150375194 4.828951353569404 8.170525361897086
Bi 1.714272436143228 3.980583620854382 11.055539143991064
Bi 1.7918855656038135 8.180922551248953 11.090400086060844
Bi 0.16615041562181868 8.495108617147718 6.805718558458959
Bi 0.958792329455478 11.053362912551803 5.379261628704306
Bi 3.746377039366262 10.930537125226206 6.626814115690594
Bi 3.5448579810509004 6.0101191643602965 12.366125355813546
Bi 4.219405287693578 3.836871041232714 7.755287802163924
Bi 4.652315867726149 2.8135962965646084 10.733517313888731
Bi 3.775207856019501 4.85970108468017 4.523917297937181
Bi 4.506355169908538 0.9566408189924128 6.61951359486655
Bi 2.687248285852509 7.548148038169117 8.26401857971864
Bi 3.482083246798599 10.770397971871843 11.128927022387808
Bi 1.6138184058928935 8.339220160856629 4.131137313792982
Bi 3.402388408405998 4.516345150704329 1.466481963558062
Bi 4.51609273546462 7.776781723257868 5.05861473701684
Bi 5.388890877081831 12.026095631456215 4.266259021944569
Bi 5.493343605268301 9.03607867080702 12.57597728493415
Bi 6.42560424678754 0.8860430749229107 8.972404425630257
Bi 6.666321705803862 1.279901019819601 4.452137557549655
Bi 8.458221471511289 7.359720683412396 11.81157775489595
Bi 5.421742877009476 13.47285027593693 6.953792706328582
Bi 6.062962612035441 5.5561461041642595 10.366391874212594
Bi 6.8037733238696925 4.344889916934952 4.246476239453509
Bi 5.645203839464666 9.42481649853509 9.448219523797754
Bi 7.901305278524052 3.361576085674258 7.925556645346477
Bi 6.4127961270535 3.9697102073722936 1.2259775888200377
Bi 7.295779829212436 11.054022584389694 6.419335099790255
Bi 5.221973544920043 6.616995280340183 0.3298849925011855
Bi 10.551209739663173 4.371095967215489 5.215608530530208
Bi 8.26403140043394 10.409637192755287 12.704496636328997
Bi 5.143470074218389 8.938662943151094 2.307635425033865
Bi 8.545005337198491 3.5688022086292492 10.957198420036514
Bi 8.965916207884145 0.8313392258910358 6.384106299958523
Bi 7.405547692943565 11.902172600671044 10.171103315980195
Bi 9.143947620422855 6.661454529083652 2.342095025889471
Bi 8.55064355682221 7.707586002505153 5.190886639392894
Bi 11.466198601524253 1.534534348463065 4.727864853800976
Bi 10.036129983532632 2.9919730576918324 2.4810652876887325
Bi 8.861088121957861 8.11432727643851 8.869435007698918
Bi 10.131533302051988 12.103333802686501 6.095207963635418
Bi 11.250361036078601 9.551738309887801 10.015556925333541
Bi 10.89765640836337 5.432966179662337 11.334777839036752
Bi 8.12960916067205 9.505808268041 2.7510478853326545
Bi 11.011298663254804 5.946162505206259 8.313404668591463
Bi 13.204462695219226 5.6260275545038025 4.279658208696892
Bi 12.097852593189678 7.30773552693631 2.02043032320839
Bi 10.27987820431184 12.278428608115462 9.12756128071628
Bi 11.180125440987856 9.3085182518511 5.279463632802791
Bi 12.684147018248993 4.323980627274232 1.5761159054806164
Bi 12.835386268884264 8.371644455416085 7.685612458906057
