52
Energy = -189.87348647 eV
Bi 11.794265989655463 9.214689080567819 3.735978090444995
Bi 10.689498923281615 11.041313546690915 7.57270735886128
Bi 10.55549068322383 7.937544228590544 1.2776943076075302
Bi 11.296624947580124 6.9177184669974165 7.508784639092027
Bi 8.63601149335977 13.186017793301433 6.755047460413372
Bi 8.54240175410792 11.906847345456322 4.007200141939343
Bi 11.897740139535204 6.186155317775127 3.3696108193363528
Bi 5.554069294816957 12.113195901406197 4.390792687551363
Bi 6.52450564184182 9.45686934717704 0.31316558292562574
Bi 8.687594638947926 10.439483173616747 9.79091153191863
Bi 7.772169436759927 7.615279713667577 2.5101899662032103
Bi 9.289575135138442 9.26322234894839 5.494396759503847
Bi 9.599408000222443 1.8568047794549827 2.8712458646814945
Bi 11.583058819339577 4.24021269695782 8.994217233895299
Bi 8.714664512908428 7.4422278244090885 9.153432186909527
Bi 6.332124881801784 11.582394862070979 8.188936224747327
Bi 11.653132560104662 3.177828132801974 6.129672294749708
Bi 4.6114311218466195 11.408196437316233 1.6079738677333701
Bi 5.696659848835131 9.46673477714629 6.010662541939876
Bi 7.057522138745618 5.170301037364984 0.8167383600873885
Bi 9.667285988946707 5.418116019395605 5.3459878054024434
Bi 2.737484512618389 10.341020808883991 6.427432265492856
Bi 4.504386923531409 6.391043015788502 2.0334213677624073
Bi 4.856526020099924 8.715288642462511 9.446503518228928
Bi 8.52366838925712 7.002629386252687 12.183137174631884
Bi 3.847074861189746 8.046699122701773 14.04400877875385
Bi 1.2225936978703746 8.230641734999876 7.997713120750529
Bi 2.47566875019195 10.613249979687081 9.451167645266846
Bi 1.9395273121377214 4.724767483214899 2.3081973676472156
Bi 10.006300809906913 0.6417765036818397 5.614146319678581
Bi 5.798416858294601 8.348042657270076 12.36603296328415
Bi 6.451899046190389 5.422435527909289 8.314386477783243
Bi 8.651357992638665 3.3725688198091444 9.242106409531482
Bi 2.1146794383290555 9.5927845890448 1.63139756390837
Bi 7.3243500302668085 1.6571475202664272 6.635286696793649
Bi 7.965607227380418 4.010172201601083 12.209977289359886
Bi 5.988579680605046 6.1462286119993506 5.466713906097409
Bi 6.9599477096533935 3.388630899877194 3.30302442705063
Bi 7.000596704704098 0.5158031578491978 2.119794506520473
Bi 3.1336697894939025 5.88691642344782 8.821228775756513
Bi 4.9537034224966785 3.6144944094234708 12.331637762913077
Bi 0.9358256071836301 7.349757986840895 3.39753002165518
Bi 3.6015644765645054 6.312486718183665 11.90443396539801
Bi 5.406365491219837 2.1713450237308742 9.604894138317103
Bi 6.353544467618367 13.186017793301433 7.045069899169827
Bi 3.519554656291596 2.427672800880301 7.158604744027345
Bi 5.297606005313702 0.36180856693886454 4.676438284282715
Bi 0.23403429666621514 4.923039008489962 9.42542193266714
Bi 2.6626312117559983 5.536230347265115 5.210500776435637
Bi 0.6306484539388465 2.213587919574749 8.117936025831623
Bi 3.869524949815831 14.118581229639267 8.55434711798527
Bi 14.255419486488847 4.655400701076123 6.464926021747104
