50
Energy = -181.29792251 eV
Bi 8.111640221992726 1.628436681853467 8.07991452499011
Bi 5.5645344635242475 0.9073592063528094 6.406960626728524
Bi 6.639326268633877 2.453018073270294 11.555249541612067
Bi 8.501946631894793 1.1694064629262384 3.9360900075902143
Bi 2.251834325071319 2.894755559714101 6.233716049213627
Bi 4.3871698030686685 2.209908538346534 9.340150475189288
Bi 9.37515964884624 5.337478969565919 12.889955808033847
Bi 10.823519286289367 4.179003835152953 9.397966077542355
Bi 5.778577092756225 2.709350972581908 3.8630760870316148
Bi 10.420496584674835 2.9521278800870174 6.553088779660598
Bi 4.880527887180765 4.351293572000615 13.135276446272883
Bi 6.967159914630828 5.820828986229547 14.765394571425613
Bi 6.12530046518706 3.791734899941579 7.293689166776348
Bi 9.824509360252012 3.132423886289595 1.9753653368579667
Bi 8.227378096629748 0.7345131406370013 0.9327737262905003
Bi 5.3044522976551765 1.696693370157598 0.9639243693964876
Bi 2.6979237077545326 4.1181941099403385 2.7619101943585047
Bi 3.2352379763039574 5.78987659024304 6.816943421844893
Bi 0.10129593244021885 4.1313095799563335 4.390578135296955
Bi 7.806828714790832 5.249541239489478 2.807503831708907
Bi 7.901014578620235 4.868415820479991 10.230690915812932
Bi 1.946430082831536 4.1258556084440965 9.032717503033137
Bi 11.492313974055703 6.87809546486784 8.10117323675721
Bi 9.846249044121068 8.32712917248087 12.555673578909042
Bi 12.117680974543669 8.6249871454801 10.542242080460186
Bi 0.34480059460447565 6.636257531914719 6.132055134693307
Bi 8.958146747469987 5.553444916547554 5.907060848798426
Bi 10.087723412787991 9.584619879297465 8.418631771465412
Bi 11.054231177084153 7.283945380070712 4.262458595413307
Bi 4.098100079493451 6.870984599017237 2.7771809520687647
Bi 6.038111282598212 7.00382167015504 12.053146687349086
Bi 9.784680046090301 7.288347232706043 1.5931483929532493
Bi 6.593120320545234 4.201277185535285 15.088972818457092
Bi 1.7574227103433722 5.50672722995028 0.1580254326275302
Bi 3.5773611130798333 7.817050125602805 10.243222452101225
Bi 6.140038049323301 7.876690197910457 8.555389210352063
Bi 7.85903762004366 9.571903333392914 10.53202302516769
Bi 15.09058046396892 8.707829290101234 3.858595190586029
Bi 7.9582012104473225 8.857390683501668 5.377200178204864
Bi 4.4815316173198685 10.433510840466568 9.01529753287693
Bi 10.248945004933693 10.529600561045962 4.164315557036725
Bi 1.795095344964158 8.333978549036049 1.4449327227670203
Bi 7.830433517840705 9.808449538674793 2.4129875590540073
Bi 2.276057853554013 9.49417851236496 7.032105616003548
Bi 8.162559498546843 11.841472333318073 6.143028871764966
Bi 4.597618046324943 6.426157507352365 14.765394571425615
Bi 1.5511588797541174 11.25470143786706 4.630671056549224
Bi 4.702280573209199 8.726765151428282 5.31321815247581
Bi 4.216351718273147 10.745047937667936 3.0947624073055606
Bi 6.603520258808559 12.578700364854495 3.7207889637600036
