50
Energy = -182.69767922 eV
Bi 10.521265064471454 7.7270941799623385 9.112132036647486
Bi 7.69770650093063 10.856343353826354 9.411914072577066
Bi 13.768620098188713 5.839017616748491 4.231703056125754
Bi 6.41516953032639 8.759300036353666 11.244383574960148
Bi 5.265026217685663 11.288665551019594 7.568637904514193
Bi 11.404411689872054 4.928329583601639 8.252475685931895
Bi 6.161992501883313 10.762946832544497 3.9074877413743274
Bi 8.48096360291677 6.517749033741174 10.964597885646556
Bi 3.3127599675548254 10.52749862572696 9.773029331196996
Bi 8.935303593630756 9.335517928697215 7.067188563072359
Bi 10.934384341997967 5.576902798770962 5.320502164864462
Bi 6.007254782009873 8.66125201575174 6.151002215295284
Bi 0.8503654615352731 10.527873717284994 7.907673343223583
Bi 2.687452183648197 6.532562917354431 11.775192509096833
Bi 3.3278610963897037 9.722459113413466 3.5922288379717826
Bi 1.2764622351194024 11.506416942398198 4.9406842497158365
Bi 7.591646820056849 2.8731351738370545 10.430334585377091
Bi 8.545031045827997 7.366680946068755 3.6816535167874824
Bi 8.838673791172322 3.3167820902523846 7.665186220859504
Bi 13.358422911695628 3.1868754740904666 2.7799102156522264
Bi 6.775403710434402 8.819722198367987 1.6106666810195962
Bi 9.807474400920063 9.17563123981589 1.644558330946019
Bi 12.799159442886717 5.8060643048305405 1.3684414354204613
Bi 4.2045651749928465 7.655814177644995 9.400384801824051
Bi 6.822778253309426 5.308318342195798 8.757853044361644
Bi 2.2322693319625397 8.22212236771526 6.253966182002847
Bi 2.398646511421894 3.5895015733465114 11.037498072239922
Bi 9.759039233274555 6.143396068993186 1.1316515297658345
Bi 0.183537276047999 5.558633210309308 10.351523299446765
Bi 3.83676147799114 3.376471024692195 8.35716022258501
Bi 10.890153517525578 2.6233012622964407 4.537052630733708
Bi 5.174145705997355 1.0813037779858983 9.809544455333318
Bi 14.676048388390267 8.781725318621737 4.53199719395094
Bi 9.085041129574265 2.514848860012569 2.0955940180999764
Bi 13.768620098188716 8.064670934507019 7.452895176540431
Bi 2.8719878251092106 4.724961912157646 3.9749468901378404
Bi 6.027222454858166 1.9193553731583566 5.315769780889944
Bi 6.589295622016658 4.340928347420383 2.460600020709911
Bi 6.118891246504003 14.508961381194911 7.349688922018608
Bi 3.703420484502272 6.77300667027991 1.7840024949291122
Bi 3.534011342291215 4.854382840368658 14.252857325300749
Bi 0.6365209635864704 5.6174328587972235 7.343563549606543
Bi 1.717792227171105 1.5649784785391234 7.107180798846587
Bi 0.7428178417815591 6.149569155544316 2.3638101365437723
Bi 7.275896524512746 0.24086391640105786 3.0811972521064783
Bi 6.37756052149679 3.6823588334874673 14.407328513314908
Bi 3.187020052286567 1.0294050642413277 4.480954172437717
Bi 1.8252393061112335 3.355811663406867 1.4377591461737769
Bi 3.2047373511059614 13.81547555063731 6.741520947328457
Bi 5.10011204923007 1.7741475424899513 1.507435996855606
