55
Energy = -200.36095655 eV
Bi 13.746480735711643 5.65669259155183 10.744002179624884
Bi 8.442849263245364 5.7699053088448276 4.209426795052025
Bi 8.337445116059156 2.4708601651798014 9.477289702866434
Bi 3.8494981185395503 4.904788618407505 0.327342737570145
Bi 9.044822738182834 6.215886330465429 8.795546697956794
Bi 8.120430053545094 9.793444629286274 13.924331002045358
Bi 2.5907343524042585 4.698145391829861 6.277404674235382
Bi 14.173856204663386 3.503980891102362 6.46195995748664
Bi 6.256639593155856 8.378070488552996 3.4266650836098256
Bi 7.435353573362759 3.547552286303688 12.197895476426028
Bi 2.3605906572827733 5.621151770189871 10.639117162552525
Bi 4.364790206569916 8.046307378062902 5.9404215053041005
Bi 1.4872796732565234 8.368605155397885 1.5819976918541825
Bi 0.3317093011154329 5.8916673924752265 2.919470475485847
Bi 5.1212307238013315 7.558038974086235 9.364148107078952
Bi 1.741336461961319 9.586384659052245 5.857219021967333
Bi 8.4257393577941 6.748715047528949 14.072807240103382
Bi 11.434595832129855 4.481745629363337 2.0482633278689373
Bi 8.284140547715554 3.886399420777018 1.734758898521334
Bi 6.102309213859544 4.441582188686284 5.999053665286555
Bi 11.508790014236158 5.543492326086037 4.933861763821693
Bi 9.339879328677997 2.582929146316016 5.829823070122852
Bi 5.695467877753527 4.006146203571171 9.74226937611579
Bi 1.922355307435631 6.856896750974266 13.366959822684702
Bi 11.498779266161819 4.456599072749038 9.482029771200299
Bi 5.305430327898907 9.692821459411743 0.7739043455515855
Bi 14.150481697992172 8.645800896664927 10.999279290827701
Bi 9.405077123549017 8.479575049329677 2.0090314659821584
Bi 7.590802170995283 10.89874483219105 4.595957387222841
Bi 2.3010168713564316 8.055760473894836 12.58567251531367
Bi 9.387478471134072 8.789409311299751 5.9775800452198276
Bi 5.5623263389515 10.767239853790217 6.874256363036282
Bi 6.184271237033323 7.44156509261367 12.295550516042253
Bi 2.9367217164381922 1.7025197623428983 5.724044113042889
Bi 12.174742970447301 1.9809894723101016 4.771095172358011
Bi 11.718276914162812 7.525708009779516 9.505560978585763
Bi 5.645018685150245 0.9780729778802152 9.518948144175065
Bi 13.051059052188624 2.5483293291815134 7.630766607198689
Bi 8.95022288339249 6.20471833507345 11.861752501625453
Bi 4.953142907245105 7.3439966006172295 13.276439396243838
Bi 12.036108788846992 8.511881081613621 4.35944799583172
Bi 13.832494754897153 7.9320017634331395 4.964482661099504
Bi 3.3342006015826176 6.346007667270852 2.978590497061523
Bi 1.9208706013086208 2.6857134423650657 8.474724045380222
Bi 3.6495895715132165 9.95790908039044 10.585914287438957
Bi 1.1870220165108027 7.680974627515185 8.404483661964267
Bi 13.05105905218862 6.106875465839837 7.607774068868123
Bi 6.485914195540386 10.417373274781589 11.703770704455646
Bi 7.976054652024061 1.2998076387329065 3.365846838611243
Bi 5.485436250383339 3.1516222925322697 3.3087215448302922
Bi 7.47699021152214 9.483950116981822 8.91447031537737
Bi 11.089241664845966 0.31378161097972307 7.0756793463665755
Bi 5.903898775850006 1.3505727341379294 6.47428738925431
Bi 12.072465952406326 9.532496657584858 7.212363059994331
Bi 11.432695679744837 6.9892521453251275 0.2756038333173657
