50
Energy = -181.72167863 eV
Bi 12.224062887653057 5.342434922705882 9.111062175815803
Bi 12.995762057173776 8.236588799302762 7.894533992149603
Bi 10.207173328750947 6.588351921402198 11.048471913644638
Bi 12.137003076641852 4.742278341385473 4.620268821684557
Bi 10.310734714176064 2.4145215192290066 5.9365246011058455
Bi 10.154227415300431 2.7673027169631528 8.925772664066761
Bi 6.828282334054668 6.753010379010635 11.747568018025442
Bi 10.6058806481941 6.499822466007876 6.74509984704563
Bi 6.561663877859786 3.030074282427058 11.563200475517368
Bi 7.676952829612373 9.548732914387049 12.652891159634786
Bi 7.367732751572186 1.0041945263748087 8.105837133527878
Bi 10.54747941279433 9.546795016465582 11.655256132763805
Bi 9.753135054724746 4.549980216371775 2.6899388052109114
Bi 12.781282377321332 7.9141325848061825 4.937127006285218
Bi 6.989341392628387 1.20000780436352 4.928172641690835
Bi 8.021204692141882 7.442978440722575 8.929760963094571
Bi 7.378169885539791 4.023158326409648 8.739315681570538
Bi 3.7737510187136847 4.282783351074153 11.825854030217586
Bi 3.863708075947146 7.357558748950169 11.434832864651238
Bi 7.882204077268082 4.1095243660648135 5.184596473565522
Bi 10.632002371828085 9.923637373797508 6.40252760315678
Bi 5.069980302995542 0.6736697966321492 10.238537912168866
Bi 8.642977372601726 7.248365287830755 1.7247390549795971
Bi 8.769250210097667 10.422517483967352 9.222627001407869
Bi 5.770029792837971 10.864985484548873 10.307062071964454
Bi 4.672445386468063 8.48855314943551 8.709792045690065
Bi 4.010108296485233 3.778765492715344 7.084705622590725
Bi 2.7442687920648114 2.52820849392066 9.55832494839583
Bi 8.711784353035695 10.575485544573626 3.558372055301811
Bi 4.080535695425103 0.9337176096593282 5.94804591603974
Bi 4.495256691691233 12.774736693836283 8.04834170259388
Bi 4.919128794551193 1.8438729709800405 1.835878803843337
Bi 6.352223290202138 5.142207718456528 1.5502056889918892
Bi 7.100836255805246 10.16115441854866 6.152558871317147
Bi 8.937900934979586 12.567464960676416 5.866087478544687
Bi 3.2403816925532953 7.135867621967147 5.713579857024037
Bi 6.404889618264308 7.288882882348983 3.7666135019985005
Bi 0.9595750067886418 4.050326783734018 6.737490063919184
Bi 2.526935251555264 10.601168945744083 7.885322522206387
Bi 3.390604490491861 4.030531647628953 3.4623354245372457
Bi 0.7537089827690002 6.988497688947026 7.502692124654011
Bi 2.3797747386656347 1.2076837910075737 3.3642099282585356
Bi 6.177981358695184 11.69964374188873 2.199882716406661
Bi 4.796472230320939 11.898732929825163 5.0433435877942605
Bi 3.4689046039293956 3.081649361003147 12.65289115963479
Bi 4.302352963347605 6.056400388711798 12.780846250198858
Bi 0.5611145754051031 6.217190964521712 4.577916983616777
Bi 4.577504801342477 9.171450105766777 2.1676378133498093
Bi 2.509661868429757 9.891115294438134 4.643039222323954
Bi 1.8560255621728137 5.068849548288776 1.0041191726220404
