5
Energy = -15.5477485 eV
Bi 7.384552906385203 6.628620554755708 10.325580371129169
Bi 9.612058258026856 6.494891818825814 8.657208593512385
Bi 7.086086930777163 6.6597742619418865 6.907367008661001
Bi 6.2990928596205 9.567016225756447 7.3483751053917
Bi 7.775808734062414 8.99177800266887 5.024450626808234
