5
Energy = -15.9243155 eV
Bi 5.28933183269807 8.249677357796568 3.8040977983200404
Bi 5.69650744426342 7.566725426135867 6.810081931965228
Bi 6.795089271155696 4.743260399021097 6.672540131776686
Bi 7.174794401997831 6.082563039803185 9.333929705279374
Bi 8.677074985905815 7.062194043914631 6.915353079538529
