51
Energy = -186.37598735 eV
Bi 2.7735469070502914 3.7281705604289073 8.96193916227341
Bi 0.7771532144521113 2.0014106188568763 7.347892786548624
Bi 0.7140811006450851 5.944463036207591 9.369887770544155
Bi 3.6820845151480395 5.971727764892681 11.578498932835434
Bi 5.430738589059645 1.1898841861743192 7.539668224900595
Bi 6.190095777582378 3.7296748520354943 11.352361526500177
Bi 13.556574012203923 3.940899779117499 5.8391653930508
Bi 5.832634250518484 7.187149517087946 13.506919271567385
Bi 7.766975487574943 2.0080025531685575 9.369924986135743
Bi 4.572094029799398 3.9220217446152024 6.436587797784065
Bi 2.434869146564824 8.403576179947464 10.12840575129096
Bi 2.7516499087872632 1.9016128501260339 4.982520261120166
Bi 6.067764295758093 8.66807034003475 10.862226909834432
Bi 0.9861355074214921 3.933155005917191 3.4628015187425683
Bi 14.496764303712858 6.754047308083598 6.569643789777626
Bi 6.099133025880723 5.9916742755538195 9.24160444137893
Bi 11.159684312722764 3.2337064733791596 8.198639293843632
Bi 7.949756017711452 0.6079887717974853 3.054341668686255
Bi 8.147225472693654 0.8872557480861067 6.076697019824785
Bi 8.225035146711667 5.334457135586213 12.930561516050627
Bi 8.43928659081598 3.7952228113716213 6.946166268461803
Bi 0.3333163439759047 7.702492802794237 3.0446231718345227
Bi 3.770886934195362 8.397577277731 7.358674711893473
Bi 9.071245965874022 9.197563243151585 10.850192052059292
Bi 3.447223259298693 4.585212714843089 0.9021624426407986
Bi 12.429716211996208 1.3159539684301025 6.1012552819298085
Bi 9.16876534818755 6.263985122943795 10.140075643531825
Bi 5.608160141449652 5.078566779811523 3.070831680920074
Bi 10.60881443939173 3.8826427869967595 3.915752812020612
Bi 2.363728793535781 6.325184463358112 4.777441714020568
Bi 7.258627699529183 3.084698732531457 1.3470443294338306
Bi 1.8647064804259363 7.186562478328507 0.4686805435665688
Bi 8.345334082908389 7.788475926826711 6.477935070601547
Bi 5.382115033463089 10.967898373654311 7.78092480967962
Bi 10.98062299725825 0.9868995121073791 3.337177761580904
Bi 0.4339233667623147 10.582484940673652 4.101940356547145
Bi 1.3975775553980778 10.379689404940182 6.986041647079428
Bi 11.43875985197952 7.922607581480605 6.759886430667162
Bi 13.107444115482755 5.400827755062992 7.280593000993993
Bi 5.231656692238025 8.611347010650476 3.6456017338041358
Bi 8.43435445092747 10.367389473625082 8.08846456823999
Bi 5.90350925243263 6.4117863741577255 0.31579964651815207
Bi 13.556574012203923 3.814401909200048 4.7042192440630135
Bi 9.874443083876207 4.673417853994412 1.0559969219970629
Bi 11.517911681971736 8.314351983364256 3.735120846195313
Bi 8.92463458553317 6.781810589021017 3.053139989038554
Bi 4.277904628089684 8.996217351169365 0.7782246819854955
Bi 2.6808371290437365 12.376203312764948 5.045629041065286
Bi 5.574570669992023 11.456240085546293 4.763716285475354
Bi 9.178255717252606 10.144877150077713 4.614428110030059
Bi 7.717699397377119 9.364354739877752 2.0071280552324695
