51
Energy = -186.06535039 eV
Bi 11.442424417670901 1.8014831727548473 9.47379291612235
Bi 8.998043867059991 1.8440810632615037 11.160232483044004
Bi 10.089043912938415 0.12891046416094695 7.299027073383639
Bi 12.131369786653417 3.1209389971392003 3.8936828739646994
Bi 8.573690082733801 5.1570912225677255 11.379781793864451
Bi 10.456873934095606 4.79556931514024 9.017992658358544
Bi 9.60760663422369 2.703463149992772 5.686979954579277
Bi 12.684147634021492 5.946080402767362 4.936302519760694
Bi 6.583342057053879 2.7055818576854485 7.115130483932456
Bi 7.521153019337786 0.3411962557997718 8.98886206225893
Bi 8.87612879215002 8.04915230457221 9.984278333884346
Bi 11.329664586004334 7.762849543128651 8.264657975067983
Bi 4.229611721272437 2.9646308178868153 9.545040701866938
Bi 10.508655098460887 4.356706021023974 1.655546000274875
Bi 11.883732263815217 7.042384788485605 2.175002386430393
Bi 7.641172999991516 4.4585174735930915 2.920998130343186
Bi 5.947579951008664 0.48276954402767586 5.139216445655742
Bi 7.421540200433202 5.718313741537697 8.61468342734268
Bi 9.860195656245953 6.798257587274184 5.788866957796097
Bi 8.175661699036825 1.468007041163109 3.2684780578081467
Bi 10.090372812453897 9.036920744210365 3.671354733163611
Bi 15.139609511772177 3.086399601719775 5.189125159953565
Bi 1.765542710975844 3.7285604281853635 11.351324471793426
Bi 5.213457294643254 4.838218818530579 5.09851900255626
Bi 1.6420492763976708 1.3701119176160756 9.428194046595841
Bi 7.067064372007745 4.418871172022969 15.211986628821668
Bi 7.2642812835787085 8.186960237112904 2.9190581415573207
Bi 3.5584064655167404 2.3326892040453093 4.55638613571164
Bi 3.1861520661049876 5.206957644663195 7.717081492224683
Bi 6.13378457620282 9.057383400341244 7.8420800598104625
Bi 4.579761751552591 2.7555672891185368 14.64860443237916
Bi 6.779465577721559 9.297254092490407 0.11539403934996852
Bi 14.709075521830567 3.034799340329351 8.18959407424693
Bi 12.684147634021492 4.78709475715102 4.429161835683711
Bi 4.0304341310250935 6.3204042554533455 2.0189504158397864
Bi 4.254352579936059 8.479543743323518 5.45500007443639
Bi 0.5309840740033591 5.606255878613017 9.293021008639695
Bi 4.168127664266275 7.458729431440589 9.545502482738264
Bi 5.260308198227231 6.7944480254500395 14.595865248348982
Bi 5.786084978513747 10.656501389924333 3.9749061310570246
Bi 2.9519650157702095 1.7153670178544822 1.6442324434546776
Bi 1.4989537754512043 5.525372659369575 4.4453409691118875
Bi 12.904265025485575 7.512844859007684 5.79615594026293
Bi 2.222678627600271 4.399133235198159 0.4284942231408475
Bi 3.185143439282588 9.904920163969518 7.980793184121233
Bi 4.324319963128399 10.752682328920596 1.272303543318223
Bi 14.622461925911315 5.867242936749498 2.309782566239604
Bi 0.6043721613568374 7.723271153354279 6.367973651846939
Bi 2.098771710803912 8.650122166915807 1.50444817953885
Bi 1.004190455301539 9.801877313033371 4.106175242003584
Bi 13.633657025803997 8.673903398380197 3.071715758235561
