50
Energy = -183.11122082 eV
Bi 12.16111706434627 3.228582826075467 3.4438943539161375
Bi 9.678314138171498 3.632416315563137 1.7372269410908887
Bi 9.780384728366066 1.3372209161048672 3.734394008609868
Bi 10.738707569388447 7.514127723595183 2.0609238634654248
Bi 12.241889320418087 5.146859360991822 5.845370157065277
Bi 12.749413042407722 7.754377141536169 4.334011615454778
Bi 9.056155663550966 1.3851720205621465 8.224014230426482
Bi 11.65038945548953 7.7998645421738875 8.61712370722703
Bi 11.543564615316361 9.799275701237635 6.316145954882104
Bi 8.538218857601972 5.929642638425837 3.4225704927383163
Bi 9.450515303675841 10.147100036292107 2.8153554075958827
Bi 10.491242514639175 3.90960432439591 9.245400615409133
Bi 8.430702090012776 3.130950311646805 5.756311219889003
Bi 6.722792608507108 6.583002288724976 1.0541812816754665
Bi 6.010691397714586 2.1095346583673362 1.9172359118328803
Bi 4.769265390128215 1.401990659329632 8.679673857134551
Bi 5.656099575581097 0.39708381914146457 5.922141845782347
Bi 7.795390843531104 3.130094242426385 10.393764332143478
Bi 6.771944888021085 9.627805847636969 1.4308433895023938
Bi 8.577440686790005 9.316843922971254 5.609195650540064
Bi 9.633697736168175 6.022495705199479 7.183313645086732
Bi 9.550019492223775 9.06425457559919 10.486244911250514
Bi 6.938272773451502 11.906729117082218 5.035101594621273
Bi 5.938943565972412 4.170228845039208 8.201658637223662
Bi 7.84573377497599 11.242900391280967 8.906616880104455
Bi 2.9411309220911908 13.155402906754162 4.6823097657110555
Bi 5.452016329217597 3.134487694741912 4.7200348468944
Bi 3.806154226166431 13.401868479960502 1.8124410481514823
Bi 5.780888004861927 8.851416304985795 8.725924223082156
Bi 4.103197063269069 6.58992475914086 2.6316645987401572
Bi 6.8466612493799905 11.682531144007255 11.787786583483644
Bi 7.461244530457178 6.984427724220769 10.795845083955115
Bi 4.980548638711878 9.852625027095877 3.921002977158302
Bi 5.696877968752149 7.150018461432129 5.276093730310164
Bi 3.5123190490040646 3.784583251302114 1.4874907557137995
Bi 5.240094054847502 12.455301722506523 7.515160012915031
Bi 6.5946310469841 8.896933108453808 13.015388075898626
Bi 1.5509939124653545 4.1229849064934125 10.173250626888215
Bi 1.8467050773049904 1.9469839233103219 8.073684492300856
Bi 1.6656053190218627 1.7816229444048086 2.968416722547333
Bi 2.8810107602713195 6.664282369875967 6.6584300633289875
Bi 4.376376427306045 10.011909432684975 11.228410200790915
Bi 1.592444729566637 3.9941160837224445 5.827218416694371
Bi 1.7389181226414747 10.523275448976722 5.0002417922293265
Bi 3.955488377204638 5.965733061824278 9.63037944029983
Bi 1.0606418313524397 7.713195314878576 4.168058198421202
Bi 3.020343288910922 10.479455096289367 7.83381465269541
Bi 13.165202146680775 5.1094514643131825 7.998838369641893
Bi 12.749413042407722 9.138540755994281 6.133424750698788
Bi 0.7072845141030328 7.94090810567012 8.501527588851594
