50
Energy = -182.35124819 eV
Bi 12.71755264188875 3.832905291625908 4.112890460753974
Bi 5.7826274569127225 3.0761668730654534 3.8563583959086856
Bi 9.829104160285585 3.320335474367878 4.926834331027925
Bi 3.047201999507136 3.7695260945483433 2.7925624616006455
Bi 11.981127021883491 3.0424156840282595 6.977217614254364
Bi 8.917272031159603 6.176548788575739 2.3315168336622674
Bi 4.38913075568165 3.055621905430245 7.466165291554049
Bi 7.13110307230636 3.9262878546849165 1.2387010913057668
Bi 13.396123104834295 6.670759741251254 5.091640857214578
Bi 6.265443398912816 3.9494719652455377 10.82408498808019
Bi 11.834088660075206 8.337012524800198 3.07178098608236
Bi 1.9634040139753066 2.990846716132287 5.564365679519234
Bi 8.558411260579215 10.16482248502858 2.3559222623207
Bi 10.031338899362304 3.7411036027156213 10.026240180472112
Bi 11.14375001718471 6.23081086684637 7.040743564341285
Bi 8.342854840531666 6.10836064573409 5.333828466806525
Bi 1.9385632841964775 3.40404663683745 9.301182930802737
Bi 4.687162632843253 5.9331416446948975 4.122797597120538
Bi 1.307544216777248 5.527704577468763 7.185817108003797
Bi 12.752614537079122 5.173813392344095 10.253348668553423
Bi 3.672211066841026 5.541908081644735 10.761674629301812
Bi 4.298325346869726 6.141408276197244 7.786748778267862
Bi 9.601949062985307 9.096343278874775 5.028638153863821
Bi 9.851108311032972 4.120759210162206 13.109812178753742
Bi 6.029154548054207 6.7666110618884 1.4869580551227648
Bi 5.229048860280084 9.179875910299797 5.614313410382808
Bi 12.735828703919458 5.474303948349569 13.335978322750378
Bi 8.027314623388424 5.998592549209923 9.330991644702015
Bi 12.951531040731279 11.158428870894777 3.51262157346324
Bi 6.745923899324466 4.859650063386501 13.688096408885816
Bi 12.049293476525767 9.040647321569278 8.207154596128447
Bi 2.774471624950877 8.925370532717189 11.9924672524841
Bi 9.144490584019728 9.635270204716276 8.909167692617258
Bi 1.421733758530899 8.800217697018525 9.288943480729614
Bi 5.5405863890921845 10.51081011081641 2.8486738155740725
Bi 7.146505838419095 11.502400539734111 6.393510192499209
Bi 6.748092743829479 7.860641334653732 13.60970097324944
Bi 10.14124814761823 12.405954333671222 3.7381259123723574
Bi 5.634282703905274 8.557510818547438 10.83546467921767
Bi 12.319261878755022 7.878803149395365 11.609480779454046
Bi 9.313224500746125 6.980991996262461 11.992142136101368
Bi 11.711003985850668 11.516735989404188 6.301575241230169
Bi 2.8553458431665537 11.139945940281347 5.710584035789724
Bi 9.630472672573555 12.643776362829835 9.251593725668993
Bi 1.6314031895388048 11.465412572299908 10.698749645222833
Bi 5.070615749988956 12.973509930539224 4.629018996987737
Bi 9.465042713246634 10.800604277560577 11.701469619766637
Bi 3.754094580102535 10.731253682328022 8.624468016842238
Bi 6.545997976926829 12.992851090754922 9.006686679069851
Bi 6.455006692762193 11.378696618519093 11.632178124066934
