5
Energy = -15.94811449 eV
Bi 5.787110993503335 5.560399170774743 6.507345919006071
Bi 8.825124203658495 4.8046654266716695 7.364510188615332
Bi 4.511819889553174 8.475810793238804 6.10669449443842
Bi 8.160200269315292 7.200730232289352 5.660890150810104
Bi 6.627022079538756 7.909038127076634 8.181294170955203
