53
Energy = -192.86539027 eV
Bi 2.851658920894741 1.1190856534548592 2.5914276237759983
Bi 3.616750384845683 13.243865069595776 3.965500744418489
Bi 5.680238953438409 14.750833312491531 2.375952907535095
Bi 1.4102932228241951 1.3256673125607743 5.310560867424854
Bi 4.598130587861045 5.691655726969697 13.896711836433148
Bi 5.664165053516601 3.931620838209066 1.3515818432731819
Bi 7.0114838321737505 7.618135987584622 14.200747052299729
Bi 5.219040500626629 2.941155341816599 4.805001250282745
Bi 3.219444535275988 14.261119890621604 6.814829969234059
Bi 7.952733305022757 0.3292172727705689 6.636266162152712
Bi 14.28856743874091 5.15643119155416 2.9867853699542453
Bi 2.514481889535 4.826313899973497 2.894492459038977
Bi 4.667964076469549 8.976947269105612 0.8022864521240595
Bi 1.7563564050505993 3.8473392425303845 7.049925608679217
Bi 7.776880867411868 1.5526371556273955 3.8403167110516176
Bi 8.311172563087917 5.579302994027221 1.2790207981685646
Bi 5.9674291946332465 6.611328489840245 2.9064010025137765
Bi 2.3162456101953866 6.973336591466451 0.7828292770602453
Bi 8.780900583807977 10.098897578340535 1.7930718448916818
Bi 14.002537265737471 5.1360656805118206 6.005785046445402
Bi 2.6441497039432234 4.995136749049832 10.237339506368524
Bi 5.294151312233629 1.5585525900321 7.566893711585298
Bi 6.567547052304686 5.533100027602883 5.7871594382503115
Bi 8.892981547121524 3.137871259160205 7.427148837565904
Bi 14.175895271664851 7.780365589977934 4.507418612196429
Bi 3.3937875764437733 6.124323196762212 5.835600381190405
Bi 2.152290179237137 11.674347332145036 3.2721768845016515
Bi 4.664728936080175 3.480666204858845 12.439997691137009
Bi 2.2487934720677294 8.678775162002509 4.021695633534558
Bi 9.800490330948023 5.740441834543899 4.7155440146492085
Bi 11.607674935522398 2.9977220951155887 5.825516928850033
Bi 7.070693088460025 3.2879491947723 10.538032231567824
Bi 11.493991789873682 2.6337035467382286 8.884828470280786
Bi 2.045880741370669 7.577176199333458 8.330464639615414
Bi 5.454472496116087 5.499074169201065 9.100866973164257
Bi 10.90978103771374 8.110719650631205 2.6778264123452167
Bi 8.418982822950886 8.836349116704392 4.557598565515083
Bi 9.219883543959439 6.680276141630838 8.263545719116532
Bi 2.3420254243365775 10.734962099862157 6.280760264460237
Bi 10.696310411858638 10.78394752524595 4.097876505895863
Bi 5.143482118514115 11.267050342925135 2.885995757092624
Bi 4.544364643597999 7.165386484330938 11.540253623634868
Bi 12.457969003453442 5.9113488760350235 6.248004780829764
Bi 6.426005661240545 8.959855957621967 7.665613159689255
Bi 6.081063908348779 5.650383287234703 13.896711836433148
Bi 8.685000712313833 5.246345584321205 12.351611310187401
Bi 11.907801910940496 5.655664419974436 9.26660963409831
Bi 5.312161725037863 11.286514319750202 5.938351949655645
Bi 10.878153497442387 9.281239336748685 8.005411591736193
Bi 4.022172444767746 9.546128303728512 9.449604899813297
Bi 7.938972990640503 7.824028270929991 10.906356295495517
Bi 10.065889427263253 10.061618304032422 10.833523164884236
Bi 8.51283565062882 11.136644971894796 8.455409407728796
