52
Energy = -188.93834095 eV
Bi 7.933088793598494 13.398127484923586 8.23179857622214
Bi 6.79416284339183 9.212746130959049 10.72302316947708
Bi 5.706473311454813 11.446151212274557 7.83571895615879
Bi 8.825523979536431 13.52919589159267 5.281032836997391
Bi 3.6929056900036206 9.566163216585547 11.757466337767687
Bi 10.670420985041712 12.173617510404892 7.316340741663929
Bi 8.272365061031508 6.474424060280703 10.564067558440119
Bi 3.6747271934147268 6.697762102969887 12.756870654857826
Bi 6.670040831667308 7.191238539655051 13.073402732516525
Bi 5.893781022526525 12.432354832324599 5.006844023579779
Bi 8.23494944152104 9.236206665522998 7.3201810167829775
Bi 4.7036225759694785 7.973164629698991 8.636600254985577
Bi 2.219380074792111 9.880902519730089 9.17915144158518
Bi 9.426597899882388 10.266111346713068 4.625294342898965
Bi 9.86079839364762 3.63437431597771 8.369523902003069
Bi 12.614666376780674 4.61039272672886 4.747648191029184
Bi 10.88577934052637 7.612895138191478 8.06795541553059
Bi 14.340066611589654 7.929131370762165 9.115122358780523
Bi 3.87842725505809 5.295080255833315 10.054859316513326
Bi 4.582194311941463 1.819883372078827 11.135461662975436
Bi 6.933264306703847 4.652575257901563 8.483287585601472
Bi 12.03642261786667 9.64874042925546 6.1504864406888995
Bi 6.005490235573532 9.60624929784148 3.806688826214218
Bi 6.600800833051197 6.802485946407273 6.249183166202684
Bi 9.982701349357985 1.0640917901145062 6.733472321249346
Bi 11.552313111645702 1.7827147594980317 4.223933828201834
Bi 2.1284484911865604 1.4894140670915286 9.431706058821064
Bi 10.021581446139777 5.530329109311114 6.046428288277046
Bi 0.8434537017176829 5.188834065772283 10.066444979094884
Bi 8.909305030312268 7.124237758003235 3.101232629846178
Bi 11.312443581931813 5.471471823241374 2.091717948325507
Bi 9.795132443105325 9.444554688260286 1.1803099340684797
Bi 2.8650180091018185 7.403625012205971 5.749096927749441
Bi 4.8995849477164874 1.2220025307997233 8.142888903971265
Bi 4.984265667313237 6.394580452376156 2.479215698514019
Bi 6.833867065348578 10.162775936541621 0.905397356960913
Bi 3.7485737807114514 4.440389932073801 6.476556701268788
Bi 2.9413272594751527 9.42011066107053 3.3108581034945583
Bi 3.8630989274505714 13.529195891592671 10.031621934749877
Bi 7.669904540658495 13.843138412785436 5.650215761701669
Bi 0.7576786094855325 4.141612581496026 7.160537394751174
Bi 7.829548784563342 7.364427715468905 0.2207887403223193
Bi 14.330717311044458 6.944964548818312 6.190457496577266
Bi 9.701291894686888 2.853525504101227 2.0169304593180883
Bi 7.21692311785416 3.3108110353101567 3.708805037599557
Bi 2.0633153222815523 5.550830426033913 2.8311929077637403
Bi 4.747042570721262 14.162996845466733 4.697849209170827
Bi 2.849248682866376 7.710690847444145 0.796263426495328
Bi 2.8320953386279224 2.0899957162677443 4.6667363174002645
Bi 5.826632039165754 3.7987440745199788 1.040226280159676
Bi 7.057629140165837 0.39730216199189733 2.85442299264391
Bi 3.0118314472924883 2.806191958028012 1.7107960487909795
