51
Energy = -185.70798354 eV
Bi 11.860791378846384 1.8202948953631715 6.32400265846753
Bi 4.26055233422131 6.871451834985587 0.8332890590221469
Bi 9.934801308963449 12.480630794488876 6.220480845279701
Bi 10.131843567192252 9.85117503140423 7.767868950928399
Bi 12.761294589189529 8.3097428517794 7.430359044239033
Bi 11.360326838362136 5.743917593406365 8.233364541588134
Bi 3.419633865083017 5.839490135202457 3.567718406924297
Bi 6.41257610967148 6.45041755051935 2.948206554279207
Bi 6.46229286545683 4.282032267830833 10.271011397324921
Bi 5.566462986031677 12.738104129643837 4.510167599420383
Bi 9.06239645736056 2.4727338341443588 7.6091878106173265
Bi 12.53195813862049 7.373234805401946 1.8421939731219938
Bi 3.978192011925769 9.849621094178568 1.4813660359866105
Bi 1.95179872396036 9.689027986124987 3.7443054093093675
Bi 7.405192611101755 1.623874996937378 11.511529364597274
Bi 0.6118295290954345 8.373885076495194 7.026410223120239
Bi 5.351294636250155 1.3330903139977055 7.229551377721389
Bi 8.56755177539426 7.588217329862556 10.288811311088413
Bi 6.743883657657066 3.6827384790479543 1.5675976445961586
Bi 3.1553000685644546 9.606220186425729 11.066579362251222
Bi 3.5335991347822078 8.45591572935959 6.085284181027794
Bi 2.9038249965341416 4.497331155191103 6.858474129510942
Bi 10.869990908114145 3.05886352486052 3.752077071829479
Bi 2.7056320598692967 7.325148074265417 13.119248502123387
Bi 9.67401930552639 5.540386957405612 5.452553073247284
Bi 3.0445434514614504 11.480300032124253 5.9514195345403165
Bi 5.5370381312112995 10.278758285602722 12.895247589809484
Bi 12.57051587065992 6.4714329644100514 4.9386450848932375
Bi 8.843038586204534 12.98962549432933 3.4327624402737693
Bi 3.3672408676308425 2.552709321585394 9.162908306815062
Bi 6.31991533456546 9.948454893089673 3.4846251280183616
Bi 5.523878647906488 7.5660662498050195 14.236818649083842
Bi 6.457445566137594 3.700735825235537 5.470192610109114
Bi 7.90322291445026 10.500496292312848 10.951068121214938
Bi 7.016908713015546 12.706785554144668 7.207136013718017
Bi 13.628389144568521 4.2148776989303895 6.924604070474625
Bi 3.52881121249463 6.678889585382068 10.27144953895663
Bi 8.081814018074681 1.844891207146474 3.6390170849876555
Bi 0.04160006127703424 5.393458359392617 7.40324121007136
Bi 2.256823972912002 1.5337877605448942 6.5078276988950865
Bi 7.767213248335711 0.056759026103048824 8.921105721338431
Bi 5.76445945408197 10.362819012823168 8.759533200471486
Bi 9.846536617446377 6.1381849626119305 2.102589782109326
Bi 0.545435542203035 7.145415133820972 9.829124411190984
Bi 6.364084936878858 7.349026811269152 8.121884983410856
Bi 8.53382244726661 10.72481131932143 1.4875747992227004
Bi 9.45916393951067 3.6325610792083767 10.45023342820617
Bi 8.26753300320402 8.313017666562299 5.9128182290002576
Bi 10.31735445219586 8.959942985827247 3.2262312895473277
Bi 4.345507670632007 2.881659280038792 3.371034091990261
Bi 7.543044360260409 5.916607124431812 12.620017069914175
