53
Energy = -193.14976335 eV
Bi 9.153177668713292 10.832937717889639 12.145378007710818
Bi 6.9212661324741855 8.90956619444857 11.325107955000108
Bi 8.49693845269038 7.294079890943114 13.354618613478808
Bi 10.276481400386455 3.259839633278444 11.278095694075377
Bi 4.996985064023053 6.150352827346399 10.203359008825748
Bi 8.872871281330271 12.75583675483158 9.783672282113889
Bi 7.649313570439414 4.488433567786578 12.206305865458614
Bi 3.9170992760104 9.333045623444233 8.645475870762949
Bi 11.028999457623843 11.436534163574805 8.115327844641802
Bi 9.814438781332496 8.20089147775284 10.780595423755027
Bi 8.540091946979846 4.765974295512699 9.294526897174906
Bi 6.417769497115282 12.520813475340494 7.832994439376773
Bi 7.856154099605503 1.8838645875196685 9.98397224249377
Bi 5.586766466366634 6.054291081526685 7.224601288752145
Bi 1.8774058342733742 6.806541315422791 10.443057930947246
Bi 3.381126806951758 12.34092814918392 8.46694784029991
Bi 1.4732800322442647 3.9812854216242757 9.338211046350478
Bi 1.2776171392480558 8.150970019590329 7.778428318875445
Bi 6.139742603867709 9.686656784218131 6.443717013136951
Bi 9.288045294533124 9.081854948733682 7.2257979969930854
Bi 11.65100249057999 2.8792167405716 5.092000700647304
Bi 4.142066128849242 3.1473420945992983 10.583021440172722
Bi 9.184513194822866 11.83511087323394 5.700624376497717
Bi 2.596910344255733 5.46290337080983 6.8914141837059955
Bi 10.344311264241439 0.145932212178879 5.085777135224871
Bi 4.523439349013237 14.41895047392873 9.117602853690682
Bi 1.8250635854887838 9.813432869123796 4.40953536258961
Bi 10.418830738591009 10.48985785709055 3.219532114724898
Bi 8.761130894235036 3.724449691012912 5.54855991389922
Bi 7.706002238955951 0.5454568078487128 6.809728253815743
Bi 5.795232733826797 12.238403282234733 4.5900684357564865
Bi 10.755455718945063 7.837408891637085 4.758237094194438
Bi 5.013749532709764 2.54593660929394 7.713455264340739
Bi 2.86903865903495 12.499615947900427 5.439729384322715
Bi 4.174904045745009 7.865228969826105 4.028830053114446
Bi 8.032350007659012 6.486294994372396 4.264964952898664
Bi 1.8700910530644896 6.189798823052776 2.7571165062898095
Bi 9.58228603783395 2.227179753686973 2.9849344940818963
Bi 2.4660273184246293 0.9004882522476914 7.215370311013688
Bi 8.239335953347059 8.136877028726662 0.0195638555781684
Bi 5.249626992896381 3.814114809364244 4.1094883697287425
Bi 2.248762344590881 3.6275789804915117 4.422013373510412
Bi 5.801890003473168 12.755836754831584 6.890537055255461
Bi 6.182834936960157 0.8664636015541595 4.129871632824128
Bi 3.2485472956186903 9.631608321203755 1.69213772923177
Bi 7.557929505775042 9.589974635348216 2.613909281578337
Bi 5.520858733614386 11.675976329105385 1.6093569616526868
Bi 9.461849264933075 5.800200006163657 1.6408756597439784
Bi 3.7503861260436615 13.952775894927269 4.961959887745814
Bi 3.209552419409395 5.151050143305599 0.19517606104158047
Bi 7.350064792989339 4.2034689774318 14.671188546563894
Bi 5.84264408582373 6.478699770283047 1.0983670753482955
Bi 4.904622694645227 2.778481125502218 1.2567616760045197
