54
Energy = -197.71891069 eV
Bi 8.648028530557227 3.672284915634713 10.532764254488743
Bi 4.119300759908282 3.517243932992551 12.547672871475816
Bi 5.330755520373447 2.3560964331566656 8.219614145004572
Bi 6.3724989743479945 6.283873175367974 13.178828332892838
Bi 8.487110469138207 1.7048826997713302 8.208428425662351
Bi 6.1375450902394375 2.178035390343487 5.189996438300879
Bi 10.457969492082501 7.678708887637323 11.420540489279125
Bi 3.2902198468197406 6.437711103012717 12.92558027162218
Bi 11.962799430193526 4.877696589884961 7.842209518975712
Bi 7.970505987097693 8.8373787425126 12.741413756158362
Bi 2.586467114993767 1.2238082300938098 6.481277461169283
Bi 10.24320478495732 2.053144073130924 4.272308247500028
Bi 9.3602930899975 6.2157280850394265 8.95550204788324
Bi 11.121332836397153 10.190904930458784 9.794317743883528
Bi 1.919636323204183 2.67373135802655 10.586894671619108
Bi 12.056655015793897 5.409690900538684 4.8327038317470485
Bi 3.8636229902684622 11.448036763400394 9.780254117823688
Bi 5.8443600028084335 4.988349820515125 10.48982070334132
Bi 6.416148014073405 7.571897307551427 7.9902773417759425
Bi 6.558179766342871 9.798422883434254 10.187912221015385
Bi 8.610252512704843 11.964241743224497 9.701611477541572
Bi 7.9752873167024205 0.023668109403894726 4.018635257558674
Bi 3.887452904682139 1.288368605649786 3.1069633973276045
Bi 3.3758861653437107 0.29786847873237815 9.28133690302824
Bi 13.422204791414678 7.312562638483653 6.786371446106643
Bi 8.375869595083543 2.137512019511452 1.8532244811840988
Bi 5.319541441246372 13.199063000648806 7.999496767089135
Bi 1.8753610160903025 7.064999588787254 10.239903204203902
Bi 0.3006187176379172 3.0769715531610875 7.219193451803474
Bi 8.688895828663124 3.875414750843762 6.156339672498369
Bi 11.515409799368253 11.797200568907826 5.93099675739959
Bi 2.6413125924468077 4.693897104563686 8.415596303678477
Bi 5.279804995596291 11.348786848985824 5.458242413819241
Bi 7.622061559536759 9.392119714758756 5.843599667732856
Bi 6.37468894149357 4.435146671177595 2.497602413631182
Bi 8.547217145442083 12.30638023625875 6.697629005357698
Bi 4.919898558841389 2.6206426477436793 0.5250025303036256
Bi 9.447634188575504 6.948867212160794 4.1325752487858995
Bi 3.4709245780468567 8.744785667344 8.20842762018627
Bi 3.1177896287880777 5.558559948029353 4.845933891491824
Bi 10.958941779212049 8.916366507799523 2.34162617851295
Bi 10.881797552616186 9.02034572451012 6.985624819554146
Bi 1.1332528941674676 2.4679640245733623 2.4916574253003105
Bi 0.2986480034016367 4.586354696888379 4.545033582362345
Bi 7.140618508751021 12.221224722325953 3.0476035729586575
Bi 8.99926080550597 5.670595785827564 1.352416852172545
Bi 1.6682382443343888 8.129747302343887 5.694151675204492
Bi 10.18063529945114 11.699748701777072 3.1765181192040157
Bi 5.34978366126745 8.0360936231466 3.1693099328960157
Bi 3.054872571969258 9.948133561018215 3.736805262444609
Bi 2.344030812209076 4.264544644474147 0.3250639260709349
Bi 8.84153850486855 8.541258313573858 0.20086776269312526
Bi 2.706340748927728 6.770072174288585 2.0849870254933727
Bi 6.312282525749622 10.017737789195472 1.089709697722489
