51
Energy = -185.89542448 eV
Bi 13.824776737102441 1.6522918123686974 7.3293164166219915
Bi 12.58911765439126 3.787887185714916 5.578994301465436
Bi 13.773674846992716 4.519555586956753 8.30686626846771
Bi 0.2780282607090933 0.9697572463199687 5.9186086480903555
Bi 3.0953853845807284 3.7922978730587613 10.382860334288706
Bi 14.594827453493208 4.909664552666378 3.5851896958753073
Bi 2.383262492824764 0.6618045147305671 8.119048881882655
Bi 14.767571136872375 7.250703649758587 5.648127044612696
Bi 0.9461058418324105 3.1828568856990387 3.9101731754041222
Bi 0.35050085059050395 5.50896419063342 7.370224389543923
Bi 3.55015921055755 15.078660088469313 5.89958713306761
Bi 2.363435058585707 9.598055562626937 3.3308288471214094
Bi 0.26403253964856005 7.645148253045909 9.5593855936306
Bi 2.0637820892445444 6.093882809197623 4.030100967785211
Bi 3.0839573838660055 6.8380766880916735 10.50504428521121
Bi 5.916924308178475 3.683945475434496 9.179261821908986
Bi 5.169036130099867 5.628785727822841 4.034715642639854
Bi 3.43380977833619 3.41402250247027 7.365514235453437
Bi 3.496695839714451 4.9819559051193085 1.56228813299957
Bi 10.07828878161229 15.391797718219253 7.52612356346615
Bi 0.2991827300939893 9.871831840793908 5.545633598551749
Bi 6.198880140133594 15.093876793661261 3.0463658827312345
Bi 6.595599964143124 15.606023602614423 6.0413258508693595
Bi 3.932522089244616 0.9758645257099977 3.6536374426811
Bi 3.674875070784677 6.969724711280053 7.5192006965688565
Bi 4.859358858058029 11.921929362329285 6.53766269931288
Bi 11.323622433718981 1.233534915041019 9.398075798042742
Bi 12.58911765439126 0.7207246005350649 6.68419360017433
Bi 4.924852006040245 9.17098832615791 5.04432616817876
Bi 7.567535500579429 6.622252925017536 0.08519977777980095
Bi 2.0592421935791654 9.607235049025919 8.008010298157835
Bi 7.632576037554524 1.616169318144718 2.3595349894851716
Bi 5.0707798438245835 7.60845057080442 1.6226439555649876
Bi 10.607723945826399 1.3670110779383395 3.0677398446541373
Bi 6.52014493432536 6.717015995197454 8.737220139562176
Bi 6.341872215972698 2.392756331071801 5.0577928865319794
Bi 9.020617385929222 2.238583659707055 7.6040625836145725
Bi 8.618015430370884 5.012010067262819 2.4308151156494238
Bi 3.7691710436721246 12.347394186601985 3.6797708277120815
Bi 8.473063146314908 7.9735413425790185 4.332786288233363
Bi 7.735544158409138 12.202691380263202 5.423483740794895
Bi 11.065715656069141 3.1508276757277436 5.497734149258299
Bi 9.214931728635092 9.169453187182246 0.010749083526948273
Bi 6.4182998666169295 10.912100020864873 2.934526641982878
Bi 10.144148897777988 10.100478390168945 2.7397813698078557
Bi 8.005263546143606 9.53072667686956 6.960267641168585
Bi 10.89569938270809 3.5877029954596185 0.9559325822266639
Bi 8.339941526404553 5.492605688903544 6.617010553457009
Bi 11.51249377909239 5.8418527830021985 2.92500424700762
Bi 11.892808128628065 8.246320528229376 1.0721827474341115
Bi 10.474696580249782 7.690484656133636 6.574309112746347
