52
Energy = -189.23685299 eV
Bi 11.584702689116384 0.7668804490787241 8.029655878262249
Bi 11.122492867736863 1.526721085996981 3.9267759270111204
Bi 12.892091645742893 3.949937689198056 4.089741875785848
Bi 9.900529370557837 2.8595575818860746 1.44489397154609
Bi 12.802430636908005 3.138037369663186 9.426316501108131
Bi 6.28493375764104 0.8033824893656285 8.311024365851402
Bi 6.902949034474101 2.4910924051500696 4.879082312390977
Bi 4.295627451920316 2.164521333301443 10.17101737785542
Bi 10.054034647374914 2.086145790794118 10.27972194099978
Bi 10.114623450265565 3.08477137172477 6.438349281886139
Bi 6.389486487487383 3.8171922832075906 11.787599135409396
Bi 10.765069277219286 5.533377789884056 2.629291713967116
Bi 12.36574378532936 5.176777790736963 7.132418247579834
Bi 6.873807711645243 2.470058448456584 1.7989414486928108
Bi 3.686272427902492 2.067024572027655 7.199537712655884
Bi 8.333867037484973 5.220401661509122 4.51512507870424
Bi 7.882882167668744 6.776554711595857 0.20896253291443445
Bi 4.025669781374096 5.552552584986624 12.849794295881344
Bi 10.132765559179745 6.383072970811846 9.028416661534614
Bi 7.774422485231496 3.4650203372337893 8.683638443203774
Bi 4.618130449886374 4.480271592716042 5.513695444548447
Bi 7.8964701302862075 6.501474839570598 11.659267951509676
Bi 2.6828361404647176 3.2055160094568356 3.4643774537055525
Bi 1.0310548299485873 3.7723281853017836 9.512322549402871
Bi 7.85486768978831 6.854430245287193 7.033619378092316
Bi 9.788691605861054 8.787399613938147 5.665911466103546
Bi 3.13045657701931 6.0903156524828725 9.962030983765727
Bi 8.267337987893436 10.476473450425503 9.929301960801219
Bi 8.579560037213392 9.717741342820055 0.8704214206985643
Bi 5.938851493065248 5.397492292411187 2.1631714912556532
Bi 10.731283337824058 9.377081755240454 8.499132696748324
Bi 5.615876910488064 7.671560194222832 12.974027206970339
Bi 6.252901893297966 8.174183503129203 9.689686985993388
Bi 5.617217767223292 8.168456860748044 12.974027206970339
Bi 3.366528786689822 4.449629078004704 0.7527535447060587
Bi 13.264604415799251 5.578644506612232 9.875191308848581
Bi 14.526898654664256 5.298181489672681 7.123275242773383
Bi 5.2066940506470125 8.5911281785361 2.9141410786152666
Bi 3.920644610851465 7.923264369839611 6.757708854727189
Bi 8.467206889639023 11.475283834885717 5.335167941451589
Bi 6.408013501870252 10.575144892244802 13.500893336984129
Bi 0.7880264980615878 7.902868151258877 10.508925806364918
Bi 0.1658773404419987 4.952974310499922 3.481993826270957
Bi 6.759401802792761 12.0312493642494 7.795220979283347
Bi 3.619470587716558 9.594483103060675 10.884323216706724
Bi 0.9219015298750052 8.177598305597241 7.4671676216255705
Bi 1.03860411136301 6.423073811505652 0.8632712588189201
Bi 0.5282240079904131 7.953995904537864 3.425470867939106
Bi 6.729229252995634 11.180760655169331 2.798184785087214
Bi 3.9655728057450057 10.70566397297058 8.008422512213293
Bi 2.831525490453485 9.633759261056081 4.476928188636021
Bi 3.940930193509369 9.330264506936919 0.25108285788154455
