51
Energy = -185.63576452 eV
Bi 2.8826653512993436 4.90049532544015 11.458926600547361
Bi 2.5487529545135086 7.427091502407614 9.791594568879482
Bi 5.752731965420349 4.653665449779834 10.429970343396302
Bi 2.0565967234751685 11.402504080691989 6.773380868029415
Bi 1.8362368088104584 2.9421773261534723 9.326037069434676
Bi 5.108214041467944 9.125045444783664 10.402509293110343
Bi 0.29687466699883114 10.010066504888844 4.679945488315834
Bi 9.707362408170074 4.034909865419747 9.716140117457078
Bi 1.3213178720735526 4.753013562022728 6.944186630874357
Bi 6.388790388156802 11.238215849327517 12.398399136518687
Bi 5.4166925765827285 11.789913254386821 7.989089777437933
Bi 4.329389631523115 2.058841874092301 7.713681717254715
Bi 8.574108982796307 1.2777761519240027 10.420312100362255
Bi 5.008654078332497 6.564902845209023 8.122176393528461
Bi 6.635917780003992 7.109106883993287 12.053879520826912
Bi 5.599710869917168 14.35633792243878 6.343878988875979
Bi 2.4396996012099055 8.409153541208502 6.214269245091676
Bi 11.408721529139848 1.4413689587175929 9.433106686170694
Bi 0.46436568258208916 2.3267385097214452 5.249961561804087
Bi 7.713562828350609 3.712722385953032 7.289362825741499
Bi 3.786142563695992 12.633241868028652 4.586719863368226
Bi 7.675293520833633 12.5873149104512 9.99889511540041
Bi 7.870228311253521 9.019517073437727 8.095966097725121
Bi 1.9956191162502277 10.11268554941171 2.154432306215022
Bi 2.5605635807762015 0.23758333903523884 6.049987625572682
Bi 9.22012338466689 10.521109110200328 11.624442220947364
Bi 4.200229532159858 4.468172639914358 5.790379477931652
Bi 7.989997494690488 6.8879098078658805 5.793063294774304
Bi 6.651554252957253 11.74297486355568 5.212827652072508
Bi 10.684873673680277 3.5834682517766754 6.443834480396759
Bi 9.184847873667403 7.657182721380165 10.462284899714685
Bi 2.1319799795786625 7.0504926509296375 2.3042919803423643
Bi 7.286647103140213 2.7582184144115187 3.925021335546499
Bi 4.244874655449085 8.729548630356687 3.731722424701225
Bi 7.653889444863217 0.6521294509009207 7.5165630587478995
Bi 2.500373465478505 3.500126665304777 3.2610617627174237
Bi 4.24167633915593 1.1057041577412332 3.653523095523099
Bi 10.530031945513299 9.942558437660965 6.745414593795011
Bi 6.420972064576026 6.2520500209862035 2.6872134518583
Bi 3.5192243116520796 6.461592619665435 14.181229805076326
Bi 10.286263510303485 3.647246594396866 3.2528157713356323
Bi 11.058429169648736 7.182798553952887 5.516798321412717
Bi 7.088309591332518 1.0623431235974683 1.3589763209749357
Bi 9.294643350732493 9.113748926710688 4.056215761034049
Bi 10.63248685405531 0.5560829274321885 6.5804389908555185
Bi 5.09583224579959 4.0652810262609185 0.8521153253474311
Bi 6.238814307073349 7.815079069782753 0.010504314724240736
Bi 7.574563930754247 5.137370141975737 13.8300731233524
Bi 8.248289637374414 14.35633792243878 3.899918554244882
Bi 9.315531118862285 6.066026800334896 1.625660160846298
Bi 10.121292901353062 0.9709935494657584 1.789520350478104
