50
Energy = -181.96199749 eV
Bi 1.3168177442795614 1.4885064602578955 5.4924162439612685
Bi 2.1948559634979325 2.502175098278549 2.712135578742367
Bi 5.054627304103976 13.115927068740756 4.511994372169761
Bi 1.18322602375265 7.41313127719691 2.2680288694178157
Bi 0.9270533782571374 9.123773828777892 4.901014491020173
Bi 4.569964087160621 5.336307292442295 0.9541756010191709
Bi 0.5576522051534899 4.311056644559458 6.096448168823
Bi 5.032959806755964 2.398261770425315 3.800587761654504
Bi 2.703161192152127 1.8831376099426997 9.199576131813473
Bi 7.642417418346339 12.918543747347558 6.094144513172757
Bi 1.0407844680615375 4.382467150080622 9.097654368050524
Bi 3.0953465363689294 9.795826202477249 2.15721592306429
Bi 3.559219729108261 3.2875889521744464 6.592481625168562
Bi 5.4773294972718345 7.832784820189406 2.4215874286952435
Bi 4.992935911446476 13.050250852447242 7.561593252646646
Bi 0.2453786360808031 9.631366125938088 8.224401760069542
Bi 1.9002395463864186 11.844479141982722 6.56339359032831
Bi 3.00463272361657 5.34632390950304 3.60750122106626
Bi 3.9465055717580944 9.89906922604588 5.198715617943127
Bi 7.610232242350031 4.922048754166069 1.3976359520547073
Bi 9.362677132253896 2.5637924360184865 3.971704480713292
Bi 6.749725450196918 1.8253174603522133 7.3553116670966
Bi 2.273503801048751 7.417338320408591 7.714480254693739
Bi 8.068321334780482 5.30488473947051 4.420838285611957
Bi 4.972680793797557 3.4114605505793762 10.757116750826125
Bi 5.735053762816916 5.5149883621953375 8.690859789994198
Bi 7.863767817732324 7.876259475673113 0.5104004041744382
Bi 10.621091283871158 2.048415941836426 6.687490704066532
Bi 3.2322302083517016 10.225612451722878 8.852631560106532
Bi 7.472224323853581 1.6294222613297256 10.310435385497263
Bi 6.90542714995578 11.789092817344342 3.0453626327030343
Bi 6.719975151004683 9.496175468547333 8.163001742926431
Bi 4.740416098507123 12.918543747347558 4.949507013413684
Bi 6.489315307608963 12.523273551464975 7.427022911655601
Bi 7.179765377331994 6.059530927842855 11.28356338275931
Bi 12.418696540733754 2.9064123031563422 4.3636376413002775
Bi 7.77170990661037 9.330967626522902 4.651024729453705
Bi 3.7103789443440776 6.834580656748546 10.539706445603937
Bi 10.627940788985683 6.216109689424941 3.0919985059643844
Bi 9.750763815851613 4.802692793996773 7.760498078293924
Bi 9.461298739429935 3.932217827458099 10.67453131555951
Bi 5.689053988596673 9.126501534080761 11.010090862991627
Bi 12.754598370190488 5.289980293043525 7.912175752952503
Bi 9.344961946486254 10.662629033980421 9.251765589365549
Bi 9.870062893325033 9.15482605716932 2.4646927948446185
Bi 8.808476446746901 12.096182911451526 5.44487652868688
Bi 9.993764376856722 7.741005777202706 9.866672082681218
Bi 13.031081214517267 5.816411596056316 4.940549442470153
Bi 10.548260696750349 8.884492096781923 7.082161714939056
Bi 12.889773242979185 8.189903985951121 8.89852376141903
