54
Energy = -196.29856709 eV
Bi 10.58832009798026 4.391979271125583 12.59961730530096
Bi 7.015629258633062 9.532947591426064 2.5560168690650356
Bi 2.3536547792002183 13.694701405607919 8.631174118045712
Bi 12.757883789023266 11.218845549730535 7.099307024554265
Bi 9.112722782223102 12.02950475220647 6.638771239505387
Bi 4.4258143324512424 6.454293192347748 2.494860520648752
Bi 13.06864483374741 8.172398085241676 4.477999079068569
Bi 6.568802554101869 2.416251609674879 11.285856617034325
Bi 8.190433999044798 5.355528648589353 7.889155715231318
Bi 11.683640945830613 6.935591428033628 6.914132059100037
Bi 7.764054923086313 6.631856007683806 1.682164298119879
Bi 13.005402424930649 1.8961515012524817 9.961385468606844
Bi 12.328178311558862 0.5059925643429369 7.379350067597052
Bi 1.612254547615302 10.745792382142492 8.445767720575171
Bi 8.835392218158736 9.62921625269591 12.957689196545866
Bi 8.041576199037625 11.826039243228474 10.840917009723773
Bi 10.551328367768319 9.349894794028948 8.455583160090846
Bi 8.981605111421537 14.249152650828295 8.95695462727013
Bi 10.814337822371634 7.200192987914534 11.103746793980163
Bi 3.4295097943287556 4.113939207124716 4.151717296661658
Bi 7.33975444668672 3.0900646413015065 4.6379117988063765
Bi 5.018581869620888 11.251431836958341 9.973312895066078
Bi 5.850718744946726 9.8029479037661 12.856228214362282
Bi 6.1259141176587235 11.860287389388816 5.7442414561534765
Bi 7.476865838829648 12.200352977890379 13.812527384946309
Bi 6.149346070457736 3.1773620770257365 8.410133086800975
Bi 10.863237346412458 10.0058359204209 3.3807594042680513
Bi 10.501303909760516 8.045795691341839 1.0169469701823337
Bi 9.706608624591352 1.184093558412894 4.265831740037025
Bi 1.2779843415381964 5.62882052549671 12.63317922025078
Bi 5.627844627201049 3.3205241736324873 2.2148078028218117
Bi 7.528434674407077 4.995939732496008 12.557196661389876
Bi 5.509711382470324 6.023898714441868 5.392772913016502
Bi 7.267454474501001 7.051771571598866 10.242296729253214
Bi 3.9663982280411414 4.289972818761054 11.578126768830849
Bi 11.444458991937307 3.064814775913523 5.959059389900314
Bi 2.3855197542669044 12.261117344654473 5.954593473125567
Bi 6.013501681945 13.714805749497962 8.206583053430663
Bi 10.106757466120776 1.8873103266742222 10.876097012171092
Bi 13.169129987355271 8.05047105211882 9.382176868652776
Bi 8.589298333352117 8.911889889854551 5.100581619916573
Bi 4.5654427084334595 6.023662668518907 9.084063354601351
Bi 11.7866266797972 5.948507596397934 2.7924321916267925
Bi 11.992828720920931 14.009197248630482 7.934208365661837
Bi 4.094823680287529 9.556881681070985 3.5056285458100036
Bi 9.070004083557244 5.815006023302543 4.364687640796299
Bi 3.9702347983020188 6.620657773006118 13.577954028885566
Bi 6.174858984835575 9.462545284934507 7.677726839128155
Bi 9.346039248757657 1.3218295372609634 7.307443726723565
Bi 2.675736508560622 7.757284080323582 11.078683962084638
Bi 10.942939251286887 4.380829355138153 9.325426553140455
Bi 13.476291685278369 12.861080542827915 7.338600356497639
Bi 3.6820984126285525 8.342879065093864 6.27446246974817
Bi 11.494997406643487 13.127971431491911 5.068603521908437
