52
Energy = -189.97766639 eV
Bi 10.032768060961889 11.03309923465371 7.245395470131656
Bi 11.371414289355368 6.747922498973769 5.097109716598013
Bi 10.761513249026487 8.25574148736467 1.0739792680357554
Bi 11.474324594239203 3.8104859690770283 4.3038529866737605
Bi 11.39491090334903 3.514370434686044 1.2407036591112415
Bi 7.839699732113674 13.07492769503984 7.608883578608759
Bi 9.89508122000104 10.591015672457917 3.888164730791638
Bi 11.923223370075002 7.148395383349277 9.046167568895225
Bi 10.049820616476206 10.548560828170238 10.505644397614123
Bi 7.314939258471833 10.684027755900134 5.779755076917691
Bi 9.312322628789966 6.184900221646696 7.384005118145574
Bi 8.522445306617815 9.81556631465113 12.840930810023707
Bi 9.644958051198975 5.630495356011913 13.017861497007777
Bi 8.855697276393503 0.4154512067319679 4.0969593009908865
Bi 8.990874080192576 7.605566754838938 3.43107774253683
Bi 7.513986315886268 8.912845815547604 9.800652947931756
Bi 6.0307578769213706 11.597008992148709 9.615446923336009
Bi 8.450958000864153 3.4018270093500402 4.42838090424953
Bi 10.911347261071924 7.854072936250801 11.799256498205345
Bi 10.120929911168712 3.114499869422417 7.671868166429395
Bi 7.803906803619504 12.11685433718235 12.022962489749403
Bi 5.879039718976512 9.16123055434298 2.910270121268902
Bi 11.547430507046222 4.302406548088291 10.123595324097442
Bi 8.649040155947572 2.1717114328316605 1.5981399377747716
Bi 7.650806222869125 11.60908770700265 2.0838137006857536
Bi 6.444340521441565 7.75984733106112 6.53002288433725
Bi 7.17878910150502 3.312433137254908 11.705046187456453
Bi 7.158219698645063 5.4781167248537335 1.591533237204531
Bi 8.921029194982188 5.692023105231966 10.700202445058538
Bi 6.106087436607973 7.954170458229683 0.11884737652074927
Bi 5.864206275579334 0.13359067348751055 3.471797405313033
Bi 3.5165723034437333 6.5270703089151745 4.018170653455853
Bi 4.923317899187235 3.0562121538187403 3.639818789278826
Bi 2.8820590997831808 8.775804654554662 5.995997079738491
Bi 7.015670283428547 9.284251920387103 12.840930810023707
Bi 8.040042707164227 1.605199871516103 9.34487097070104
Bi 4.486232803975437 6.984948322900893 8.885214244463727
Bi 5.227508241581353 6.339809979713439 11.834115097794168
Bi 2.3536025223331443 1.4005395460831915 3.761768141284078
Bi 3.0664002330620073 9.48615102631274 9.935089963954123
Bi 0.5401346176752887 5.761774829941391 3.6621490962988577
Bi 5.884420523618152 3.7208145457966353 8.933012028364203
Bi 2.822470336868886 9.325186483006174 3.0034627679289625
Bi 4.438621281966051 1.1885160377521313 5.96422021655317
Bi 2.562430895955415 4.56939712361921 7.115865256183191
Bi 3.9634030809486362 8.99003862556574 12.818977638275584
Bi 0.923919846500225 7.330196360936135 10.57924066049781
Bi 2.502114828010521 4.960798887010358 11.723412624128509
Bi 0.4702164661649236 3.2113948928390044 5.363178167874202
Bi 13.028665577389527 7.852421587603161 5.846726465661934
Bi 3.01208157188592 2.8047860242017952 9.56722145109061
Bi 13.111347391873837 5.8204722102113635 8.107322382682971
