53
Energy = -192.43363077 eV
Bi 10.844211815617241 7.0184918413723665 11.384911279344207
Bi 10.89951722930743 10.85679659193718 7.550073312819212
Bi 9.524062311931615 9.75694871916805 11.573935155255393
Bi 8.111883644997599 7.2638593313585735 12.579734803232938
Bi 10.802707748137399 5.921982013966653 6.5170689901020635
Bi 12.360137659261074 8.72320713862368 6.032110370820448
Bi 10.573655067519752 2.8996626218769053 7.5515302730403
Bi 8.477799952919339 12.959917774241314 9.54908036203673
Bi 8.436748535892615 3.556375461079309 10.694330261437607
Bi 8.300239612207942 8.931679060985434 4.615925789530594
Bi 12.756120421657537 4.483606326835769 4.695330662894592
Bi 5.6263430366433385 13.42834114506749 10.492356683340894
Bi 8.329806163929762 6.425092478772518 9.615907399488442
Bi 5.213013535079659 10.359314842796849 10.392414330749554
Bi 6.199404379612393 3.2485022578731857 12.767000972749926
Bi 4.477748167894477 5.754561830877953 12.843638487956458
Bi 7.5410050201189485 2.4944757508158664 7.514374616389081
Bi 4.797415352226217 6.494272409695967 9.92833807149807
Bi 12.39700473145999 6.419566667833446 2.356490267016931
Bi 8.577333868041688 5.481484103881691 4.391042361973701
Bi 10.176862329642404 2.7961674840091293 4.532944386858543
Bi 6.503176268243985 5.263349945778498 6.803443588826394
Bi 6.464291961878243 14.289056982792061 7.713576320899136
Bi 8.054825256139942 9.937014336723252 8.837146176915036
Bi 6.569037533949366 11.571167711577335 6.215995630160836
Bi 9.898364652840344 5.053590747277983 1.4132053730834482
Bi 11.10765574256878 9.083057584480116 3.312277272246472
Bi 5.818071527155251 1.7177625990560803 10.160677575048007
Bi 6.4520457010869645 0.4593555275629432 4.741693293409962
Bi 9.43382412696401 11.760232393406218 5.092065110015648
Bi 8.711255708070098 7.640930076944723 0.48480788547849046
Bi 3.5915089264958158 10.976695454488606 7.942794957914926
Bi 5.835168340538255 7.192431437465793 1.5885609510443301
Bi 3.8768065061284984 3.0566061827123576 8.13579470869851
Bi 4.482866719306048 8.273752977381523 6.699555771231006
Bi 7.366776133837101 2.5321617695222365 1.469100585392992
Bi 2.243438678374594 5.068026025227108 10.858239049962492
Bi 2.311489703739204 8.140600204654959 10.678772808700717
Bi 4.357448281854021 0.22564072966628995 6.9930834399319615
Bi 5.711505350130509 3.303184851605184 3.9242097122797444
Bi 6.125498333197303 10.682849968580925 3.204028616530678
Bi 6.450389640797021 6.824730366178082 12.843638487956458
Bi 2.4646568007839957 5.443739393941311 5.601827967499571
Bi 1.0148688229239902 1.9091056446980619 8.670604753449808
Bi 4.8571726865602445 0.928654312446763 2.158377913289389
Bi 5.3617486753461945 4.466377220165138 0.19084884134654276
Bi 1.631788837273549 8.558776270345529 7.742596419854979
Bi 0.366258540864364 3.206610695564984 6.020289428281807
Bi 3.4077511857553575 9.645935365484984 4.186914946971759
Bi 1.4574295689370105 0.3721392557745151 6.07347598273915
Bi 2.3675280474752642 7.74907057704613 2.0248030409755544
Bi 2.449829666030694 4.738433106673662 2.643640430389789
Bi 0.20664204928984886 6.484978289863159 3.7986186769781343
