53
Energy = -194.35047976 eV
Bi 1.3490712255017285 7.438763934811808 3.099690823186054
Bi 1.6508623430500609 1.230587281880958 5.87743605327344
Bi 3.9064153107429327 12.303908076522903 7.519288864499128
Bi 1.485108658508503 0.8310066651294584 2.8457519482501437
Bi 4.226304552400288 5.3614578510123705 7.929544413494544
Bi 5.413816838470509 9.602493955221984 4.054542559791913
Bi 5.574853378930614 2.6731308684132737 3.1314098324190054
Bi 7.205198454300485 6.653472122959628 12.283527647272852
Bi 3.4080303185373 1.7267683289236813 9.307535516183641
Bi 1.5394478447575088 3.71358610934567 1.7484175236929005
Bi 2.947952828367586 7.932226244828879 0.5146876331990791
Bi 6.670390739735697 11.834255396828064 8.687309548365926
Bi 7.723986390430459 13.293631097332733 6.163006462271124
Bi 4.27968241368569 0.24638574325530568 1.7752507906308372
Bi 4.779185941612855 13.293631097332733 7.957138528491653
Bi 5.089303728851598 12.594373321859983 4.688527597426843
Bi 5.3914743836439945 6.424278196773247 1.554859238831022
Bi 5.642861024816082 8.789867766780604 10.628086000855532
Bi 4.650398025920928 1.8556892645234666 6.476360394575656
Bi 5.442523460379454 2.4153554814009786 11.549487479724645
Bi 3.4965482791514333 2.402853230154699 13.839150551893765
Bi 3.0097806210603997 5.042516428992574 4.0872149890317235
Bi 9.241250211635908 4.389647188725183 2.3679920947423305
Bi 9.007122866701454 1.4979524372759265 8.19103106093606
Bi 0.4585018937194799 3.9664168272613995 5.360773340168163
Bi 6.201300669715416 3.7302950936106685 0.33546084439075785
Bi 1.1999357621945648 5.766076176645059 7.7568503711091
Bi 4.838524033383031 10.28602907928687 1.1266965048145394
Bi 2.4393563944923824 9.899240848081126 4.550182181985386
Bi 7.567138823299083 3.6676202634491184 6.576616694054741
Bi 9.413645237982232 8.242468181065474 1.7990585050965133
Bi 10.649919919883677 5.519085665636504 4.877048518067116
Bi 12.676846212888126 7.787915154335833 4.496526957604129
Bi 7.009801006857819 4.562599473179222 10.089523739420523
Bi 8.40324059313659 2.0328392337047196 4.128476891406462
Bi 0.8419575169826126 3.520029576811137 9.867438652402157
Bi 9.247415299560988 6.68591739204641 7.8291774401381575
Bi 6.912621875384025 0.05963401486948521 9.876829523417971
Bi 2.7634576220444846 9.431262099541776 7.559397358915409
Bi 7.968015457637986 6.6709939774379965 3.9821445097406025
Bi 9.455129866185858 2.9716894201768738 10.839557652202076
Bi 3.1864698657836663 6.790182947603566 10.40904217406996
Bi 6.96287898446076 8.426225917613374 14.006696835143968
Bi 2.7377499721156116 4.256785803592004 12.049193653041982
Bi 9.139160605366031 10.951364170247707 3.086091856056431
Bi 11.12732024663156 5.349556936475354 9.873451991503906
Bi 11.64157441426888 10.641081554161099 4.607346238184993
Bi 8.936766074537166 9.124573432876867 9.79011817240222
Bi 12.087093405408105 7.990561761408071 7.5204799126401065
Bi 10.163490463298672 7.319237292488081 12.010710480622937
Bi 5.5376109650711856 8.185461121421577 7.5895226729876955
Bi 10.889575496126373 10.840598572982175 7.84161545978676
Bi 8.259381694849823 10.355764909746696 6.304685301383397
