50
Energy = -181.73415048 eV
Bi 7.006812442479905 6.306859460197152 13.39416755482377
Bi 8.506814779421347 2.4691124622433698 3.1624425005460046
Bi 8.790351017016729 5.731743591515182 1.375618383007315
Bi 9.154939499369187 2.1503837429655235 6.120240660345604
Bi 10.461745792307234 5.914823005173745 4.518911478918015
Bi 9.344101494425281 8.738437084876567 1.755504236804073
Bi 5.40388045306111 3.8230579794396493 14.272661322264387
Bi 12.803770051452736 7.936393735709647 4.283588649217306
Bi 13.665050601111739 7.303260543724351 7.176665111967725
Bi 6.465656011351741 7.736134652807051 1.6086810252655992
Bi 12.085977421869663 4.736257714446196 6.84249771623498
Bi 6.914539601911422 0.5159637880841746 4.774363203756071
Bi 3.984081433047243 1.8405270215159015 3.831825125315867
Bi 7.388358789601554 1.5933662148019567 9.234558182207618
Bi 5.844680485063658 4.087316319079225 2.883496564498726
Bi 2.9467796341863335 5.499521572423001 0.5191979645283471
Bi 8.834531390995751 8.564769763276463 4.788334148636911
Bi 7.188495323892477 11.595344825901359 3.5871810855479054
Bi 7.834832001214133 4.304603978150734 7.87755015496878
Bi 11.206963946525143 10.426384832241842 5.237656014151431
Bi 11.802171993036238 9.591769486755428 8.124598225847375
Bi 1.7522609781632217 3.9376815852597664 2.8274799144648615
Bi 9.17282750424377 8.261810693135116 8.840724512366673
Bi 10.761947841649523 6.702456712170226 10.892342361094306
Bi 4.605462069529615 9.957945902484806 3.695346728209077
Bi 4.691418390078138 12.877324785772903 4.590547774081539
Bi 3.4350464963070135 6.27372368820438 3.512771203124017
Bi 6.341209111046829 10.073502556052949 8.18352152536463
Bi 10.489335782870103 4.061875484390346 9.387814160339117
Bi 8.002132041976855 12.178687975174263 6.66613814568754
Bi 4.400711969548729 3.6268528775712094 6.241689047377838
Bi 9.942889087797054 12.871075673324407 9.172729201675722
Bi 2.51995645548056 8.946583481898083 6.813317482750359
Bi 4.808325243773167 0.9741155720541065 7.707392534135312
Bi 9.352383378807477 10.470777255208473 10.980662408770582
Bi 5.478661477061514 8.098450775589491 5.976582531484241
Bi 1.5549571511060853 3.9035225898435537 7.2902659086330015
Bi 7.30596199922222 12.695825781561789 10.435805281295092
Bi 0.5682505759960426 6.673335135232177 6.306941620366241
Bi 5.16288173393451 12.820803167258989 7.696138295995345
Bi 5.091163797412505 6.263970501555396 8.92054837080251
Bi 8.5111176189022 6.402608870343771 12.946024082930295
Bi 5.660735740635799 1.9869322286028173 11.768629005162962
Bi 0.8706731440591673 7.93224725946054 9.072133382938507
Bi 6.671940386785856 8.833037561479061 12.821131897417617
Bi 3.151160516850498 1.9480599832524363 10.143220664485673
Bi 2.4434753342107114 5.145415887004024 9.911817744990026
Bi 4.275760870286327 8.529467789207136 10.834200396317353
Bi 6.110996213264491 5.009857625967021 11.624840696408349
Bi 4.398147677652286 6.842343577604781 13.39416755482377
