50
Energy = -182.17567608 eV
Bi 8.332841224012322 14.389629075172179 4.775094468859404
Bi 11.2380758638401 2.4039221874288734 5.630513947284479
Bi 8.831529806234482 4.042064687130651 4.610696098009955
Bi 13.13989660891278 4.813399282840106 5.088295496209761
Bi 8.304891036607016 1.7496271350057635 2.655383739305866
Bi 10.901650299612829 5.877118567493574 3.3017970610237826
Bi 8.268755148325747 7.832719855268582 0.23029042851581613
Bi 8.177641026009859 4.8058284044805655 0.6945702300648846
Bi 10.001527574077434 8.5491347271758 4.481091147729882
Bi 7.463351033778721 11.341168718625768 5.132927257799773
Bi 6.428849392179988 6.050068584767435 13.375799891779623
Bi 12.519930266112786 5.513935122236101 7.950375089128095
Bi 7.021690411055021 11.800700985556304 2.1331250979948737
Bi 8.376153472469937 0.5576962919535216 7.660522305039331
Bi 10.556516466707574 2.5495704202335165 8.609581881855583
Bi 5.089061509938392 14.280188677876659 4.724935832905808
Bi 6.220246682386887 2.68791590532806 7.579120868907397
Bi 4.7964893803040125 12.427199885848237 4.16038739831658
Bi 9.511104889140906 5.281685059526845 7.724724210982002
Bi 7.0079834795211156 8.309754350035348 4.863650811923425
Bi 5.483750303994197 2.329239208633015 3.773905206813007
Bi 5.249834660512873 5.503173386032226 1.3447395692330302
Bi 6.00785707716799 8.908363175435307 1.9970408379049251
Bi 3.7724384083398568 2.807750462315465 1.2993836661321216
Bi 9.992764363738845 9.521965433364496 7.409428226033127
Bi 12.317780896923171 8.410593743467425 8.957467108626957
Bi 5.9211110891297425 6.278436283737229 9.25019792745265
Bi 6.119842458623558 2.0843207319598682 10.5520077919292
Bi 3.629968430793395 12.021523097033464 7.736842338441495
Bi 2.750432310511728 10.206642840477226 3.602039881493451
Bi 4.440238903293062 0.2121139602777095 7.5992851554730425
Bi 7.612557331121206 4.686723664494512 11.311648021994941
Bi 3.541632140704521 7.299843044855561 4.288834727920102
Bi 5.884649829046311 10.100265629224282 8.306129852278561
Bi 6.2525454257316655 13.069365823811186 8.849670866347957
Bi 9.468284622840933 7.6335595919091155 9.755078138498089
Bi 1.6498524629400844 6.717960510252533 1.9972576565665419
Bi 1.5421541643182328 3.841402484667537 3.1534493508061847
Bi 2.2283472203394683 1.1103273817353176 5.706961947552854
Bi 3.168951053793765 3.94274721792508 5.826897496508505
Bi 4.0760181348909965 4.4304609344529435 10.888328747224467
Bi 4.401776593370411 11.504395383034206 10.640363071683923
Bi 0.994635309515833 9.946270163082202 6.0955991901088895
Bi 5.430615330057774 5.518911741880748 13.375799891779623
Bi 5.185677462808568 8.077797851681142 11.624053594874676
Bi 0.4332743470956675 7.176805352096353 4.768131133384395
Bi 2.7485825142469253 7.9456982415270785 7.723320098373
Bi 0.9368954656594924 5.458064511010611 7.6415784917165785
Bi 1.1317049717529126 5.474203567036742 10.674489103618086
Bi 2.1967081549274288 8.292261769415196 10.759857680757305
