51
Energy = -186.10823701 eV
Bi 9.486015343753492 9.739939534757356 1.8944208728088625
Bi 9.057285410352717 8.642113035881733 13.038722667001842
Bi 6.092137952537527 7.914463883988295 13.050145390488629
Bi 5.262927388034537 10.354825378633219 0.7588923413877621
Bi 10.749244543081051 7.084787062916829 1.145811039226138
Bi 9.688312208049126 11.840766952954512 5.0462918361098
Bi 12.273671027331062 8.307540365506437 5.724598975568654
Bi 6.760333035296614 9.28589952094515 3.2045441683881726
Bi 10.250172910696119 11.371967445656765 7.998456462982909
Bi 8.449073076789984 5.262792777030645 1.8454781215658669
Bi 2.82993954876549 8.678786914219419 2.084279388145865
Bi 5.402827414842486 6.838209442939 1.9140083590881063
Bi 5.450178553208372 10.7107388131617 6.7845556689150115
Bi 7.695629856372152 12.775505148080184 7.173554752963007
Bi 9.36226817793585 9.038575759423383 6.23137147547073
Bi 11.813353922591006 5.538393451270676 4.551929091362663
Bi 12.672481251843044 5.827866391185258 7.456132690312351
Bi 11.342982810281688 7.674258570465201 12.596286560684467
Bi 8.454195363954115 10.886313708842426 12.021200356428242
Bi 6.913918217408753 1.546020075033405 2.6513403541614236
Bi 3.734353524897882 11.078145682572398 9.320071453362912
Bi 1.789962563010405 5.851940646601697 3.4053134016455746
Bi 9.660859004541717 2.7765584949327367 3.126619356345119
Bi 9.585662543991775 8.64572004806005 10.314778972419552
Bi 8.803341862730989 5.063318330052674 4.91219533293729
Bi 0.7263801292416922 8.946374107715664 5.753730453526086
Bi 3.5234088336772986 8.222439418051053 5.021332556994017
Bi 9.903909894602428 5.401152740812826 8.670320193137163
Bi 10.044528373498487 2.368258956582205 8.333468903976096
Bi 11.004865805212097 4.8213334976897455 11.461494578125544
Bi 8.357914570431952 8.000823403503485 13.038722667001842
Bi 12.972093475379662 6.5216671691367605 4.548695861382637
Bi 5.814299482663381 9.581348863667618 11.029696640520852
Bi 6.482967367639107 8.243089985711896 8.354423146850463
Bi 2.7855967877151815 4.927019710167714 6.754247341886824
Bi 7.161004032809476 2.885693961919871 7.473441520817593
Bi 5.099762760508016 3.5255398462907883 4.0762962969199386
Bi 0.9740429942660425 3.335008825880419 1.749981761290178
Bi 8.173051993507793 4.213561084843585 12.444868206256526
Bi 3.401853526679686 8.049332604751484 8.741836142842084
Bi 6.206346765295864 5.130697085092134 10.27556116856419
Bi 5.960965801598529 0.9317027362044144 5.464517140569231
Bi 8.778724085602834 1.5544439347475472 11.027960976721467
Bi 13.140454304381283 3.2930071333544753 4.153099677968092
Bi 3.642936474743438 6.489489498404449 11.401355098471782
Bi 0.1921477850088103 6.418538311337032 7.394121712350741
Bi 2.239938309824598 4.244975824487502 9.82598226545951
Bi 6.2140230211207435 0.8097490929615269 9.497017372639965
Bi 2.8684880310015854 1.5905900765787975 3.4481605510683973
Bi 1.3586178056640925 2.2710845084542246 6.050164218600227
Bi 4.57548634998101 2.7644425230720318 11.150337035426727
