50
Energy = -182.81238157 eV
Bi 5.936978134317644 9.588361982580759 13.718884042361939
Bi 6.646476431622055 11.338533802998658 11.25900550983359
Bi 8.014739903826735 3.9523855493550446 13.520402352990928
Bi 2.6207733603373415 7.950601469657177 11.577709621391104
Bi 5.200699834397097 5.021638533951367 13.560292272170098
Bi 9.803207610453788 6.176873731419058 14.421589020864204
Bi 8.93907306700101 9.077257884090011 14.010545427306502
Bi 4.126628794269503 12.027606748787262 9.63766337570127
Bi 8.163531528797947 13.780003742816712 8.118338714075412
Bi 5.607649690800391 7.387509604202355 11.687461563220465
Bi 4.421212646186554 3.5180268107847237 11.020092878734312
Bi 7.495673607499413 9.128550570764785 9.327128109605775
Bi 9.466240742363938 7.420076484521364 11.519004265871176
Bi 1.8847166159674706 5.143603463938594 10.541136922571907
Bi 8.361127154424302 4.000637102169626 10.326938596374044
Bi 2.5542420872015907 9.511914887902462 8.941078893577851
Bi 9.976911743691346 10.941644877034909 9.680546053114757
Bi 10.892041066923385 4.344502163089675 8.596630164161192
Bi 6.1375397230067 11.604187689101533 7.301765823553658
Bi 5.42366017196945 2.3121844172387855 7.650132416912666
Bi 5.873127575943966 5.1185105280346965 8.849528959521749
Bi 7.808831577933697 1.1336707509951047 9.232553998121023
Bi 11.972864650745441 8.727232349836871 10.34880211016938
Bi 4.51426521808397 7.970586306184775 7.091204543455834
Bi 9.401773794294385 13.495975897414521 5.225861532454691
Bi 9.727462560642062 10.600813597728697 6.591311933934801
Bi 6.518294536496961 14.297076336140845 5.646397511337768
Bi 6.935908119937751 8.3539294713113 1.9007220887245269
Bi 2.135119294454708 6.0353693217733255 7.610845956683946
Bi 13.415785353944635 7.563781869742522 6.356481975847626
Bi 10.79950000995914 7.36047699952506 7.8923462466666345
Bi 8.983062537508369 4.521398509466779 6.252419978984676
Bi 2.5280476741612254 8.770399184866015 4.8765909018897755
Bi 9.748507378390986 3.0132888159199944 2.363387555747074
Bi 8.038624695791038 1.6278407933260477 6.243626826932328
Bi 10.001775742899355 7.120994643512073 3.8016267751514894
Bi 5.280678054961811 5.436931471863451 4.475862843072247
Bi 12.520669773752424 10.328942792054216 5.3028069150022725
Bi 7.254423970821268 9.172768182010865 4.91323372961066
Bi 8.492368541927297 11.253027408552557 3.0833691618792276
Bi 11.474602134125574 3.388595256906361 4.894880692900697
Bi 2.8060689309834665 3.904488088135479 5.530677375470053
Bi 1.2731959076332415 6.053705928834743 3.999773785230014
Bi 12.790659140864978 5.949161066387818 3.8391132021336105
Bi 3.93871262533768 8.899007172832908 2.134202931724593
Bi 11.13757369686923 9.677350401933438 2.624351848099801
Bi 9.99484211311602 5.765264468982682 1.098516346633558
Bi 6.704315481681414 3.1967394643037554 2.907029174570876
Bi 6.918434620522335 5.421980001145787 0.797244906940445
Bi 3.5992637253207973 5.876474758034498 1.9607655208786758
