52
Energy = -189.62010198 eV
Bi 7.756306438577756 6.571496593861541 0.720463518381878
Bi 10.961724247995102 5.3662994422231 2.7602937617285632
Bi 10.171184742122957 8.200045387911839 1.87411239314289
Bi 7.636052634082715 2.056800928871362 2.8412656672446897
Bi 13.82705529762162 6.204964225095484 3.4678578562551436
Bi 12.838343317315154 8.852331462479953 4.697614070232056
Bi 5.4027210522708735 8.55424200763066 0.6558490479009049
Bi 10.070600010240048 7.465181285060296 4.9653651485472805
Bi 3.6865819513947984 6.070860969442124 1.1248525124513102
Bi 13.660260095701513 4.164482759847564 5.748533921345215
Bi 7.404175868793779 5.072974469882345 3.4487698548442687
Bi 10.982742403237461 2.675103171088034 5.547294032662671
Bi 14.00544173724851 8.435878108407554 7.489963971417212
Bi 6.827578706458336 2.0501990773363237 5.764500382541547
Bi 4.961359490189841 3.251772518487852 3.6511125200459635
Bi 7.206506463495048 8.915390442394221 3.124262118911866
Bi 9.379133631239581 9.885259176247978 7.3995204767813405
Bi 12.109604772429382 6.060001473313024 7.506252200129506
Bi 11.67169857034202 1.8040854313408765 8.437844460566833
Bi 2.5452441120524316 9.591540910827264 3.185257905611961
Bi 12.103151221707405 10.346029998185193 8.89967773338023
Bi 3.040184371043143 4.527371710518544 6.70414930244701
Bi 1.0153921244019688 7.576263854476694 1.4312041219061706
Bi 3.716910547272627 6.888732217089996 4.10492332875921
Bi 12.469539110935042 4.281086200593162 9.98300275041004
Bi 0.6359778497395198 6.279998124639521 4.230744120058843
Bi 6.400889344129087 8.19359069814822 6.198420935088029
Bi 8.676975146404272 4.43261087995573 6.651697156994539
Bi 9.27596998858162 7.190798466457778 8.853305587042557
Bi 0.41733258711369275 9.070506893040545 5.404170814405442
Bi 7.8872109086184095 11.516993962606255 9.845883001776746
Bi 8.655062506580224 2.513578320045877 9.069528562560945
Bi 9.68426345658606 4.168396890341507 11.39357100715788
Bi 5.825041101221191 11.098873561047466 5.446052811622995
Bi 11.324816512556382 8.206355256866743 10.918649142626313
Bi 2.0878381505055867 3.3133195848093067 9.413806832019363
Bi 9.740907271920278 10.566949071697522 12.07322255890189
Bi 2.8690506506071696 8.57040689413595 7.2939734698493615
Bi 0.4944092978558974 5.646050516857576 8.07033582739432
Bi 2.9213570914874736 11.676695937740542 6.307398996218992
Bi 5.387128981448517 5.593812518033171 8.428053885978692
Bi 6.109173751100829 9.04135647931936 9.517301158993517
Bi 7.918181386631321 6.715373608935461 11.663404225971968
Bi 5.461667296926306 2.827401850119207 9.827856894796971
Bi 5.303470374293272 12.992110009948176 7.785437808425629
Bi 1.2795380595960744 7.934892250572789 9.845611105015625
Bi 5.6967218875471435 11.988102406933567 12.35118075256104
Bi 3.6711666899795152 11.008775554554784 9.42083729033417
Bi 3.439352475829864 5.759801074383998 10.78426920854449
Bi 7.388371814310135 10.054126499929342 13.936083058630944
Bi 6.046128424087465 4.35978172659952 12.310486766929534
Bi 4.943792370188481 9.063582457907081 12.416358825453381
