51
Energy = -185.94601271 eV
Bi 1.9746614212666675 8.572048841967726 2.88653836169188
Bi 2.9274153624724706 7.510916643082025 0.2086384129270263
Bi 1.8155377312364285 5.550717567970997 2.7785050628881742
Bi 0.7522860935662337 5.84519237739003 6.207158413527025
Bi 4.076552841533098 4.5051364880507245 0.5667684244386201
Bi 5.88954422181008 6.895558447733842 13.46256529051712
Bi 1.3106629228942597 8.697076923824625 7.012545886033864
Bi 3.6742950763085136 5.362212825694418 5.23073889156415
Bi 7.372863877443234 9.860022152132505 1.602258263492897
Bi 12.359770241103611 8.54416902561507 8.934899113226027
Bi 6.095946730985161 12.357615844152276 5.418226218587924
Bi 7.708338115050855 3.4605119143964127 0.49025421035760486
Bi 12.90027771925149 5.975469830709267 10.43994616223157
Bi 1.9036364604665785 5.010760600455568 8.884992489294337
Bi 3.90126219814698 11.186566823985185 8.633337055658844
Bi 2.013823375038842 1.9700784111012855 8.660549748745911
Bi 7.3501646491263815 6.82336450866996 2.713055979492926
Bi 3.2155879265755294 8.319150430630893 9.427730938974017
Bi 4.670221641967522 8.0968540051199 4.231611446172942
Bi 7.191818379451508 0.6761482844659483 4.1518205371860875
Bi 7.8922635481306145 13.091153200438688 7.806378354475816
Bi 9.861443312267719 5.713455073309521 1.0111547874007
Bi 5.93103772368113 3.744465363597289 2.940072339305098
Bi 10.107981206124704 8.795371594124118 0.9863943553447475
Bi 0.767058444061078 8.559052620929737 11.317530977004866
Bi 9.082584598727792 9.428449753211655 5.307662938433791
Bi 9.33786135321769 1.1695534282332545 1.6611793035872762
Bi 3.9555369374379588 4.8320656561350015 11.788189972046405
Bi 6.274997292547923 0.21698746813498532 7.310985967956158
Bi 8.63594394871578 3.0867302818244635 5.4805156350101125
Bi 5.673304913752423 9.637303865638225 6.694455371982423
Bi 9.913562942397258 0.27100437687052653 5.583289618563248
Bi 8.523896666723763 11.84710987536427 3.6225489146268646
Bi 4.379604932265238 2.0384865866002233 10.581298226095399
Bi 4.778365074986846 2.8523954970130374 7.676905486171269
Bi 9.814709946701582 6.022689789688007 7.816631271800979
Bi 10.512860100240895 5.7332321038473895 4.139315162884671
Bi 5.847209788530155 6.086556791767344 9.72411611252907
Bi 11.643260386289352 8.620251279480835 3.8943487848922156
Bi 10.151168821399056 10.980505648878076 7.715349530139544
Bi 8.768423529932596 1.5441654630532298 8.25639328412894
Bi 6.453707078105837 7.749768496014517 12.295734956202
Bi 6.577334327836822 11.49798546700643 10.090345776650828
Bi 11.182879550141816 2.463688764987384 3.5979416113076788
Bi 6.610182508041703 4.919087301060987 13.39595415837378
Bi 7.891187483634363 3.9589629647269557 10.764082661329807
Bi 12.359770241103611 4.879608188911871 6.544107577336068
Bi 8.239136456768708 9.042740810393326 9.123489359482408
Bi 12.1877584331663 7.805789444739785 7.015498729879687
Bi 10.424365536602172 5.63752979274041 10.821528165632673
Bi 9.397086532920483 8.327770919762283 11.854964346057876
