5
Energy = -16.11508897 eV
Bi 9.066263353441373 7.1133745212142205 8.18113458682992
Bi 6.955306580973089 5.248347073663356 7.08773939293451
Bi 6.587838915147345 5.913383184306776 4.1723883750755375
Bi 6.408195310532708 8.162546400726635 8.422693405225969
Bi 4.780002677604821 7.306743703278581 5.936847139121469
