50
Energy = -182.74408634 eV
Bi 13.04137780956962 6.117309885117264 6.031482845773699
Bi 12.2281724089162 6.1094193824668235 3.1136951427411725
Bi 11.731608580313646 8.88086601066641 6.390213536889157
Bi 9.458556400452553 0.01020661843465107 4.871039887422978
Bi 10.826854239431084 10.218385839389844 10.224255994999176
Bi 10.73312356022042 4.234539017540874 6.823303814489082
Bi 12.1708198301861 5.471992994371823 10.846443091160419
Bi 11.035156450550387 2.5460182132586806 4.293239071128128
Bi 10.675434471753414 3.078419145299328 9.698301218639138
Bi 8.205064308214276 10.337344147012207 11.852699908990674
Bi 10.2544993092085 7.330030227926699 9.303800212177723
Bi 11.840917591363455 9.11790696470627 3.3121728097808005
Bi 9.9288014917734 6.886614558494312 12.337799814680304
Bi 8.07178319022598 5.55284828335314 5.92472192835227
Bi 9.372293457805789 4.902762786724848 3.2546994231866586
Bi 8.571404280738305 8.873442940710616 6.4893601937825265
Bi 7.232806920014055 13.773470667047372 2.813821515392824
Bi 7.26016238465495 5.396096135021824 12.231082638189084
Bi 6.57541248338733 0.0341295682691329 5.790360954733394
Bi 7.980171632562699 4.4631358578286076 9.393407572021102
Bi 7.064772362569769 11.943749913263034 9.453733626927036
Bi 5.71468331513143 2.958101268547684 6.17512946455696
Bi 6.394639428495888 1.86050852168282 8.989059890162226
Bi 6.704104959180343 2.7492941432972526 2.579655337690411
Bi 6.735690993943625 7.995594848426466 10.560028882892444
Bi 5.315676210958612 3.1150615400924986 13.898527519208264
Bi 3.660816930801863 2.4160988754106913 2.3454012413297196
Bi 9.59072624142676 11.594604936532344 7.7596349264663
Bi 4.306440872077787 3.3152584348491643 10.649751131306594
Bi 2.6864537565255393 2.2298262889317497 6.070397537270501
Bi 4.339882371833506 5.6718916898408835 8.678773157613419
Bi 6.533053513665065 9.016348567348148 2.1111899861398435
Bi 5.8497131497045185 6.339985540779927 3.461280657465903
Bi 6.882680085111302 12.730782735010983 5.292557735238137
Bi 5.0764236193217425 9.964086423342783 8.156850554883933
Bi 8.92932676514369 10.070920161476044 3.6946263856424943
Bi 2.422802830662935 7.152137466338753 10.470818878768029
Bi 4.1401191509454645 9.61985135233572 11.04926145219909
Bi 3.795493912631254 5.286315214755862 1.4032491577557955
Bi 4.5242766709986295 12.92422115022367 7.25289339306052
Bi 1.6784182030837567 4.782254387035387 4.645107255183816
Bi 2.0189955976161964 3.7030028958270282 8.646346814278662
Bi 5.18812896002068 10.214016657165752 4.582658583357926
Bi 4.06145502457626 12.99819229310885 4.1998183442046
Bi 3.586496584018812 6.951657252356446 5.543320790071877
Bi 0.2583842705375138 8.071812152263549 8.529760373476865
Bi 0.641243476101924 10.136696240645257 6.300689508367012
Bi 13.591466685986868 5.735155066504379 6.717441009021774
Bi 1.8550289116242276 8.837931289099847 3.880260019186818
Bi 13.04137780956962 8.024094386868601 4.734764481940216
