50
Energy = -183.04285236 eV
Bi 1.0294074871423804 11.03151549471048 8.158257640503473
Bi 14.916779008410598 8.430660220411971 7.547361225942302
Bi 3.710237294525748 14.173094626181884 4.392346441088565
Bi 1.2794737461308594 8.606122670160838 9.979025491775095
Bi 5.136734330192501 12.785005087667061 6.71337567531076
Bi 1.9248767753016278 11.690284257172554 4.091365194128475
Bi 0.800913666292456 7.911791671458597 4.574790966502936
Bi 15.319258928204459 4.669026352679971 8.383011551744291
Bi 14.988529864401153 5.148321479554264 3.87558154615379
Bi 3.406707290609129 10.282942274925837 6.371898102942725
Bi 6.497162111694676 13.060457630124107 4.019064998637328
Bi 3.7119128071342957 7.064767047569177 8.44452223268589
Bi 3.1928961369495763 10.08865633423227 1.839929309190223
Bi 6.655202785000538 6.6663392899396605 9.189540303423298
Bi 6.1031232660321395 10.99825715860036 1.8411660388521656
Bi 2.3502866927311277 5.059312020739575 10.322200750334027
Bi 3.7964933414393323 7.805165134250968 3.7553890017112774
Bi 7.674798203989588 8.566584498268014 2.871438856201919
Bi 1.0280111109460515 1.8185530540545434 7.955019794692139
Bi 9.683127781047194 9.043105880752982 6.746545835497029
Bi 6.742119893268708 8.63612831020328 5.775105832330738
Bi 9.601619408596884 10.612348930960056 4.1040164965906065
Bi 3.8003035056053873 6.0103141348824085 1.2832128257033886
Bi 5.922356060275778 5.713697749640416 6.386508767422476
Bi 1.369589000730825 4.160807769898203 1.5707504775882446
Bi 1.8627992011244383 5.224446470841621 6.04856268139714
Bi 0.6530089067719258 0.7643701464609746 5.10487343934806
Bi 3.891905565176912 2.477030349295301 7.065834947865631
Bi 6.740182627884676 3.9430445532096283 10.620906062115631
Bi 5.657168941380605 2.6109444556069876 0.5499782975807024
Bi 7.684621482035728 4.908737215343242 0.5302567580040719
Bi 9.327120118675234 5.332298001757194 5.621388979954404
Bi 4.090248321737453 2.5208836308357028 10.139405887218894
Bi 10.864691940251932 6.116139269592784 3.1269482541989
Bi 11.812580877733486 8.605270054027987 4.625946714384011
Bi 6.741010578071924 1.234197451401939 4.269482638069467
Bi 7.5652426685452525 2.7416496774782044 7.947335752416207
Bi 5.916185997299459 4.482271357384713 2.956118630108217
Bi 3.261668892211422 14.820570397127554 6.099416895172829
Bi 2.8068054372516746 2.5054902972716846 3.7250863625363775
Bi 9.911607420890885 2.9197732763608086 1.276008940399506
Bi 10.540261436275765 2.093568899828755 8.391365762563984
Bi 9.74163195810299 14.670176640233016 9.434554107551138
Bi 7.8557439537520874 0.6532272230979406 1.4731703529024123
Bi 6.780926980695586 15.198133582212732 8.736811839242263
Bi 4.245720106017637 15.14347849554581 3.2144936943791613
Bi 9.996384946166955 2.5512349277963318 4.327728172997043
Bi 12.24261607486445 4.4339938885385335 5.243617510929626
Bi 7.662805854236461 14.173094626181884 6.002954045356001
Bi 10.55908442041699 15.060373493324406 6.4711894887780534
