50
Energy = -182.32357953 eV
Bi 13.779477018264108 7.888338268439856 7.233589665231869
Bi 3.34506765653461 11.108691944879798 8.438432648319814
Bi 1.8516195052643973 11.180084803243721 5.757432262918059
Bi 1.6006701291140835 8.821080157162207 9.66874492649916
Bi 5.859905944550428 9.738955263603863 10.920338124140871
Bi 4.18856720190649 6.598862312543855 12.395491938572299
Bi 1.4573323628624582 4.5985801637873305 10.413394655059435
Bi 1.1298340163291607 7.887682948987883 2.820016573189706
Bi 7.974092077098931 10.77273031455241 8.993570543198281
Bi 3.9114771710593637 11.642998861997237 3.5342011801697795
Bi 2.406128161395121 8.24539784537582 5.529057848820205
Bi 13.360516030363945 4.8546766344113905 6.74220780115462
Bi 5.62025711725836 9.11339499582861 7.902530070147345
Bi 7.812762624853287 11.41748689166356 4.031682547360688
Bi 7.171639159382204 7.277752005544961 12.174500720403236
Bi 9.89104358361194 8.383124013777055 9.1646064525137
Bi 2.7653618297594833 9.805253150828552 1.397593853530762
Bi 3.7333325618059856 3.558425982312165 12.218235688933612
Bi 3.587563836825166 6.541890015306455 9.428723029922532
Bi 1.7075852974145032 2.980807293681613 7.847025529279646
Bi 1.3934857103490264 4.777211472748222 4.26814466067102
Bi 9.021637356922414 8.364440200866698 6.255599097771659
Bi 10.616313656594212 10.434131184518968 4.7334233165696125
Bi 6.744873004950044 10.848779049064182 1.229154334750152
Bi 5.74736810752516 9.20384760204621 3.600351843862463
Bi 3.837628315330516 4.358172472778018 6.088833287684334
Bi 9.779631126669475 4.169843432323996 9.718432317583906
Bi 5.571614819059548 3.1386027168977693 9.844053047887433
Bi 8.010218245091368 2.3210043614073825 11.425507564109731
Bi 8.685931678848764 6.947490848460069 2.472028241527168
Bi 7.642232478899013 6.30801861618279 9.351499514432238
Bi 2.811831791322014 1.9906682247449927 4.485708362321746
Bi 9.202215484550353 9.196367239239533 0.5289601736946142
Bi 4.356073238928555 0.5069806270622466 8.815483851932083
Bi 8.184140225329553 7.0698997575956755 12.395491938572299
Bi 5.692305865505005 5.607872655406095 13.458892126728106
Bi 11.173692798298225 7.468968243295587 4.128004374329974
Bi 9.044686787311823 0.8657992336418644 8.957210680516456
Bi 5.270803566532052 5.4175251495120165 2.7021114941991025
Bi 5.658574746270923 0.6789453099176654 6.068485723531693
Bi 7.7861436542089 2.940749164277846 7.092266949210889
Bi 3.9119184061420675 2.8625568354120348 1.7585859657132132
Bi 10.346836096799047 4.633344873522134 5.8267677652542424
Bi 6.796920489509589 12.651074247534364 8.208342376312164
Bi 10.003191328741421 5.269134141020501 0.28531494805469454
Bi 12.397018665119093 2.4231115400900487 5.476353988085581
Bi 7.693118876975599 3.275164397072968 13.702376282112946
Bi 10.560824659247787 3.1250128236022023 3.1597961324389
Bi 6.794256869743836 2.744432478092495 2.768775241801981
Bi 9.63407535492377 1.1489402082817226 5.3109404546000345
