5
Energy = -14.38048152 eV
Bi 3.94623194352631 9.588079133732455 7.222360229208211
Bi 6.7102350820693735 9.21577350982553 7.678958697619997
Bi 8.764471974953448 5.949537756798193 6.342544482645492
Bi 11.127750635153811 6.352438609463423 7.781546446170747
Bi 6.5725700151857245 6.332299226272818 8.347935767470593
