54
Energy = -196.85880468 eV
Bi 11.778228718964964 6.932846865388807 4.249673012015388
Bi 9.83548358464348 9.789551291128735 2.290335834717636
Bi 11.219252914303487 8.280584367209027 14.951073557872894
Bi 12.646730183580884 7.272085540369053 7.179544427998001
Bi 11.733805251042238 3.8881740470948 4.825485820334538
Bi 8.651655440543786 8.452435322993233 6.775570249440352
Bi 12.51683485765266 4.083177982473173 7.805301955388773
Bi 10.94278297134408 2.9913329267492443 11.385869215976616
Bi 10.561124893960123 8.161615650894953 9.098641751356976
Bi 7.625558811816627 10.722699203874436 0.4067387194585233
Bi 8.753787035183532 4.079680526639773 5.305100349665422
Bi 10.105464320428636 5.574660632061781 0.982083416960147
Bi 8.783626144100566 7.097642466997119 3.3242822445191393
Bi 8.74302150190008 1.020514715304567 5.454493399729673
Bi 8.969774246662308 6.957985885918356 13.434492337844055
Bi 6.945972450658168 10.32693708778218 4.32052508516278
Bi 8.886379026808648 2.4545106644159036 2.7111762175715377
Bi 7.042130737959106 11.149719608629203 7.256229035474885
Bi 10.975116286389547 1.4526018143237869 8.766275912143414
Bi 9.85810200817576 4.96330138537249 9.11258847602223
Bi 7.292027035906144 4.613697968668755 12.305035394142605
Bi 6.577693299764911 6.245497307623711 7.4270266939223095
Bi 8.19371673133426 1.7528309087737506 11.809867420027478
Bi 8.07705877909178 2.3036426769923057 8.756500469825227
Bi 6.3446788900413535 8.256219869044005 14.275131865271597
Bi 6.822890681370443 8.18281810286372 9.745294682006865
Bi 6.166694284447931 5.684138461922152 0.9854391833060997
Bi 4.369344481146882 8.935170475452749 3.3555782639845577
Bi 5.27523843004851 4.715939017789768 10.011778956169895
Bi 4.611521623527631 10.082613569836045 8.709885453919059
Bi 4.327367360597715 7.235757411032698 11.588763072213357
Bi 4.397861804876034 4.690569603604878 13.434492337844059
Bi 5.785737432215527 2.481087770970476 2.446631475587343
Bi 5.2542996594417435 11.62735654211711 2.165690995222287
Bi 5.98061318880306 0.16173785121435308 4.434857814473247
Bi 5.252045704929223 5.2068141064507225 3.886573541442989
Bi 3.388246664351751 2.6937325781247545 11.38500224365967
Bi 3.5557955160400394 7.826574156296845 6.956853171360798
Bi 2.4470768724983873 10.976281781789949 4.55056017945522
Bi 1.0484748467563407 7.116560661477533 1.359732057906764
Bi 3.2111373757425166 4.958830701157509 1.6553802191568803
Bi 3.6290248085025305 0.4821562582577817 6.3253347905866635
Bi 3.481890960265542 3.5011292641210083 6.8181376332477655
Bi 0.6700960799416105 6.017969483547412 5.538040977023561
Bi 0.9852114296712291 4.34724037771842 10.529514737899097
Bi 2.580815361791743 2.3922063080111955 4.126870449718904
Bi 2.0002393401515293 7.127756144223725 9.569062308984932
Bi 0.17656337575620187 9.520106923314469 3.092129613263228
Bi 1.3082532960806943 10.030829979120067 7.250722282630733
Bi 0.9600035359006056 2.4285296219755717 8.16221736279877
Bi 14.02809416730086 5.514938907212858 3.0541027012450495
Bi 13.73805033351613 3.8532402662647773 6.584829574614592
Bi 14.461033844212693 2.541092243996924 3.9399429277152196
Bi 13.999242348461982 8.532498180175066 5.775560181582137
