54
Energy = -197.09660602 eV
Bi 8.941160425758433 1.2489244799944799 2.4300274203175016
Bi 6.116976829269198 14.708042463878812 4.7503284253574085
Bi 3.8446243105673394 0.22710333562407647 2.7715668805241
Bi 9.705576253382674 0.8461361358156665 5.467866036525294
Bi 6.100124831396362 1.5038520906293458 1.1614818775207447
Bi 8.155282519017664 14.679135069102228 8.002902628007268
Bi 7.562079634668724 5.244335193478878 0.05200387817441045
Bi 11.470128491631062 3.551979258624923 3.4617160599259
Bi 5.175025952042197 0.37772544289594884 7.636161084634539
Bi 11.974974074846187 3.2400752233531414 7.767734408004016
Bi 13.870876317519151 3.7708048240034855 5.409142304121761
Bi 7.293560770223472 3.8294726576924276 2.76551481858715
Bi 2.910252611770221 2.593281150942026 4.578093772444441
Bi 8.924803947775034 2.542964864442779 9.384852351603511
Bi 5.70362971910834 2.810322472529263 5.860415302166882
Bi 5.562783647110053 7.568653978602417 0.8594649595094156
Bi 3.7911529118734646 4.365140546668547 2.251949425576304
Bi 7.294327460527615 2.3370053045542574 11.961255485926811
Bi 11.698020233041033 6.538315928666681 2.6900310607001976
Bi 8.597014621490901 7.986332672996227 0.8084087442099166
Bi 12.350692753590565 5.8969560306718245 9.228220651702948
Bi 9.582436780340824 3.8489017345752004 5.862179748905088
Bi 9.018820452275195 7.559868519166037 3.790851880332727
Bi 11.006353162390411 7.092236387123825 6.754904524202105
Bi 10.265788202368418 6.350710669695153 11.43149704345807
Bi 2.5670067870460076 10.020322037791864 1.726114730542593
Bi 13.555084895187344 6.824906212262252 5.134092241069354
Bi 6.099260243980678 3.6706288311579747 9.510315757633366
Bi 2.4243460441116604 4.2097826505371305 9.57308550807597
Bi 3.7974087943988923 5.4994095598927775 7.144956524096614
Bi 10.371286966682804 10.301691135013805 3.7916144219342733
Bi 2.230329993435818 6.987773053154592 3.053177837542218
Bi 9.60757313149574 8.743030212359002 9.634359043154175
Bi 5.150390923272722 6.691951094636848 3.7577050844515747
Bi 7.339723649178669 5.3635371391962074 11.752757047503476
Bi 1.2482762888483343 5.474723871835793 5.598786690757667
Bi 5.070946305979799 10.570596463389831 3.0851200004763513
Bi 7.463754172592032 7.216715946592024 8.116108842968258
Bi 3.636392767222606 6.394240907763688 11.32963160099759
Bi 11.889646043197805 10.002638387850249 6.4334562878611035
Bi 3.543148578671016 8.413313416384524 8.948250786298692
Bi 6.620322601403006 9.561220213358114 9.864810933402614
Bi 0.8651238691331047 11.292085827399612 4.28139331271836
Bi 0.7103269808540991 7.9269173702543965 7.597139965074865
Bi 14.583812804977487 5.86096988975585 9.59349554734455
Bi 3.20869539402871 9.767573737211704 5.539622037873832
Bi 9.295588858457432 11.572614558092805 6.342883805331569
Bi 3.4598620376391653 12.790003831091282 4.848443763461016
Bi 6.7906232687501396 9.902706869877788 6.804816152553947
Bi 0.7903294533878581 7.352009447667363 12.07178104707478
Bi 13.87087631751915 10.214377493311819 8.910657864315455
Bi 1.4334664518558187 10.048127046441016 10.746470025876198
Bi 0.3837594478672638 12.48240551634471 7.3456773885845825
Bi 3.2755168955828324 11.929335570857358 7.882883287184541
