54
Energy = -196.03080254 eV
Bi 7.870000332061701 4.103066471213461 13.383575808779984
Bi 4.417416717687093 16.233618223229964 8.38672451615185
Bi 10.887174494576595 1.457944075129308 7.079053056731204
Bi 12.688584592840812 8.603493449069664 10.352495737062744
Bi 7.465159227040385 3.407504290737231 9.505378194303576
Bi 11.209914090622105 11.762804346512942 4.7921239197605106
Bi 12.818834096558904 7.549978706185268 6.460860721711889
Bi 10.896820789642213 8.958140796887118 3.5885336865745616
Bi 9.331968094548474 1.333170508867691 11.024808648649637
Bi 3.9022086692199074 10.474653774488733 10.260230880966462
Bi 1.9996695621082319 3.4516751690699743 6.59690484350801
Bi 13.226537757392107 10.556156998130717 6.804093006114937
Bi 6.863344207756755 2.1520675333254733 6.697357144598625
Bi 15.049557569520434 8.958591970367394 4.987079520001932
Bi 7.1073537590774585 8.90119857090613 12.895427937366188
Bi 5.10287259990295 4.653423823072651 12.252402405674985
Bi 5.94607818932455 5.966046294008522 14.822105553570205
Bi 3.2845103947163703 12.416087872018863 3.9187506284974147
Bi 15.983811358100569 7.1478398708190864 11.75338176067696
Bi 6.726834129101199 11.751013177614674 6.829672246573739
Bi 3.722267441720363 9.446267914629683 3.314870007743807
Bi 13.287296936366584 7.646824454595423 13.201968029871065
Bi 5.414406636576903 2.9697611036133855 14.748358908793731
Bi 2.169990333138835 9.231008551324477 8.089290918144311
Bi 6.469176642612811 6.416010992505093 9.090316486609634
Bi 3.5171383330520265 11.898122676328972 7.560270003071631
Bi 9.008803683241196 6.853905805316174 4.741902903246639
Bi 3.6479210397065422 15.618827543106947 5.509449036058043
Bi 9.71753927967908 12.363143434778516 7.367411244117603
Bi 12.54708452914708 4.717591675564197 12.56833958212901
Bi 3.49983437536107 3.8185675339983676 4.035488409057899
Bi 7.112647945176414 8.246722134302216 6.7568235291315455
Bi 6.97662327909827 10.841407179466891 10.516031551477043
Bi 11.971556693807015 5.08764253663642 9.624672919667336
Bi 8.851312834988288 6.9912933859473885 11.307203202627205
Bi 10.145677611813761 9.272878179249846 13.21337223140784
Bi 6.590440928657205 10.329998122294707 3.672487612137073
Bi 1.572679518649788 5.932467262420141 4.906228038953353
Bi 6.40342582503408 14.249649066659876 5.059711815678845
Bi 3.8614209109563338 7.826428536090759 5.942844773202863
Bi 9.17327730269143 9.209234981619778 9.096995771319882
Bi 9.189850371824463 4.0611242560768295 7.091037248468241
Bi 5.723727758648095 12.91926512554738 2.2840346732465258
Bi 15.565596839200946 9.465271629391971 9.802164836309801
Bi 8.698745738271121 15.291647060976224 7.071088728778127
Bi 14.828840258727665 4.564029135828005 10.524925239360588
Bi 6.622561859474847 14.15563797587099 8.923054462478666
Bi 12.056681950744087 2.0023223971232067 9.86321732782636
Bi 4.828641810081725 4.612308785285429 6.745481510804854
Bi 10.944011751273438 11.066442436994139 10.938816003082042
Bi 8.317607265749128 8.322682258443972 2.1379998662064312
Bi 8.644149966401628 16.233618223229964 8.447523890532915
Bi 15.678463285978912 7.429354610231514 7.552504136838632
Bi 1.9770735649860445 14.52306663482632 7.807800607780481
