53
Energy = -193.49291828 eV
Bi 7.9303833364047795 2.7257083867967964 13.220071859797512
Bi 8.357030428973314 1.4447295308603438 1.6230090368408836
Bi 5.650838783960747 0.46028718739775537 4.51628398567355
Bi 5.558530024499263 1.9525279008793646 0.5548025236844198
Bi 11.417423412877561 4.3380717361710515 3.498442032265875
Bi 7.841856335988786 7.995069044670002 2.1541005052456965
Bi 9.180252035866866 1.062685161821759 5.21021161837554
Bi 12.152820800800697 1.9173910561160958 5.179750153319736
Bi 6.493643669457135 8.693571735171982 13.80216521459682
Bi 4.837538485675376 6.262763413887992 12.848070311380587
Bi 6.586062140574728 4.848694495185199 0.5601711924338753
Bi 7.212714819525775 10.942863911002725 2.3889407157719336
Bi 11.609995955844422 5.948554306913996 6.062808830815
Bi 5.441045496155625 3.1901899107928107 5.903077363695186
Bi 10.42493972205561 8.590062742631371 5.046329053393374
Bi 2.867517021774977 7.4748023245830435 0.4944873561445827
Bi 3.041861994937768 2.1155129063251725 4.021776751066139
Bi 4.226285136908769 0.7676233201565416 7.20940342031364
Bi 8.426486566095985 3.666068755905916 3.7599402432399476
Bi 0.8148322163997463 2.3224275224539315 1.6908788304781526
Bi 4.582265650359931 10.616461643972505 0.848170659321593
Bi 7.578859488646015 8.110668398403993 6.12387530723678
Bi 5.494133776960695 7.165916356328961 3.967485735125969
Bi 8.392922792772382 2.060845632352544 10.991041196462476
Bi 3.393704375280034 5.147511209711669 2.355226595641665
Bi 10.452049575383658 2.2206741574270037 7.720919985827893
Bi 10.74338420992881 5.872590073830046 9.803845519875157
Bi 9.099632954890978 4.910523523888329 7.427983858414283
Bi 0.44648289547889997 5.3846698674875695 1.2280676564924589
Bi 7.7187717509692115 11.11727464544173 5.896843405708584
Bi 4.022809282811719 9.804894283426389 3.775936197937558
Bi 1.0613417369198113 8.898538372585142 3.6457826436522858
Bi 3.0952292362917837 5.56907551289358 7.381365876564956
Bi 9.265916827931598 4.717276937361595 12.202521979516307
Bi 5.949798361978559 2.4521392462402294 12.848070311380585
Bi 3.865943859479169 9.488273155263098 7.318909057382485
Bi 10.236311418585046 10.229230394151909 7.631410251830062
Bi 6.28813755493668 3.6080697646086786 9.337174291688806
Bi 1.1228460964106521 1.2178894525757287 6.296500128347871
Bi 13.751010967777885 2.906748182299863 4.203037203710973
Bi 6.526682536594927 7.907528170930696 9.32107422928505
Bi 0.8894407698390547 9.801778311789947 6.538944459772956
Bi 9.412622207065382 8.605396032809686 10.126495961563789
Bi 1.067054923347849 5.851534300683734 4.261277743281082
Bi 4.058352237028284 1.815898516590299 10.454444712838692
Bi 5.341297228408882 12.116358312805865 7.610850764741799
Bi 0.8726325133189641 7.429995231401324 8.50082027703726
Bi 6.6700129533628845 10.863484599244439 10.059565276489103
Bi 6.263345539924543 5.401576402668557 11.889370694561356
Bi 0.6228323236737399 3.836715726062529 7.84918468443342
Bi 2.4966094046667457 4.4396768118526735 10.199600692566609
Bi 2.4174223211906014 9.664998192416737 9.973545277690564
Bi 4.837210890372931 8.98607187488159 11.701475260795853
