51
Energy = -185.82553544 eV
Bi 7.375170511283417 4.758795436435923 13.206162773154329
Bi 6.98536886114853 1.4754455922968757 9.570520868908636
Bi 8.961341520332388 2.8055340807013374 11.472559384008449
Bi 6.845550224097466 7.3115141982060745 11.582500811894658
Bi 11.633753702526217 5.509091288475145 11.446799325603537
Bi 4.955270396430734 4.138241969708812 10.074872608657442
Bi 5.532347548795845 0.3370202164487549 6.217267965803479
Bi 9.504628221149172 6.972348311001712 13.05548357310725
Bi 9.516929654876881 0.3310138111681581 7.976279397046263
Bi 2.914536988863613 3.1982559862282547 7.990087788841166
Bi 9.567261764952365 4.7498093038854625 9.213843716985519
Bi 11.375480238350312 2.747670969680106 7.753369240995722
Bi 6.424299271397297 6.348611040218019 8.713598648970237
Bi 6.71449681015564 10.935284669556022 10.381977080605619
Bi 12.903390093325923 8.102728504961492 10.438987307053821
Bi 3.7673435992255926 1.6002404567862705 4.039978849438239
Bi 1.627437098054539 5.6423869701012626 9.28861050248103
Bi 8.338099166934892 0.9851617865401366 5.243956536633786
Bi 3.6397368805361956 7.938577268729111 9.507113768270909
Bi 3.7588886581974448 4.367951743056687 5.303691986861968
Bi 12.277766523342827 6.381219597525316 7.949516561546114
Bi 8.309135178091656 4.91106512759283 4.289717090854681
Bi 11.089483813868721 3.7142418240680617 4.8089170023447645
Bi 6.7431677253959625 3.036891434385443 6.929898618536285
Bi 9.40777065640928 11.798982059289834 11.502757832046367
Bi 9.845318283591416 7.767154654417054 6.646349386119286
Bi 12.049293150904896 6.636077625193855 4.840614453552221
Bi 7.162697177766053 10.838248824255967 7.1871666278563096
Bi 10.133812325490302 9.274128121195817 9.898976780514607
Bi 11.324698621008027 11.944047457976268 9.154822931258556
Bi 8.384696018285078 2.8900362890066913 1.9978664855480568
Bi 1.1849144390918065 4.480671594839159 3.652390953448752
Bi 0.9797385041106944 9.547602769151656 8.517415473889143
Bi 9.037446323535136 7.029204867431694 2.1623661497171396
Bi 2.1853577358591547 7.185418279513736 2.6108271033996155
Bi 12.903390093325926 7.0941819381318805 7.489702485084204
Bi 10.83734984897497 10.195564776458754 5.038620060043816
Bi 6.005076556466537 13.288638684053858 8.578419302858778
Bi 4.8336923338669715 7.506798550370693 4.148210269959334
Bi 3.4623052248636452 9.44451989772888 6.796343606505316
Bi 6.305005243974809 4.240297886143393 0.23230939889849972
Bi 5.603165034150587 1.6536339926189403 1.651422911713643
Bi 3.22055750390526 12.34012157780695 7.7552045332858865
Bi 8.08747448315508 9.278437424389494 3.9875290965178065
Bi 6.079164387382575 7.0756294633737715 1.3579154833871054
Bi 9.652172578446027 12.50550439278591 6.6835014491420655
Bi 13.090027953050459 7.033874675129592 4.464263400090983
Bi 6.625015769397373 12.990889634477462 4.793299559157746
Bi 3.6074183739491543 12.74716290005032 4.719945766540792
Bi 4.039138998507936 10.261045725465342 2.87527462759242
Bi 6.813935464218059 11.377284151555067 2.1774049032647116
