50
Energy = -182.28894732 eV
Bi 1.3854475468187486 7.558868948234028 11.611895318803398
Bi 0.993240295315935 3.2981450997436896 9.723656129981968
Bi 2.98818854235688 2.2473146590782354 7.712987104530382
Bi 3.3703059830231368 8.918202688564916 9.707344525278543
Bi 4.386043688875458 6.630324166928907 0.4744157580551967
Bi 1.1129162860381434 7.394923257579369 3.9060754918581897
Bi 3.0177060991278575 4.97647819986216 11.341173968822359
Bi 7.153632205680821 4.15716609049212 3.267875560675661
Bi 5.431122860835475 2.966222865075469 9.132024601577356
Bi 7.356054563781183 4.122581055631815 0.20240099736157188
Bi 3.991615078534324 8.81549816376502 12.670372800293217
Bi 5.859174275850021 7.724296812790345 2.908075061702201
Bi 7.075339433477588 8.71722990137541 9.727166173455618
Bi 5.734872839710953 12.031401086412886 10.206967310857753
Bi 9.451101062901111 2.1380898761501586 3.5560765855197602
Bi 10.263880525920875 3.4859642303026703 0.9218452613655088
Bi 8.422550416493952 5.100793966882512 6.839320551166545
Bi 8.965431653388496 6.1638990219787 1.7366899676861955
Bi 4.767803189062363 10.555872911182497 3.211404632942691
Bi 3.8071470744138374 3.9406022461907364 4.614036458871988
Bi 11.172097842195301 11.208979965060701 4.867378557594871
Bi 13.793753793055847 9.710343500097698 4.759008633437664
Bi 12.026630556086708 2.8314403813464684 7.314531761353042
Bi 3.4310414212531466 3.953498336842683 1.5512688455503045
Bi 10.827692580584412 4.41759816361609 5.007401782989569
Bi 1.4455430077972249 6.20558646592029 1.1501617623377416
Bi 9.040392580465502 8.959049649800924 4.684843907967981
Bi 7.329617983664437 2.268970088891601 6.819646281969766
Bi 9.971913278507465 9.041640954719975 8.672782901410798
Bi 13.692382971845605 9.162773900240092 8.699095566322004
Bi 0.8479685157472535 4.63323031602047 5.176385289503017
Bi 6.758121976413776 8.10690405207203 6.671421839219997
Bi 7.416072200979823 11.570894258572176 4.329040207377544
Bi 9.416917265877501 3.052680061674219 8.928086539576542
Bi 12.195743909543319 7.59108504233697 6.532034767587317
Bi 13.390447706005185 5.3978487552103855 8.339773290879684
Bi 7.6349868566620405 14.424830724531079 10.382553797509235
Bi 8.153053575805869 12.26352707649641 8.316087836727512
Bi 4.260706497592312 6.058356545845664 8.696982054332837
Bi 3.902357828460802 6.959906055755004 5.10402822717293
Bi 5.188222091577747 10.744044538101104 6.252365426034535
Bi 13.288899931642426 11.674834693573999 6.999132640112493
Bi 10.934427190208552 6.314383700844081 9.95252653794978
Bi 7.502208789592525 5.89672950610662 10.868358840022227
Bi 7.328101893072122 10.887014414071748 12.620319483207721
Bi 1.2432952308203031 5.799739249678808 8.01647193189597
Bi 8.314647329078854 7.949546395960494 13.035094499468416
Bi 11.779323453103878 9.018049905410837 11.13434201166297
Bi 9.634310697818922 12.142297396252225 11.023963129563473
Bi 5.680115399534048 6.365561977410482 13.313446123287074
