53
Energy = -192.47673837 eV
Bi 13.304778044787733 5.003208486954864 3.5942708857239576
Bi 12.704071418973474 10.611150753095847 4.542850504491307
Bi 12.762471727343389 5.894401073275495 6.540899501063447
Bi 11.742597049622146 2.5309118056155513 4.261113148736265
Bi 11.248769333229285 7.012879759108784 9.457979163749515
Bi 12.593092842539926 8.905068242255378 7.175415701664246
Bi 10.580655239849225 9.300520047660484 2.811788133754889
Bi 10.277816637178177 3.98195029680069 6.847120339990345
Bi 9.7661209146999 7.4101028929567905 5.107249525511656
Bi 10.772742402096675 6.217106513964619 2.4565549533560467
Bi 10.623423714168238 12.526706046137775 5.668361644213799
Bi 9.103264285686787 1.1876471505363495 8.617189868959226
Bi 7.917385590453217 0.4869747878146631 4.240312461464755
Bi 9.209895910407884 4.391224597069277 10.836199155324895
Bi 8.84598179857505 3.4874882879244544 4.10532459623271
Bi 8.515254476005122 6.236018054054226 8.483149488924555
Bi 8.825632532579322 8.629390858436604 11.004844782154224
Bi 8.490267405164438 6.393608535912411 13.059249499293944
Bi 6.212745931831463 3.752711473033926 1.5406391689495302
Bi 6.79448945967758 13.99902290733241 7.021686369859504
Bi 9.832127034134004 10.407553397343328 7.770128949787756
Bi 8.232800967124076 10.686748103300816 5.131265185035745
Bi 7.042530123608246 2.1623945191220995 10.66625794001813
Bi 7.497822243700107 7.96899067767757 0.712667856943412
Bi 6.750567356036206 2.938710890496637 7.743930941978108
Bi 7.152784480680387 6.70307633354302 3.486401053194434
Bi 7.622394685128545 11.000267062253567 12.64920161276811
Bi 5.472019622901941 6.382076489976556 13.03382784098907
Bi 4.863828659426496 0.9436179299635261 4.151274136738938
Bi 3.9075679989235685 1.7234163922973096 1.3190423969665246
Bi 5.918336410118212 8.971330800895844 9.343815630046285
Bi 5.0976130337754535 3.9938715652101435 4.389474929209362
Bi 7.273281460652686 11.711230997578864 9.623171530887921
Bi 5.188190011545403 9.396758980382781 13.527770850210983
Bi 4.8560522439464195 5.525949319762251 10.152138512545669
Bi 2.631421030965385 3.5321134650020882 7.3462468169446415
Bi 4.95312019013551 8.525746067087756 2.265174298786477
Bi 5.400921564520681 8.743919492579899 6.081770585750475
Bi 6.167671658834538 13.014784935902101 5.670934794525437
Bi 2.286666611311783 4.802022232445085 11.650753936130117
Bi 5.039977267321619 6.252149612554709 0.14705115842231975
Bi 0.6523710403838107 3.097183452392892 5.072321168551675
Bi 2.502128206561103 4.056392889146584 2.798338220807723
Bi 2.3286804452206242 7.334717095287034 9.969577347212432
Bi 3.0523983711452582 6.600369966696423 6.143596605900015
Bi 3.5606256665538347 9.992884919467327 11.04497080084188
Bi 3.160148413496536 10.54185790812697 7.713293036717013
Bi 4.790940334682913 13.046408828097231 8.380652905871809
Bi 0.5694993362315511 4.471328310181777 9.157425077580351
Bi 3.9714899250427984 11.066553454870284 4.765629931048324
Bi 1.6089471836151898 7.537634683465368 3.615388822929557
Bi 13.304778044787733 5.784396888080324 4.60127878772607
Bi 0.34415306355100483 7.945422022999317 6.412881724193907
