53
Energy = -193.30874875 eV
Bi 10.877088596408706 9.102402198621753 2.0115341791538013
Bi 10.556484752889906 6.124725102608944 1.207010387494157
Bi 8.415028040721701 3.2035504462180486 0.6680908041874641
Bi 12.331437255040674 8.108957921224299 4.452417301848353
Bi 7.45145174816263 7.703971281233449 0.253080943303037
Bi 10.859590851337227 2.1475146545344024 2.2501191212334417
Bi 9.51864477117632 11.694416554672394 4.890423934569399
Bi 7.970559247143837 10.0510375747446 2.5418446824151
Bi 12.5893460999697 4.58684850855373 2.8977552634296755
Bi 4.673230921222378 4.579748769870856 0.7475242767247968
Bi 10.258820205941685 5.831570972426734 4.36552351971096
Bi 8.340644006506428 8.279093764442916 6.738955043140995
Bi 7.37704263741434 0.9265250527897988 2.428125255018441
Bi 11.026120302755057 9.75806337598016 6.6602107827681465
Bi 4.550936940082223 7.563945076538462 14.29857228079955
Bi 8.935189621773763 2.5492618052962377 4.583605019367839
Bi 5.517401195977932 11.624126990107339 5.117091215720737
Bi 10.729190570446548 5.093010653573556 7.651836085841766
Bi 3.5467700636096313 9.482566367310426 2.2520335056395067
Bi 4.464980089068116 1.766456318613583 2.47022840418198
Bi 5.783959563343498 8.700872949496027 4.283028849153847
Bi 12.30977096395181 2.437922431466693 7.852768291224366
Bi 7.656716991638277 11.243762906949836 7.254556674567181
Bi 1.7747413404091892 4.553069295158598 1.8205738887988452
Bi 7.167775971795827 5.475699655291305 2.3799576872670043
Bi 7.468498651928013 7.372956315590776 9.60520788049311
Bi 10.639891384391557 0.5445047467595932 6.183521351038626
Bi 3.9970144008034274 8.829583682023713 8.125283661742955
Bi 8.214336950412909 3.5374718916779764 8.479108110029104
Bi 1.1332333328025914 7.536036250121053 2.481302810469442
Bi 3.488776626497789 6.051011639026133 4.446479878708027
Bi 3.1220307673999423 11.538107731163754 6.993799028377611
Bi 1.5465097957575726 10.452903880281287 4.638094946182474
Bi 9.92229411050663 1.0362716047415552 9.085115531493704
Bi 6.030990209733256 4.54291764541156 5.7550120086920895
Bi 9.600878552186948 5.349659718443329 10.505554404788398
Bi 7.8952953998436275 10.08790752374652 10.95497225453322
Bi 4.166828550600811 2.1370652355137656 5.424346582144038
Bi 4.67788849887196 5.412585274624167 8.41462403580746
Bi 1.0632563271838325 7.5983668316096935 5.595953419616564
Bi 1.5686965369828882 3.697549107696433 4.788368857222976
Bi 7.003403153949046 6.350414954556717 13.407460412288787
Bi 4.97237017893524 2.7578410493951138 9.97614485925071
Bi 4.948539020802591 10.635504873519128 10.427960655042614
Bi 3.2873207512634433 5.959222571975221 11.619597460965375
Bi 6.423862787907494 3.4684001964969 12.57878342558818
Bi 1.2091734200207958 9.228853963582573 9.336658149264743
Bi 1.7289898465303295 4.39772739236464 8.210112909825861
Bi 5.818559668924473 9.140775646815493 12.949307293085145
Bi 14.2156679230627 6.5722316275773505 9.0419065858256
Bi 2.1259809106475447 3.2436815497730977 11.022449049915119
Bi 4.428197504229941 4.97190123952848 14.29857228079955
Bi 0.6446253039400992 7.490289153673199 11.79018976371108
