54
Energy = -196.45760251 eV
Bi 14.432986865751506 5.113994830318384 5.313505556954752
Bi 12.634068525455694 2.976666825120367 1.671750076124875
Bi 7.9711440060252015 3.2302741437590474 3.333815489012872
Bi 1.7166135655192445 11.419625772458975 7.3907962394115625
Bi 7.658898383492307 9.091073508385312 8.261054330223871
Bi 7.873455027321977 13.262421404727279 9.784866696766988
Bi 4.654073864099458 11.757444896777017 8.226175143726465
Bi 6.256280681813565 14.214233144209564 7.353879786718481
Bi 8.592751967834669 5.644503146175436 0.5621980967083587
Bi 8.997467989206188 10.693474879579469 12.251972755968074
Bi 4.8874082305172974 6.610080371687586 2.1596022997812128
Bi 5.972351691552433 5.44381200575953 12.118593433315304
Bi 12.231361820832568 13.444591535974595 4.101348700386674
Bi 0.5771517160371304 7.315837602330609 4.4422670528755654
Bi 11.466621361207498 6.8210901051167045 11.27896042209247
Bi 4.800379865261162 8.85475835010463 10.475644763184793
Bi 6.7587981719984915 5.0662784989636656 8.633658782009809
Bi 11.421228522758614 5.363364416985877 8.612092089869424
Bi 2.3835154748254963 9.73671779636188 4.209599748631581
Bi 8.761261099342683 6.226496946239021 3.7422625621610504
Bi 12.024639682009138 5.925216806303367 1.7931639371831485
Bi 5.757910696149191 7.277943828884424 14.565254482947413
Bi 2.0069209369326217 5.669185031653655 2.2800954235049864
Bi 10.73822687393042 10.983732108099591 5.103371305590406
Bi 10.974006536679916 4.4673038049719676 13.149193830816547
Bi 6.07330058412892 11.478878418775135 11.589527015199767
Bi 11.824483072630048 8.101199168403395 4.968502692268591
Bi 11.649637187464743 4.143877576512117 4.2991523210967895
Bi 7.377588492395629 12.889794872605256 4.8882583405855735
Bi 14.2959333723919 7.399005397270392 3.3003335240153473
Bi 9.841637294085967 14.61897869785798 5.5668293114122624
Bi 2.471315945313405 12.955898977804438 9.946641724688437
Bi 6.732911136397702 2.8042557367209224 6.5124881479675105
Bi 1.012006412273862 8.472377305247216 1.7213864471811424
Bi 9.701288482538516 2.800871967659189 0.7698064056043966
Bi 6.049318057410931 3.998178841869306 1.0357112788581493
Bi 9.477985291712779 6.575259342328015 14.776964460981755
Bi 9.004494620421143 6.5384403105155915 7.157645447131559
Bi 3.5525703878414405 5.426713122248079 15.713588005151934
Bi 8.043092808990547 4.027311311385623 13.91690737176696
Bi 11.879041999626617 12.984989635047247 7.08316336299345
Bi 9.556587901220752 1.8903201986022244 7.311931323656599
Bi 7.204241257959281 0.5916076226321364 8.624696478371519
Bi 8.632052543084301 7.6884471237945755 12.02689638871575
Bi 1.9146648472485297 9.992569741180741 10.084447873922704
Bi 7.487255480355345 9.801149820620894 5.2693368005517325
Bi 4.694768765638575 8.65648841870014 5.937217195206383
Bi 3.466261133420578 8.81414675955708 13.246515153356643
Bi 8.554524578502495 2.9629716102320174 10.015387818804147
Bi 3.5456333446928876 3.8335201072158345 13.150514615162425
Bi 1.754698992440639 6.261625610765331 13.39843849024911
Bi 5.851828127753165 5.994382122397175 4.92580946048272
Bi 13.497205323073892 7.225105210856067 7.350423084469814
Bi 9.828646835803736 10.974622523508309 9.273917491121956
