50
Energy = -181.65943816 eV
Bi 0.6642510438161658 4.464326146353145 6.4284672920529795
Bi 1.4541921450694888 8.039288575387804 5.4812666828722225
Bi 4.369223076411452 9.421869928876744 3.701487244384922
Bi 2.45476222586968 11.035011739330443 5.535868836068777
Bi 0.01875912917771582 4.119497934071649 9.541508961591116
Bi 2.498119066834734 2.3458974320585457 3.103723560779337
Bi 6.728926048625943 14.846220052124634 4.7898810478861975
Bi 3.0795791862201733 5.322101822406097 3.6405719089563737
Bi 3.7558140240224485 4.384356221548532 6.617606220984564
Bi 5.203777599989765 12.94700838604874 6.654502361326177
Bi 6.47695531156643 11.447838280610492 2.7144661982283367
Bi 1.7576451804690099 1.911487492456646 7.92999382690969
Bi 1.6092922870502793 6.706386626740541 8.435506981141373
Bi 5.081943591769122 3.6034205291257586 2.0764203383849416
Bi 3.127358918391366 9.928464860211482 8.33923322180793
Bi 7.979787138196785 9.262476381245508 1.2245874321768226
Bi 4.344307419780369 7.796466986287342 6.438846149133983
Bi 7.041722879526913 10.507399715395444 6.383623271799545
Bi 7.090519010349427 6.9660845379199134 3.1140611441570805
Bi 2.804123907857283 3.2314813702035714 10.472643631377828
Bi 6.727515588305135 15.376395571037412 7.7669758946213525
Bi 9.327776322762642 10.702631815099087 3.5447198053746347
Bi 4.174689707556317 1.4073408260290243 5.540564561709673
Bi 9.296097107348691 14.577467294762373 6.379535224670169
Bi 6.5001706747735915 3.3925482379642933 4.791100509235219
Bi 11.45642638129134 6.256967999387783 1.2475953510262323
Bi 8.991376720185007 1.6246198066558362 4.759766078689055
Bi 4.579254008692471 5.7500650766179735 10.23222209396486
Bi 9.181936063295543 8.022879431289702 5.144627073557808
Bi 8.035389191064784 12.174916650709196 10.017990149013746
Bi 11.94865596220527 7.871581442606671 3.7433699286582187
Bi 8.913868858852098 4.754427827149196 2.0534733145690374
Bi 6.041159906717648 1.4454367882783583 8.58849297263336
Bi 9.622402118513863 11.734970884569698 7.470143246229886
Bi 6.052522705164758 9.967959924844285 9.317089429843119
Bi 5.710576385080358 4.27240639666685 12.795025342454565
Bi 6.800959312524964 4.425192583404074 8.46043034107932
Bi 8.648326522567537 7.608255581549494 8.934216838168178
Bi 8.96877880693059 1.0017400758154478 7.75391745426277
Bi 12.781399854484313 4.954005899822175 3.7076409361686626
Bi 9.9860188039454 4.51758395525753 4.917618433053688
Bi 7.119144870729138 7.771381290411949 11.839684189963489
Bi 7.59721589461922 2.7714967252331597 10.920192410397794
Bi 9.476487697889157 9.65026641734875 11.087368177631694
Bi 11.739695493027174 7.547299248380125 7.932531824935563
Bi 10.216442116907734 5.500639381647616 10.753974863163226
Bi 12.624442918675069 4.667869531113865 7.460730490084802
Bi 10.901438968104383 2.8720940607592684 9.305652497497052
Bi 8.400251673262199 5.5853731799401185 13.425075538783593
Bi 13.24206047865233 6.11064138236926 10.087549021662634
