51
Energy = -186.00179083 eV
Bi 1.2880885466822232 6.087519850111817 2.20409930807473
Bi 3.2547507286594315 4.851030258812187 0.3008031480869958
Bi 6.445978786484266 4.679537117975507 1.058604731593966
Bi 3.0203551345885464 7.7857132660942545 0.37318197979169326
Bi 2.8450309934528852 7.11724194193048 4.646258757053097
Bi 6.261495368056634 2.2438208415192107 2.864672301463106
Bi 6.168710541564709 12.082862392342637 2.5477825421470013
Bi 5.599161371631703 7.42695091973412 2.217994566470733
Bi 0.1675021863173392 8.560938387636954 5.050203556163858
Bi 8.341335376085224 8.493683590669027 1.242499623073641
Bi 4.451367813172586 10.99381209248515 4.841250686149357
Bi 9.031186833831505 2.4246023299504564 4.097723454310084
Bi 4.880443413607053 2.3871220919789633 5.591527975833452
Bi 7.514776292405949 0.9423383205093506 6.330706984063073
Bi 5.475177159985615 5.039620097697216 6.991667992912311
Bi 9.265004422130064 5.755240146272027 2.143170511338973
Bi 0.8654653646659117 10.58877538467033 7.191638844607063
Bi 2.4021400399380943 4.968185275954371 6.738907774576737
Bi 6.261242810879275 8.505977359157264 5.2021011853150485
Bi 6.177144466583775 13.560998245523734 5.138717723145941
Bi 8.793241636527279 5.308466191690031 5.127355776814017
Bi 8.394655555895445 10.246648469373334 3.7250723269009796
Bi 12.973184910935974 8.020803731028579 7.92894108246295
Bi 11.579859830646027 9.696030523836454 4.797938719999675
Bi 3.4979241503403693 9.190810067479378 8.085794092447763
Bi 11.864200836428676 5.049562167278709 5.150689205323108
Bi 6.457897661044165 11.162831271910845 7.931853098518175
Bi 9.601439644223051 8.489270949086713 6.868580540065238
Bi 3.065220183760502 10.47716225567838 10.78572672168986
Bi 8.54243008734743 13.203503583713466 7.081747440761745
Bi 10.883413428779678 11.211055343086315 7.333889887622325
Bi 1.9692789917533107 6.77314622252034 9.147141496564258
Bi 8.408955237257778 3.1286734782492664 8.219923894406133
Bi 4.806997165384427 4.053958033629107 9.904391806399465
Bi 6.543955936746904 7.700178091833834 9.43119231414131
Bi 12.5157673343693 7.534080717122703 6.809187231064268
Bi 6.910244131358551 1.8291038785917304 10.476861774509112
Bi 5.387825538821304 12.42037021508277 10.47910980566915
Bi 12.961057050265735 3.340608700165676 7.454788064739574
Bi 7.697015765245444 10.27410812693809 10.830211889447567
Bi 11.616645968853565 8.997456214954731 10.251995997705556
Bi 5.27923037587564 8.70604707905385 12.034197355744308
Bi 6.653657733623396 5.61338779430663 11.759822123936466
Bi 10.007561068497049 6.374907852134148 9.792364155108443
Bi 10.865164404588148 1.4020849554109727 8.552183397857046
Bi 10.491390196918276 9.428136305294602 13.071867264434763
Bi 8.720160909029403 3.194850918060064 12.547094750730261
Bi 12.71525332712251 5.058901866914059 10.018054162774776
Bi 12.973184910935974 7.779563617626412 12.742719567993927
Bi 10.219342528922466 6.354831993807459 12.85051857837197
Bi 11.440469576592918 2.5381310145209697 11.342036820817977
