5
Energy = -15.57505291 eV
Bi 10.331941215811064 6.419075045153164 9.56780772668131
Bi 5.939384506188454 8.477692646820474 5.078466825145407
Bi 4.700804542882362 7.896410990127457 7.527132786939184
Bi 7.675151826850304 8.51664098114362 7.5898790115045225
Bi 8.655538120678896 5.649676645484294 7.48143653937835
