55
Energy = -199.86439204 eV
Bi 6.6888103092863975 7.740327130197522 12.744289530085261
Bi 14.741244395289172 11.027926132734404 9.595787538197348
Bi 11.802108017063007 6.159536111781885 14.87880508686812
Bi 8.992800680464649 8.228087788829272 6.568526923996085
Bi 13.455187619409473 12.290339298105856 13.235011565758409
Bi 11.289790162577521 10.465033373303827 3.229242975428817
Bi 7.879231487749586 8.512201305750878 9.953946545719623
Bi 5.202468489936429 8.469682471811357 9.077436577640006
Bi 11.0700771076008 11.62590723091796 6.031319298927031
Bi 11.663602711110235 9.000347759065951 3.0318608813542296
Bi 8.949462926287845 8.624029693446 1.6719875136962898
Bi 11.194327624053447 12.505120856901627 10.833094788019771
Bi 9.526032298184 15.011935182706578 7.657440841945661
Bi 5.789509301511384 13.170853403212988 8.802218398589444
Bi 10.421021663204053 12.100020071324218 0.593607346072251
Bi 6.744155486421877 14.256363810725261 11.782780968282454
Bi 10.684392759540792 7.737341078676973 4.306759187111285
Bi 0.8231707616012027 9.17335219135812 7.539149964096325
Bi 13.479697257939783 8.051919086591296 6.179510873649206
Bi 11.592996634225145 8.918569381544604 8.216466620280045
Bi 2.2197275604608953 10.337461968184082 11.132850605584492
Bi 14.023071149303231 8.268830414607189 11.717503499986247
Bi 10.47691690647452 8.75208975341964 14.050301480358764
Bi 5.139274459644322 10.597649898965456 6.9705002429926095
Bi 13.216337565215719 8.777459308982234 0.37345461568638155
Bi 11.029151860839034 14.557383290200887 5.2302018172887985
Bi 6.4149559130360805 10.759591703725066 14.661683227644112
Bi 13.647651693809639 13.619002971302429 6.568526923996085
Bi 12.274431179177263 14.64227528403343 8.959173021102728
Bi 7.8504971469469105 11.46424181130099 2.0502065955772206
Bi 14.965987799927598 14.618642761733767 11.856679550947012
Bi 11.119411304879359 0.015809471576243204 12.342270381588877
Bi 12.149385381230186 12.045905921472539 3.229242975428817
Bi 8.038405341941385 5.593906220135246 9.828862493269813
Bi 0.8582895008974466 6.968457267551258 9.679800915263275
Bi 1.0844270267393286 11.63553793062725 14.56172793796146
Bi 8.428332066657147 5.4117238786322766 12.900782540695888
Bi 1.3413533190004767 8.769768022751073 13.6156873559199
Bi 14.76408703422408 12.81268516090062 1.9290424057200188
Bi 7.695701016288365 10.863995404532504 5.921088647811855
Bi 0.9911099926511391 13.715100955018455 9.175029577840911
Bi 4.693638991489612 12.97967369351084 13.395210719093907
Bi 8.462798314549099 12.205628929155033 8.419924799819325
Bi 5.851905941550393 5.243533279307192 11.726456035693769
Bi 8.926289061922972 14.519184754457154 14.302697777500704
Bi 8.108043054451315 11.570111613493596 12.318261493277294
Bi 5.441220968223926 11.064013498803016 10.988941358762112
Bi 10.903793621778895 14.994063249914175 1.5593166729954897
Bi 14.123253632407117 4.9981804451847145 8.869939267847203
Bi 11.40025390531876 6.069229024220286 8.135791748847895
Bi 13.410043712981919 14.866166634299518 14.987355247121801
Bi 13.466006334296852 5.506201540836613 12.180646057182482
Bi 11.038277423347722 6.7513017193210505 11.148573043649538
Bi 2.605637542231869 13.324110262565235 11.849330195359846
Bi 13.93267395175936 10.789091883356233 4.809273911474175
