51
Energy = -185.76119567 eV
Bi 3.558872161887046 9.760707406745881 10.716234323677329
Bi 6.51749562412223 8.118490074439453 10.228475429688885
Bi 9.330761747549424 10.876778092045186 10.08891409392112
Bi 9.466503080258333 8.006395282981703 11.078834176906943
Bi 8.847612359490915 13.08163698223045 6.895852970100774
Bi 4.94816569702086 12.099204435567517 9.282440345115509
Bi 3.2413119246413276 4.770512860764325 11.740400224297286
Bi 11.42543425034356 11.727064252556703 7.782593139500507
Bi 1.381731709523499 10.005245204254777 8.440545917909734
Bi 8.575696828698948 1.6193078624263002 10.627974148125299
Bi 6.1094509852789125 5.1063187125289025 10.643927024026134
Bi 3.0780119533831956 11.967431509658851 6.846616924736335
Bi 11.831822073773436 4.654408487411596 10.136790318096597
Bi 11.186510558808802 8.510140648054518 8.586384062184548
Bi 7.186099223059859 10.55885960207762 7.929533174339311
Bi 3.5500535020744395 7.818770327702057 8.340519634145206
Bi 5.999710505086345 11.396903456691804 3.5857902085200926
Bi 10.413278393798803 11.446898359496934 4.927437755452644
Bi 8.050907576747694 9.368120500280833 4.611661255742306
Bi 7.629896138674353 13.081636982230451 8.611712615813541
Bi 1.4146737386467534 6.218338937909776 9.802872437805688
Bi 0.23088629189519497 7.794364380346448 5.83311712432675
Bi 2.316126623449984 3.390993430126811 9.166687754135294
Bi 9.103265311624817 4.0610012690229045 8.893074845695322
Bi 11.569352023060663 7.871607713866954 4.138776957447211
Bi 1.654196806425136 9.584636642570272 3.7881607117810963
Bi 9.83583718363751 6.832195576692484 6.424774192036401
Bi 4.2761329694312264 9.593339410241633 5.330585977387442
Bi 5.158515337156079 3.723072838231784 8.028116804471692
Bi 9.35141461729472 9.012608380718417 1.887639047899606
Bi 6.309530930569011 9.872720400315403 0.9745680451252834
Bi 12.535077231723529 5.585486299362579 7.263837045252174
Bi 2.520357270640389 5.703509547913451 5.614463878914362
Bi 5.597395599787393 1.3680744512030885 10.015088460548077
Bi 6.289150507989247 6.500873349670836 4.0664036374140275
Bi 8.08007397996807 3.7119602372296545 5.235591244294829
Bi 0.08988643203869699 3.8864073815285494 5.075135114989414
Bi 3.3577966852468837 1.3689135411334776 5.202904697422548
Bi 11.253717175088426 5.393819849159897 2.480189289438713
Bi 11.604076677856021 2.721547363769589 7.824984301958996
Bi 12.626326502326211 6.2242295299092 3.3890312080611764
Bi 5.163994263982217 7.12458183455902 1.299554417776733
Bi 8.26402844026283 6.148905506170409 1.696474547145928
Bi 2.136602566695741 6.74722976289823 2.730390869355464
Bi 6.738343278639147 1.0536502379366008 6.092058137680148
Bi 4.281010606877252 3.329648057254778 3.0887948363811146
Bi 4.621993685140595 0.2797888603915186 2.6622575668394988
Bi 10.771720090385264 2.8852699166968576 4.100179891684809
Bi 1.427885622564829 2.1573152398286357 2.9430369911616467
Bi 8.26273996511978 2.476336396551609 2.402191155025275
Bi 7.538526521165165 13.22884043818344 3.4610239785436447
