54
Energy = -198.13002293 eV
Bi 10.26631837367018 5.4220417643687 0.5665012388931148
Bi 6.002325563622142 4.741594318130843 14.114719109714523
Bi 8.88231838533871 2.7140240686350974 0.6553291089147644
Bi 7.634532455400136 7.09242748715661 0.6167858080156986
Bi 12.289890417291709 5.358388655934297 2.85183580615819
Bi 9.942115429088027 8.72676037768604 3.0852864298657847
Bi 6.022192286291015 0.6834262840735708 2.405919621114258
Bi 6.5206947337587255 3.6782657259176554 2.2913069522751086
Bi 3.2690582311479037 6.019941485726457 14.432121619336792
Bi 10.224884640733123 0.8462434557492572 2.6723302743099873
Bi 12.099323582028205 7.62941896315912 4.905650714516861
Bi 6.61261386611089 10.335980423753101 2.6924759165874663
Bi 3.482591720875155 8.406165131702794 1.6718633514141186
Bi 7.963478933264412 0.9310318765386986 4.778379065193378
Bi 12.40005226979586 2.5391752814691912 4.025757107706892
Bi 0.8319691284518969 7.283460106284672 2.750033339378209
Bi 7.187110116699714 7.426032262692579 3.641980120171142
Bi 1.4926502238095964 4.43344114255125 1.7202027240657243
Bi 8.835482936767429 3.882132633341591 5.0307525818347845
Bi 10.035128527873454 6.823253950533382 7.001147806755874
Bi 3.308201996714307 3.8858312220845344 4.10941360597985
Bi 3.171501680321745 0.9089285611269309 3.565050408839377
Bi 10.865195045450932 2.287176812019838 6.647436621467053
Bi 4.544782902028545 12.012697720814733 4.1975645914812825
Bi 3.2226960648994694 7.47823176961116 4.604838486950225
Bi 11.638369320138125 4.642061482099243 8.394011961400022
Bi 8.794645107927982 11.054310838544039 4.72918433675265
Bi 0.49171474844929425 3.6700369567568076 5.284329776489985
Bi 5.915896076105507 12.371270970244796 6.869516210943319
Bi 7.040484605125699 4.687988029657112 7.440838649329705
Bi 3.3855056430971824 0.11488828952320318 6.5034682180894725
Bi 9.266122237524382 10.943128568361095 8.653151530701813
Bi 7.4611154397766795 1.8563900448898825 8.526609946475164
Bi 7.178032295731168 9.607704076666145 6.901747078822707
Bi 3.9047280077111877 2.8635613139038463 7.730392386226177
Bi 10.820767533972557 8.419895186140792 9.512258542106382
Bi 2.083521370198373 10.291804360074034 4.673435016571491
Bi 8.95351205878874 4.218848542728531 9.815952667190416
Bi 3.480899856993776 12.287182860796008 8.697146857401695
Bi 5.061836318166459 2.0273521783371935 10.435967870986095
Bi 1.8762096868325329 9.880567663538942 7.7048483272755615
Bi 4.17339674266793 8.075667526954952 8.703149112576797
Bi 8.05513429642015 7.652282695573503 10.578145483960201
Bi 0.6021932025332919 6.350394370935247 6.77261079293098
Bi 1.0517531519704737 1.7534254804010498 7.604957331102178
Bi 7.451330587611365 11.821986490563782 10.99744840000469
Bi 8.173323108272513 9.571430269703685 12.88865660700816
Bi 5.443527518851107 5.091292219606872 10.813549768386006
Bi 1.9385442557849848 5.368447485482319 9.171416821699554
Bi 7.677554843463304 5.611751505588585 12.884121762948615
Bi 4.745487408482112 10.39636968848968 10.74253294343447
Bi 1.966122239271188 7.984950440355799 10.813815370112518
Bi 5.924201663504469 7.832936758498683 14.114719109714523
Bi 3.5462234784027027 6.3525781443433385 12.858079969746093
