53
Energy = -193.99313087 eV
Bi 3.337725041103803 11.215390683105504 3.3564713555205263
Bi 3.548416052668861 8.229035999148495 1.7087256900019505
Bi 0.8014081090625058 9.154165097630063 5.450323779293824
Bi 6.137469833235413 12.250955191523875 4.230029422153471
Bi 1.6648288775650881 12.065171815219765 5.891154193958079
Bi 4.502581235384542 12.5854364433422 6.892521844708091
Bi 0.3711322584146263 5.212124127341553 6.164200945438274
Bi 4.6118822120151615 5.372278186979295 0.4662676532425313
Bi 0.03773426113824407 7.630078271693651 7.9932738439552296
Bi 6.400149108896156 9.248303927356247 2.2021777312369584
Bi 3.7229243397864384 8.485452378407489 4.763351185862009
Bi 3.3896318167497563 5.000483927642991 5.5470760342641166
Bi 7.723383313680928 5.398856556819617 0.3220301939226123
Bi 1.9879347891491808 3.7994176487370943 3.1304797575047685
Bi 2.616034049812735 9.169016082417864 11.551339388110055
Bi 2.827461492250767 7.231656681878139 9.150672671399857
Bi 7.470817363162497 9.714425632152881 5.284802186261482
Bi 10.223138589359623 10.490258870627951 4.241520942606178
Bi 4.202431635465421 11.542894987540546 10.457860469963833
Bi 2.6571591915814246 1.967520883027376 5.508904297951576
Bi 5.125336641244342 9.860087881205189 8.065086456900143
Bi 0.5630395741812114 2.5915685181154218 7.708943296214551
Bi 4.41549928016388 2.5455187106910615 1.7504173934339768
Bi 6.283017108202222 5.861736978229743 2.986182571887871
Bi 2.170725395384035 5.127055284397901 11.262619734495743
Bi 8.49211404005733 8.344203788786496 0.11858892033958951
Bi 4.6714967943283865 8.157881767712457 13.544606050328397
Bi 7.998321435929036 10.932675122191364 8.381991567601165
Bi 7.085492355802281 11.441082295452267 11.410397442657853
Bi 12.283941018601645 6.661660798249153 1.488079514846108
Bi 7.844868733848552 6.143318295616889 7.643419285653158
Bi 6.090763039631837 7.148178423944371 10.045130196366856
Bi 10.558502810450953 4.147943936240724 1.8558743109804627
Bi 9.819877328377165 7.802248410479609 2.8544527525512433
Bi 2.8251381569623675 2.5613532737255094 9.770245501546128
Bi 9.63770563993268 8.38527303378641 8.798086582439975
Bi 5.28597369131479 3.490664934208157 8.216607665879945
Bi 11.62962102148147 8.998596473494437 6.523844953585504
Bi 5.014751940465009 5.330817483529605 12.358323443018799
Bi 6.252659772655199 2.9059096594673255 4.181458919929875
Bi 5.427289467215851 0.5492562444357239 7.37235466688557
Bi 7.4475303203221115 8.613763212201693 12.362198361122095
Bi 13.859232059859703 5.724026329577661 3.9372684484194203
Bi 9.449333704271371 4.696665162285636 4.71549787361452
Bi 9.392696460123114 4.136471274079447 9.381135741972702
Bi 13.090020947285419 2.886814362279217 3.0670197253595655
Bi 6.930583839214728 2.93870517096088 10.763652731773725
Bi 8.616589966941756 1.0626274491104268 3.403980742070825
Bi 11.813484980647111 5.985976339674213 6.1683347953829735
Bi 7.34936789368794 0.0059116908526469225 9.773106482020264
Bi 8.148284207442263 13.676552005750292 6.2009889647943846
Bi 9.831606964966618 1.2373436643134956 8.345783719679334
Bi 10.973594870677095 2.051035600977724 5.134615390420131
