50
Energy = -182.24188861 eV
Bi 9.309020090617793 8.378504746308769 1.5611945354269954
Bi 9.85508153608349 5.592779023455078 0.5735750069971618
Bi 9.808719474364112 11.032011907140307 4.004484445682315
Bi 11.522545667334601 7.273221624766008 3.900899380404941
Bi 13.207805988292831 6.955859389699684 6.560884451245283
Bi 5.869560518075568 8.14927739238463 1.042048669376426
Bi 7.245453769380678 4.073067702350451 1.0569057660970431
Bi 6.026368987901677 5.9364204532546925 3.0934035527840793
Bi 10.93196661253954 4.3230816656009035 3.2075372503577277
Bi 7.352362084051297 12.301471393755307 2.7368716830226125
Bi 10.755130133853324 2.676293544573856 6.644978515769267
Bi 9.546040294723216 10.424801969405346 7.769193123755256
Bi 13.213736029206167 4.194552704204699 5.5232986995143145
Bi 11.782804795477245 6.660529455159021 9.26920466461178
Bi 3.5011413251796943 4.365074894070981 2.4165173405701297
Bi 2.7197522389926236 8.09880707506718 0.8246262849221284
Bi 5.515973851046974 9.98621892006051 3.461159961212859
Bi 8.584917756850349 4.323985375566058 5.179963993582439
Bi 8.66208555884659 8.173115739293344 4.5551830965354325
Bi 4.724143236724007 1.6712096834013752 3.1814429303220373
Bi 7.784614040479975 2.0441089913832076 3.302534493531993
Bi 2.713567106607031 10.566293853700218 6.145415529696757
Bi 3.817330829730231 7.655831456633142 5.944156742521806
Bi 8.628737614688417 0.1696799522345117 8.252446988189378
Bi 7.955407144474356 12.891672583084873 5.655188427697908
Bi 6.519111285516854 10.605968827005533 7.162730766515939
Bi 3.1744993827417867 3.3573062587987095 5.2764333519534645
Bi 10.877072091407484 3.797022017582879 9.456268077971448
Bi 2.661180584300363 10.668308590979422 2.420470239711672
Bi 6.327386151704395 1.5744742517022834 6.716459456477577
Bi 7.599321093302759 4.173342478251847 9.910647059465116
Bi 3.578886497695697 12.315542983732083 8.554187252518446
Bi 1.701180799481327 8.02874920559585 3.6683968356818806
Bi 7.695038377750185 11.992868516088112 9.590327341363771
Bi 5.399362893479824 4.558953646656027 7.022489604842931
Bi 1.0495944591814026 10.628578104558574 8.728957158422167
Bi 8.833022158192525 7.509797454449617 8.713791350102863
Bi 1.1796469276422585 7.000467576591922 7.398102842417613
Bi 9.20348095556757 6.127076920077352 11.586768808345077
Bi 5.082710381939706 7.822673450478179 9.596940868782845
Bi 8.018562541077035 1.369445213250047 10.99285286775146
Bi 0.7653285374174431 3.9792167365276097 7.93316610427247
Bi 3.5568144734067757 3.491556496862008 9.20452587375454
Bi 5.794258817822634 0.06347717304253618 9.376096591219692
Bi 7.438208020759725 9.228370597041932 10.984458403695651
Bi 3.388937090369807 10.131658828232599 10.645816621911663
Bi 7.081738328904006 6.504645370378973 13.839560351068439
Bi 1.8221867298603496 5.843251180303346 10.119744950960968
Bi 5.619619138322071 4.194566758744405 12.537854684551196
Bi 4.381692499563462 6.897916769443246 12.482943905343074
