55
Energy = -201.6149739 eV
Bi 3.411661301190769 2.588711546427495 12.732417655735842
Bi 7.476806491877856 2.124326363150892 6.299899819721674
Bi 4.988193974044329 0.6705504862789492 5.001465760890029
Bi 4.266018651106855 6.072083577810987 2.249465166356674
Bi 3.3177909184152203 8.70914529719383 0.8986228052344526
Bi 5.983625903073869 10.170396689727351 0.38167180253594085
Bi 2.629265151065412 5.465737853425163 12.538966914212988
Bi 0.05855737205221602 6.585564545036632 8.430935038640008
Bi 7.510489740267558 5.373995265412542 8.973302438394347
Bi 5.096179106172753 9.805461616809108 4.647433340087303
Bi 10.48376554163159 3.9462047616557308 7.3988449554534075
Bi 7.34573880218176 2.4024851931832663 9.634532971988252
Bi 1.403857877821893 5.299341111998719 1.5990543587632002
Bi 3.415577465069446 0.7758339756421567 10.681519509055986
Bi 1.0936267052645028 2.698444323269318 10.37739345783178
Bi 12.465891112574072 4.70442919539113 3.757251055424254
Bi 9.404117026394376 11.271180143010282 6.69080325311561
Bi 10.66285015905334 4.655177394154591 1.3277518388078198
Bi 2.3551950774174792 5.974437365204847 6.4823284713874125
Bi 0.2569621470132752 9.445364728203957 7.3325122621654995
Bi 1.983735196551321 2.290920558860983 1.654605898555711
Bi 7.011864974139036 11.24148683621411 8.575341314746709
Bi 5.436125399313492 4.7941772894914445 13.547008285584733
Bi 13.15581364500654 5.439736247714 7.44572675687433
Bi 8.31438995213628 8.441077697659603 3.970003685146523
Bi 11.321751291519327 8.946594993431262 3.3852338110609383
Bi 5.889775977454282 12.031203705115026 2.8003082280338196
Bi 8.116558500532978 8.597391243965486 7.495993980662891
Bi 4.513470742613632 5.809723242401307 9.578569091618446
Bi 12.396373172898773 6.909623207746632 9.9802655344613
Bi 10.436562409350982 2.3520791721707957 10.013367785064816
Bi 1.066883783327377 3.668842373792564 4.766539530519546
Bi 4.715257146576892 5.045851423155281 12.501336241865951
Bi 1.1075097463850416 7.454627123961561 11.15807185341072
Bi 4.453082095234024 3.7930274465948783 4.761355952678172
Bi 8.496970948801879 3.2520671488040773 3.151021410068085
Bi 0.6710123285472892 7.862213178213726 4.696377811131652
Bi 7.531437818340256 7.609574256317819 1.1082651169033326
Bi 11.054201668433949 6.735617787226691 5.539312573520668
Bi 2.1116596212509826 1.185396142015493 6.146629029946564
Bi 10.977985697856358 4.814800780691104 11.72470647266973
Bi 3.4046034806916112 2.8078427169704177 8.400794512698353
Bi 5.572451143750237 2.1705616507474117 12.283658700470161
Bi 8.80468156080329 11.400114990419302 3.623951907200573
Bi 4.520722394258116 11.768108167131096 6.903150594913027
Bi 2.3341052032653065 10.10686173025485 3.4376332236294513
Bi 8.424712684647718 6.525800430339861 11.597881600350144
Bi 3.2656860841768935 9.107951944242217 7.722574955702367
Bi 10.60445954810898 7.623184070979225 0.7094923578287915
Bi 3.8952228140706753 8.605112678756948 10.664018999225881
Bi 4.978273186279394 2.2141398216086867 2.187816071816986
Bi 10.942289629121781 2.2382667665461753 4.837916025194338
Bi 7.348766736189909 5.025736470186853 5.302177347227608
Bi 9.91237527054214 8.73405957013359 9.994806289884783
Bi 1.6937314237544552 4.748029502771985 12.538966914212985
