53
Energy = -193.21339109 eV
Bi 0.3410790152131304 10.099574653084153 8.638741544055916
Bi 0.32492050950902324 5.552319059230048 7.254505220887861
Bi 1.9380518146403904 10.40789879145312 6.064464567889403
Bi 14.982952847837968 8.359111696309999 6.188620927225805
Bi 4.957824068290189 11.150427870459628 9.140229100262776
Bi 1.6008431270159342 7.955050511675157 10.377626960447133
Bi 4.026148548068067 9.43052362557999 11.484934638225111
Bi 13.214358835900898 4.622232161539734 5.510980777835544
Bi 12.847130270466579 6.65499263182635 3.267422250243296
Bi 2.0394671234848096 3.940884619402972 5.282117575495808
Bi 4.562718825096288 4.260979711185727 11.801535222467175
Bi 0.5794010464651386 6.524193478571553 3.2194985873476654
Bi 4.789474260408184 9.414926233352606 6.59703315746099
Bi 5.391892437411335 12.107288692658056 5.190200753324796
Bi 1.8181301127588778 2.1120800546387826 7.789535455093482
Bi 4.610058594363996 11.311775494533986 2.3571726458741424
Bi 7.906356603046647 10.491313209582257 9.696246895488434
Bi 3.5099719193410346 6.7145210798895025 8.290427277048405
Bi 4.167070564896687 3.764820100702271 8.773537510732204
Bi 5.599382926295919 6.910187265880964 10.63612980495962
Bi 14.199279875003182 4.024176687907728 2.6898901375223527
Bi 1.740938898135221 7.724639761759519 0.6349367370606637
Bi 3.588019472938331 0.5687767824747065 5.764212333421509
Bi 5.738392645711479 13.78967987628769 6.542704096005642
Bi 7.492912695130573 10.8781703806364 3.367872137680595
Bi 3.678559981150173 8.447088442686532 2.9354558080442854
Bi 4.926316293965318 5.110497618058294 5.384845529329867
Bi 9.026534698945039 10.283296453386457 6.839937445014316
Bi 7.908291364461947 7.802182151079095 8.27881569523894
Bi 6.228921232666001 7.863283427539932 1.3970397952947815
Bi 7.650619611365838 3.9416935493821352 8.244223441004989
Bi 6.105147598296522 2.223039927388548 5.52067507462349
Bi 7.6735350256284125 1.2165133897876141 9.605640120758451
Bi 7.548711861513089 3.7088903915324334 11.336225359363798
Bi 10.35731039441114 6.350408632965244 5.845973104356461
Bi 7.275818069428216 7.992208858250779 4.40145696046862
Bi 5.304688454321035 4.96410404648293 2.1653900791491183
Bi 2.994364117326892 4.994851251779109 0.11077217185434786
Bi 5.491151751468598 13.377774394999383 3.531620940676622
Bi 10.915994956939748 8.293693858855319 8.170270425082887
Bi 5.582802140313335 1.061407792193031 2.695913266693379
Bi 8.669199151623138 14.252690903632423 5.663971306081065
Bi 5.5460651115486765 5.939791000215973 14.090087512073241
Bi 8.819640713766141 3.348435591055403 3.272955611591641
Bi 12.847130270466579 4.629257021632186 5.45577394405675
Bi 10.297865643254674 2.5938425419226583 8.953429871368794
Bi 8.135935511014791 14.718053388108412 2.719451402290831
Bi 12.208081491563464 6.852346795982732 3.493604942207414
Bi 6.601423535733286 3.3019168212735064 15.0831096322556
Bi 9.480322273736839 6.141489760761716 2.217563706546153
Bi 10.945483295896672 0.7544057722196446 6.605427848230768
Bi 11.567070563906249 2.2891953004633288 4.036145001918911
Bi 9.5792516711109 3.6638405007095276 0.33764907528670773
