54
Energy = -196.84048844 eV
Bi 9.173808947436802 0.3281844298111732 7.814692056062138
Bi 10.477848408132038 2.879657611509961 8.878421331204079
Bi 5.120879277340431 4.906288163971866 11.609155138874268
Bi 10.14234615647128 14.199378286739849 4.972697708011996
Bi 2.988613176894476 1.1672595845695857 8.987683178484296
Bi 7.937976734233939 4.661304924675087 8.996155207228822
Bi 5.463930080104804 13.787291914811991 6.161689785668464
Bi 2.582727247628352 3.252616942237774 11.217866213718825
Bi 6.405696516616049 1.5772420561919438 7.758458295322701
Bi 7.415411773830744 13.683060816262433 3.7085693161820785
Bi 12.771937750497573 3.5008593501897978 4.50605570995166
Bi 5.362313888751502 7.4910400087150535 9.960077019022341
Bi 8.41339624427677 5.1669854036147695 5.9196500276464175
Bi 3.7462176540968586 7.469502351669633 12.561324646858912
Bi 11.36431732342179 4.934752380099835 6.7899640283635465
Bi 9.977086694428566 6.475474761825642 10.3919180066285
Bi 0.9581142747876086 4.550836901696196 9.021688607964135
Bi 0.16480574290367422 1.7446433696640344 8.00740089693174
Bi 7.881163503328701 8.380944120259693 11.520014145223982
Bi 2.632290442925001 2.87282617797949 6.4496883159976655
Bi 11.07564980661678 1.5907657058709859 2.849787624729894
Bi 3.243567628487615 0.5165397319534513 4.538935400376781
Bi 4.955210769614639 5.625253224318987 5.662152917440669
Bi 7.319375361302071 2.166507689224485 4.784507438158062
Bi 13.737943861690793 6.631336811309301 10.34187905453368
Bi 6.875722985555875 1.1422671481208282 1.3715889073580427
Bi 1.7232956134622108 8.223877738424678 10.390872377547284
Bi 7.474965782025964 7.979468615616133 7.087283012311636
Bi 3.4136707409251623 9.977623254952942 7.667487134825533
Bi 0.011086774631969543 6.059390285436148 5.712118870283455
Bi 4.818665057953777 2.7304717474082203 3.101022291491359
Bi 2.5975351779700464 6.2996337076304165 3.8885569648752534
Bi 12.195958226214401 5.5677742235489776 2.3687170010833136
Bi 8.732827788679845 3.392677928661883 2.186573458115098
Bi 9.533907313655858 9.180947721402877 9.09425121567375
Bi 10.764496141819164 8.387779377955273 5.5492864961937025
Bi 13.31980915308942 8.070780005344623 3.685349352582148
Bi 6.020619298095473 6.027963660388694 1.8616279749701545
Bi 9.538497860493258 7.000449731984762 3.091255514372334
Bi 0.4200296916054781 10.615279002015482 7.6069423690319065
Bi 2.7044612826076313 7.026534926586909 7.453538001998013
Bi 13.31980915308942 8.088088241433091 7.6585614724285
Bi 6.469602819877229 8.806659506884698 4.109719684532261
Bi 11.30607239960125 9.271960068686633 1.760039716237751
Bi 13.691510554895281 8.077416343609517 3.534632515774045
Bi 6.1254542596016455 6.551881394060283 13.440458340545844
Bi 3.4428301800508203 6.581279461502506 0.320383063799701
Bi 4.320753634967276 10.911272776852188 4.926256008430921
Bi 7.00216019446404 11.286981907449105 6.345914396461061
Bi 10.796169830227583 11.128135815907692 4.104518751972569
Bi 14.590721682290413 10.747149551327212 4.598497159456763
Bi 1.9129574888743375 9.126181507468758 2.8261113894424583
Bi 5.407483216037069 8.848796664358899 0.6537115062383345
Bi 7.855715629377794 11.540966878842278 3.492689734842604
