54
Energy = -196.7282754 eV
Bi 10.871401815657155 2.2531743748760547 2.9491627784504506
Bi 12.833841715948259 6.647349930094284 7.900140653524001
Bi 11.089426868743912 4.184543962917066 5.2734097954173995
Bi 10.578062089806696 5.3972509275704565 1.8779062928434047
Bi 12.088115708344871 9.597809810600337 5.075100608448049
Bi 7.717039558452991 4.291106193286969 1.6628081109568271
Bi 9.277764778051674 7.896035021505884 0.3537228151355307
Bi 8.016060416555348 1.4681410978922467 3.0672468903557846
Bi 9.865718833404776 2.7626365809758346 7.681386223040761
Bi 12.112544053302239 4.061172669282026 9.346911891312095
Bi 10.612431320170977 10.173323107966759 2.3573929283572572
Bi 8.634192805140234 5.870572289027335 4.177566486014323
Bi 6.127193511485966 0.4958203694554689 7.208565361424788
Bi 4.182230376271618 4.760038823448747 3.2994221768531964
Bi 10.598759746726069 8.196263703421272 9.491026258246045
Bi 10.264070423762329 7.601380892446579 6.519597068759659
Bi 11.309193952492285 12.077559021496441 6.657600494462358
Bi 6.630528116973801 7.401546511926034 1.501208046469197
Bi 7.84432182450606 9.596035245966297 3.5306843093763303
Bi 6.464730158568214 11.946458564095302 2.126452869253312
Bi 9.520716125587564 4.355256907660185 11.049813015057852
Bi 6.7639412671915435 2.18832344013291 11.339045855065901
Bi 10.465379195249664 11.233858518944388 9.477283963150253
Bi 6.568765218857922 2.9552398968928766 5.351906455152385
Bi 8.271008118213626 5.298727282393113 8.424339796318915
Bi 3.5884569950039427 5.453472908235518 6.265056377735304
Bi 9.231567138644097 13.016754573319323 2.957048136233056
Bi 1.4169185150804602 3.462478743811006 3.100829151670794
Bi 4.706465706649898 0.6142494867301505 4.523312520639149
Bi 2.1226344421568455 6.938606828564262 2.3877420339595905
Bi 8.884103285069994 6.188506094767575 13.44922382299834
Bi 1.7745710725647326 1.2043203561050413 5.148459016418413
Bi 3.4410062140282607 0.7868512756305298 8.704846506395837
Bi 6.608795357085737 4.108630897235396 13.754497069938417
Bi 5.880118542799219 6.558793109385003 10.87902030695748
Bi 3.7709343471365813 9.481429947594442 2.6345981533145144
Bi 5.519735032502706 3.802424405245839 9.054864211042036
Bi 5.054395076915231 12.789339441774873 4.768440968824322
Bi 8.454266325498834 12.066352746901355 5.664429466187541
Bi 4.797381431969574 9.855293355481516 5.606500625987916
Bi 6.69936646444205 8.647593493002043 7.832356542340583
Bi 0.8139220214374748 5.854190949948895 4.936464990983995
Bi 8.155144948441734 8.593165240492281 11.641786037483408
Bi 3.7569358877548504 1.6340895163167932 11.662117147204967
Bi 7.300081916933069 11.438569715034745 8.96317604796666
Bi 1.9315871999733112 3.138686056662582 7.438735438457837
Bi 3.958542855897834 12.44144660547581 8.445346373556456
Bi 4.136090918261696 5.833981268420618 13.269633403068234
Bi 2.2393185852814184 11.763940220126539 4.042115786892019
Bi 3.9453185610510357 8.107609330734919 9.058544008448266
Bi 6.385645091052077 11.108188605505106 11.878815066340822
Bi 2.875317276858141 4.435978306639481 10.928574277777368
Bi 2.1572771152121533 10.545395601442742 6.9704216731834
Bi 3.5716837088507067 10.567563524708328 10.83875560229201
