50
Energy = -182.05358769 eV
Bi 11.93006119285336 3.8555411822656627 1.4305332656216574
Bi 10.745045844250452 7.560568940655682 0.9650513940226866
Bi 9.055097108959572 3.6256382979073143 0.4566877762807192
Bi 11.282902261742299 5.297869087209843 4.086228450761385
Bi 11.35021488716192 1.6218519920216 3.423271048587375
Bi 10.154833849761536 10.259621827454415 2.3975137808792266
Bi 4.7597010265049065 2.5067911079923015 1.4852912310512356
Bi 7.896998766710592 6.447627094563903 0.8961828356467694
Bi 12.531626114477127 7.560040013555368 5.94556825896863
Bi 7.977226896852376 4.118203423318192 4.663780748305263
Bi 11.434603761638412 3.1214107619654374 6.361154489718878
Bi 8.351571219339629 1.76779349866296 2.8168751787703723
Bi 7.230880111459555 10.221701436537113 1.3271413283570705
Bi 1.7281264222761759 2.3507313769504274 1.925046815515164
Bi 11.172161867841673 10.2454497597863 5.437508258764686
Bi 8.622015808228737 1.8845914549200178 6.705231507639022
Bi 3.3680916083702215 14.509311205333747 2.2559534302023443
Bi 5.538856425627066 8.390070673786568 3.1335499154427775
Bi 10.89680988058714 5.949735852844649 7.94606689250546
Bi 9.067704304351164 7.450954920564405 3.5813053280789213
Bi 4.807558303705766 1.728547895545867 5.723755737570903
Bi 5.224305045719232 12.521073932083354 1.5990063250127953
Bi 7.726195150655732 12.125112062924572 4.9405137368468095
Bi 4.937812491095726 4.176233019926965 4.0198710164168645
Bi 9.194693554337546 9.328383849838463 7.548590413203122
Bi 8.770464108654364 3.4768822472817784 9.32416722135887
Bi 3.4801587205362865 10.694792170421895 3.39935457019711
Bi 6.5277807271850445 9.565920985601622 5.914489152996924
Bi 7.968858434146899 7.407071420645807 10.600704003921914
Bi 3.866790959529412 7.156572365745595 5.8845270004523655
Bi 7.973033110651917 12.12587543945672 8.024116523839233
Bi 7.7564408811566725 5.940590668028983 7.896923537421111
Bi 4.892794901911509 13.132846264240568 4.546624164873741
Bi 4.557274162660804 3.9460741301526316 7.872259018207319
Bi 1.9639606931937672 1.07140456643496 4.69378261654851
Bi 14.561228718922884 1.6472745843664358 8.641024368670962
Bi 3.860413922684194 7.099714333995667 9.431918079740234
Bi 6.800283485177742 2.6622805455379717 11.491089239598223
Bi 3.1020470895556382 9.936857782845058 6.920771374669335
Bi 1.5615700100880905 3.933629540378692 7.085185216206771
Bi 5.461336538722966 9.120616968343986 11.017462233982656
Bi 5.119179891841295 11.304429611579563 8.877603633149675
Bi 6.57365699148293 5.498211619201604 12.595098651964538
Bi 0.8823592289533263 6.95425515928515 6.338330501700932
Bi 3.5325135926536575 5.319750830563442 11.948485843912067
Bi 3.873533091934192 2.6208757068197293 10.52964183736408
Bi 12.53162611447713 3.5155642246625334 9.839432411002772
Bi 0.27373546914868 2.5866527446962366 11.471304215313378
Bi 1.1023109547030314 8.424073310131645 9.006492666925514
Bi 0.4943003466536367 5.189430442996228 9.751258525429032
