50
Energy = -181.32959728 eV
Bi 12.097499459629727 6.602169106343397 2.915695726396613
Bi 9.162901558318834 1.2170894398994534 8.853154739816087
Bi 10.780955184867521 6.4132235942565 8.361986374258041
Bi 11.055174708093165 4.538704652054127 4.896076085189648
Bi 9.459356384291596 4.268623913421288 10.135958564535313
Bi 11.911824052036986 4.6559416477013995 0.6004096757847192
Bi 8.894842449794679 6.574649171400256 12.418225508899768
Bi 8.567078179346868 0.17399607764390757 4.25390675430477
Bi 10.619117775781056 9.223346102812814 5.1119471256487525
Bi 9.792423097118121 6.871365572833182 0.9410828470406645
Bi 6.77398043259103 1.4931307796830622 10.763101007684368
Bi 6.55202521652401 4.707144605374918 10.938481106141301
Bi 9.810295236999293 8.59113240311279 10.28889508912505
Bi 7.931093484771886 13.127544624345964 6.970417993469503
Bi 9.03706139611478 6.693960342981091 5.863774706806976
Bi 10.205314946559993 2.824683039378355 2.482301953061223
Bi 8.105808526770236 2.6555877816525677 6.295092610158009
Bi 6.567261380734633 5.239116133940807 7.791549737680745
Bi 8.387485525925156 10.399900846396838 3.286734324565065
Bi 8.028487123699238 4.385417491045561 1.0724099576656845
Bi 6.305661952429409 8.172799669088716 11.701078358057103
Bi 5.845247211614778 0.7029447588360596 5.5316096816372955
Bi 7.376815663069131 9.050797846463537 8.437649951377534
Bi 9.071446265315194 11.10089962284849 6.934752791827128
Bi 5.01848714852804 2.607992459867763 8.562658919310447
Bi 6.461800893553284 8.11440960248608 3.597709544301736
Bi 5.222004499479455 1.7080465970021825 2.0669487814168455
Bi 2.4459512422452865 3.5248551604280194 9.986774285912395
Bi 6.743376576883881 9.17569122278267 0.7631756643781327
Bi 5.987044710812645 4.405455279225842 3.3805322109539295
Bi 2.6482391730341734 3.0719023537110353 5.206363286754838
Bi 4.156271368394984 7.667856402637454 9.316955012484728
Bi 6.181789655840774 11.372426022189716 10.123625485533303
Bi 3.565173408235109 7.958841419855823 13.12247575079436
Bi 4.71018528604925 10.444866540850768 2.562306894832801
Bi 4.05911859731522 5.7922745052752 1.473326345830236
Bi 2.233360961908732 1.9138564445840844 1.43022629869185
Bi 1.288863379317369 4.817101673381974 7.418649076242394
Bi 3.965479370244715 5.671348300530603 6.076716564491634
Bi 6.171067408677027 11.525925120041375 5.577139599699761
Bi 4.0625238684800395 9.202322194152163 6.186943004372422
Bi 2.5481211198568494 8.01430758942263 3.7126314443154422
Bi 3.4142123464442315 10.171234282220379 10.938464008708504
Bi 4.210889804404113 3.27710876277991 13.755252871082371
Bi 1.9535592788105642 6.3895353356498745 10.973913304795236
Bi 4.8320466139361455 13.127544624345964 7.957803835551578
Bi 1.5297510657346718 4.570680751140881 2.819760447771525
Bi 0.37358879107611853 7.815617297381458 5.788294056836094
Bi 2.5785185657888263 11.885001464049683 6.310504020405953
Bi 1.3762685722414982 9.595141726182316 7.981297401351157
