52
Energy = -189.94113903 eV
Bi 12.11997478092941 6.408533104571881 3.448611991440514
Bi 12.299459578648298 5.086165657254006 7.063375720879451
Bi 11.255507577807665 8.9435609997752 1.95062419477819
Bi 8.225826406738612 11.981864079345582 5.881649142889264
Bi 11.933945700800495 4.6027943491297005 0.98443893355411
Bi 8.632821188175686 7.155443778976673 8.449442260160843
Bi 11.027017497026849 5.80683074406348 9.778218676291633
Bi 10.118918690766224 9.555376932757627 9.55549674102117
Bi 8.135073984696513 9.277652898945155 4.385493321564313
Bi 8.170460942841416 11.817485895233817 8.925008185159385
Bi 11.466319714325525 7.2083107191048805 13.765564672789994
Bi 11.095503531770026 2.6411767042066265 4.080506218945437
Bi 8.778648969718821 8.284090098987145 0.3481337155741734
Bi 4.218345232956722 12.599598877785764 8.562585427351575
Bi 9.889087548588476 5.2382530314049305 5.184256867270251
Bi 12.645436656540861 2.0663081905003464 6.715886655221942
Bi 5.81326605165497 9.938346525237312 8.821289586903228
Bi 9.73476385887121 3.092849736577053 10.142697823962047
Bi 7.591689449264101 6.101674960118269 2.0841464601206523
Bi 5.521697188680131 10.804460338609863 5.036464792942496
Bi 9.005719704395567 3.8172840443114477 0.49165815357839326
Bi 5.88780050009799 9.346000729853316 11.815693245925177
Bi 8.525139861098959 7.764754698223702 11.454130850057295
Bi 5.7612986645844 7.805659685348461 5.775769835706513
Bi 1.5388430843204732 12.276438110737422 9.955540488979949
Bi 5.64204292995446 5.372236378282319 14.209086394512301
Bi 5.029778058964104 8.15937286474055 2.8339893984512328
Bi 0.17649820543771508 8.759861143380038 5.143997261251013
Bi 6.861183913507113 3.590695513710171 11.122496533502732
Bi 9.969203912675185 0.7559734149334385 6.205967460802677
Bi 4.561107249026887 6.518525017956919 11.776990926643665
Bi 5.380199440863226 5.3672675792107 9.045646043357792
Bi 1.8049702158561383 11.489331704397692 7.066047000454795
Bi 7.779715779013602 1.95519215964371 2.562928307847763
Bi 6.29324751433137 3.845909677866486 4.666010198043279
Bi 2.7332134409307924 9.46477415021362 10.494147154542016
Bi 3.082863940925184 6.173998420369415 1.532180031177936
Bi 2.5210337992615672 8.452053681265205 7.343352715673406
Bi 5.697841215054722 2.2912997207074115 0.3095134574252887
Bi 2.7407394100678006 5.2477575360300515 5.559416610006961
Bi 6.784989558891043 0.948710898387958 9.570793616125464
Bi 8.162623545954308 2.787933461162407 7.563957827594769
Bi 0.23227398034459698 5.967019672293158 3.9602229683907995
Bi 3.0698231523375084 3.503870612492966 9.774334620354727
Bi 12.645436656540861 6.753779092752718 6.220520557064645
Bi 1.5254167881135094 7.085274010258305 11.788197970923948
Bi 0.21746720970732228 7.047112490028829 8.836805363603249
Bi 4.870279858817882 1.1952998171621085 5.517836057914257
Bi 4.038823838076726 3.497360166383837 2.6152294286050743
Bi 3.958318513763185 0.9457691255359206 8.410938318740019
Bi 2.1400158411469365 2.3341339466546955 4.8123062986424685
Bi 0.8925135695599895 4.246800628205335 7.751085179240518
