6
Energy = -19.7592203 eV
Bi 5.9907786203366875 5.482071353106999 6.433215643887259
Bi 6.002841200656539 8.901030081783956 9.266380852724566
Bi 7.378874014511472 8.149480122215506 6.670681321460932
Bi 7.8992119180453395 4.384308944257536 4.33436612936003
Bi 8.491655341141046 3.8616108481492857 7.024629172354521
Bi 4.8398711617867685 9.817255378884502 6.884929646995273
