6
Energy = -19.52595509 eV
Bi 5.704567882759523 6.398511047318054 5.553008490457302
Bi 7.668528018052582 8.567465741025224 6.277276345523642
Bi 10.209366623506318 6.782123086598113 7.069842906114207
Bi 8.777625012403623 5.359024898393063 9.02136519072214
Bi 4.466692195018244 8.990874797686672 6.4416833229189905
Bi 6.1510238955794465 7.059256648064034 8.460563243051396
