6
Energy = -20.12847066 eV
Bi 8.943937875238388 10.420330938671482 8.540240927945362
Bi 7.447444064654005 8.147388906563473 9.797220144470993
Bi 6.4946950105610055 9.381126182801566 7.14758450749087
Bi 8.9768287719143 6.016243976492833 8.241545110604415
Bi 6.356111706153148 5.231561194126222 7.012847303801609
Bi 8.065784837348852 7.262858915268595 5.606492453196417
