6
Energy = -20.41250386 eV
Bi 10.05854038660086 5.898192865373542 7.659944674488607
Bi 7.453399495781909 6.077330628276984 6.381786528906306
Bi 9.247917426396564 8.657877805709496 7.224291560429527
Bi 6.039959215218167 9.035801919731954 6.619574213307599
Bi 5.360651037043197 6.954004861492836 8.645767694615474
Bi 7.011913302084743 9.327035021027358 9.42418010939856
