6
Energy = -19.92042324 eV
Bi 6.631967853528156 9.95685935996509 7.73717377669161
Bi 4.895357785879772 10.636390537042079 5.825797799509857
Bi 8.968070833615268 5.47003960973675 6.100997035804703
Bi 6.1102786946059995 4.8081660733981 5.467472842321985
Bi 7.484097629586969 3.5035992705018804 7.813482997204835
Bi 6.745435978685814 6.463040042107697 7.891025052654026
