6
Energy = -20.00576806 eV
Bi 5.700780138575575 6.342565230913795 5.874988527358375
Bi 7.328809602118322 4.669746451834113 4.533703727972229
Bi 1.4205726427854888 2.8147691410314866 3.25266651406149
Bi 3.129692111319755 5.296401810254856 3.1045615907509583
Bi 4.525928434511891 2.669670134312183 3.030142736701402
Bi 3.2424862216623884 3.56196206026235 5.559101128375423
