6
Energy = -11.62103407 eV
Bi 8.6739684224714 7.249355254278406 10.318415636466277
Bi 8.138042075103524 5.670302173812132 8.31785934914024
Bi 5.624251282128746 7.011556322732743 7.6886388631079585
Bi 7.999963897691185 8.071240583313248 7.611747740848607
Bi 5.901645656561552 8.092629097110303 5.466152319718289
Bi 8.347817447198521 8.607073548668115 5.182030635624077
