6
Energy = -19.98998393 eV
Bi 4.1035326462364345 4.343098332865504 7.694764222448782
Bi 6.705603851627215 5.478017881298796 8.451933304573952
Bi 6.438251809701562 8.052890536588809 4.688857524804554
Bi 6.2189366092286065 8.431361339597569 7.693845006532205
Bi 8.022301084034918 5.653799239501982 5.664819557563169
Bi 8.929240127855016 8.488013082709394 6.307804492302383
