6
Energy = -21.03293876
Bi 8.230783287487224 6.747653152644317 5.756684095615901
Bi 6.591127284199733 6.26132303983513 8.27359924248558
Bi 4.966762160620301 4.081770086203161 6.805225003108626
Bi 6.609629709471352 4.564881672032876 4.288770352943859
Bi 4.047592795497179 6.138701671595039 4.7594380135434795
Bi 5.668220277935677 8.319785892900711 6.230398807513906
