6
Energy = -20.13259797 eV
Bi 5.837205038602367 4.672960345642174 7.223388134203534
Bi 6.034745149101751 6.324615540105379 9.660428063399282
Bi 8.295227680249996 6.281012712141079 6.14762590274724
Bi 7.392596157559383 7.0816918989189634 3.4437188930322034
Bi 5.44018917328444 7.352542497357283 5.651711902495208
Bi 7.137264112453449 8.51380777994522 8.039158398736408
