6
Energy = -19.96455019 eV
Bi 5.8909927636943715 7.280514166022355 6.571547426811657
Bi 6.461690040213569 5.936763872312961 9.003627982665593
Bi 7.257153271067377 9.80259200933056 7.5234743004934455
Bi 8.054491878523553 8.277016456170358 10.068553720908557
Bi 10.003899093725604 9.235590831989041 6.404628385250928
Bi 10.7013628759879 7.733924202680936 8.704244949604716
