7
Energy = -24.49030078
Bi 4.748940254000377 7.907523274205196 6.262028659755928
Bi 6.953274167323448 7.386617802597195 4.216144133633553
Bi 7.269924506240965 6.523435170678964 8.273627253944314
Bi 8.575943434245165 5.372209131304812 5.838962706040258
Bi 3.8500455893775904 4.998045579926884 6.479383755727601
Bi 4.241171862807866 6.185532562069404 3.7500665796112873
Bi 6.516944647256582 3.782880940469422 7.33603137253917
