7
Energy = -23.72025719 eV
Bi 8.359769506568421 5.3353764634915075 5.030693419907174
Bi 6.24556696611422 8.856562837300785 10.394555899261897
Bi 5.713873833647794 5.921610974252974 3.796090088505955
Bi 5.672007925159759 6.063841267372752 9.887591282727996
Bi 6.5114534663555155 7.260764966344187 6.527836555356655
Bi 7.847544147605786 8.042867670281987 3.869525190848584
Bi 8.371798849339637 7.26378149204883 9.217229714871628
