7
Energy = -20.84858046 eV
Bi 2.00996640964564 3.2029893325312404 5.787158455542537
Bi 5.222029410195866 3.0618670299352986 5.787158455542537
Bi 8.115066565967537 3.660487362801009 5.787158455542537
Bi 3.6949875377952894 5.588899683128628 5.787158455542537
Bi 7.805210482496929 6.751432345261302 5.787158455542537
Bi 5.459732232824338 8.518287451700761 5.787158455542537
Bi 8.203116685282481 9.726146118850226 5.787158455542537
