7
Energy = -23.53327363 eV
Bi 5.502628720148667 8.15930021411071 6.176448335632005
Bi 9.25673057277268 7.142905642614154 9.053032751200323
Bi 4.451843722249422 5.9760240358761925 7.940901947280811
Bi 2.7714218576736966 6.913537338546959 5.611092005547205
Bi 5.286129030717003 5.341530811426101 5.130169409071858
Bi 11.0460298499463 5.827780320517832 7.191244831413822
Bi 9.146753076350969 8.07143257041083 6.344004628948017
