7
Energy = -23.65529338 eV
Bi 5.968490643970815 9.908752982787593 4.272107120113572
Bi 5.967561584671158 7.656604253383218 6.594190881328772
Bi 8.41283346867766 9.271541008643213 5.904560723843263
Bi 7.589863531623444 5.046213094051039 7.604156438839159
Bi 7.343210075203995 7.269593585886645 3.932278078208863
Bi 6.762931387631379 4.747032825297103 10.429689545541502
Bi 5.207968500700908 3.370928655438411 8.494342608368077
