7
Energy = -24.1708429 eV
Bi 3.758139976440312 6.041354456919148 5.4512224106070555
Bi 6.037206254529348 7.487066498411676 4.155404498564328
Bi 5.770296074944149 3.6773101629310023 6.277347457302824
Bi 8.011097360164184 5.1681431832486275 4.965220318991179
Bi 4.967635243206287 7.774036547586286 7.5725023955942925
Bi 7.929654425149246 7.812638199206468 6.608073076410122
Bi 6.940256089948862 5.45373637607954 8.384515964664661
