7
Energy = -15.51850906 eV
Bi 9.658022726827873 9.39885548774108 8.134631792078181
Bi 7.636210971650558 9.501360392143939 9.619052248948233
Bi 9.365629614972125 6.9620765373960465 7.287643856577658
Bi 9.012406246795514 7.2905399566802265 10.149588264159991
Bi 6.216372065753636 8.696188662952926 7.646207666197173
Bi 7.167865683052436 6.461879842719867 8.403427116373704
Bi 8.16955438354358 8.968265788549061 5.953203865834069
