7
Energy = -23.0703173 eV
Bi 6.618642473379167 5.942057191293966 5.0270097045164155
Bi 7.79994873288686 8.902711906865344 5.98662925340286
Bi 5.091903854082125 7.808110072561958 6.882321804191303
Bi 8.596080952950107 10.509324256228217 8.52738181701754
Bi 9.156437058879948 7.416560960006527 8.363860414743105
Bi 7.88117375142631 4.548503928804591 7.412003379729108
Bi 6.420983649856283 6.423180414125022 9.298739562817715
