7
Energy = -23.67957096 eV
Bi 7.711976297427479 10.360856708908704 8.501254943219783
Bi 10.187887713671811 8.639989545662822 8.178079065212152
Bi 8.78633013851554 8.768759610836561 10.82251384182834
Bi 5.868650676480192 7.972927247137931 7.937326858397671
Bi 8.311178981962666 6.284600801824946 8.756402448852484
Bi 6.05192135895494 7.471473033306187 4.963663874677262
Bi 7.948968181053901 5.505624025525564 5.651729228465694
