7
Energy = -23.73952157 eV
Bi 9.3987870522923 8.06004379570119 6.563816843547382
Bi 10.223578081708418 5.794279170234853 8.422011032033254
Bi 7.633927935104541 8.79094507560007 8.947186855176758
Bi 7.226596160150612 5.764964879209474 8.974760980776994
Bi 7.410547918949612 5.835927618918249 5.934820818303326
Bi 4.962082438768583 7.597869871413623 5.38474035459225
Bi 5.129538042099623 9.561419434914306 7.384108386362026
