7
Energy = -23.92924072 eV
Bi 9.746387384836426 8.384331373393985 6.852686500277801
Bi 8.821356512556203 7.218917686224419 4.261910283380072
Bi 6.9938976146263805 8.983313990963426 5.8354794344308445
Bi 7.444011972790049 6.067255260964753 7.001681273735266
Bi 4.500455409879398 7.242694114041246 7.3523948476934216
Bi 5.378041165691547 5.34920722400625 9.487376971488208
Bi 4.643691403211721 4.321347064883342 6.775573865007955
