8
Energy = -28.54849919 eV
Bi 9.898586553154233 8.132882486078989 7.096021674822619
Bi 10.896270708490574 6.755497758569961 9.579256555204793
Bi 3.6585449354856587 6.849704924056294 6.959622310073818
Bi 7.926143045520396 7.01161139317182 9.069362643368896
Bi 3.8706005000066477 8.728104166142693 4.625154888472183
Bi 6.265037290669112 7.082267490857914 5.474140027940774
Bi 9.58483952357711 5.155177232816198 7.390901474215605
Bi 3.8717123903003294 5.763446290021597 4.165609023261578
