8
Energy = -27.90328481 eV
Bi 7.310576707975238 3.733886549035723 5.927377774828069
Bi 4.933559246780046 9.627960142660282 4.951025285873304
Bi 9.413202179191105 4.994939703742375 7.566724765526851
Bi 5.796229656623952 6.584607906304285 4.935600197283894
Bi 6.780556106332641 4.19807498746579 8.806648303929936
Bi 6.168128996046909 10.220726566441066 7.391135277803578
Bi 8.108027358287758 7.737114198415115 6.563689696227917
Bi 5.52668515968005 6.999074639981328 7.941597771598547
