8
Energy = -27.87886487 eV
Bi 6.330515102986722 8.657788336527862 9.513085560365814
Bi 8.64170130829692 6.714242142209655 9.614248998773663
Bi 7.075946375783849 4.748130937741956 7.903946835915538
Bi 8.603910822010777 8.91591714088914 7.434107582306094
Bi 4.774216980017756 6.681561084555903 7.806320915520499
Bi 6.875514060465611 6.666376507885011 3.2723139945893824
Bi 6.086154079908017 8.399849027073863 5.48882948543336
Bi 8.607683030606152 6.278432223391744 5.59488300215267
