8
Energy = -28.39025078 eV
Bi 5.604978032007831 3.3354635569642763 5.821318937308755
Bi 7.926746890931878 7.063966455079572 7.906891955355851
Bi 3.5689359313699365 5.062603291546931 7.185940534114766
Bi 3.997766569556953 5.219781108851259 4.1316196573521
Bi 8.357397920626061 7.232117618381782 4.853042086106687
Bi 4.979989708283624 7.752347734727877 7.497979993713815
Bi 8.324172474002264 4.587112823998833 6.264807628084514
Bi 5.400556958132823 7.907151895361081 4.498943692874771
