8
Energy = -17.65017501 eV
Bi 8.584276288974484 6.561479385169687 8.861753540381454
Bi 10.349660662440897 9.147827769707627 8.739353701689465
Bi 9.57858463020357 7.578656731247686 6.695039304422023
Bi 9.275955293649128 8.224377072233764 10.920724677971597
Bi 7.093274282862082 9.247385163542466 9.937614777713192
Bi 8.136098472712026 9.977670113835469 7.680006997312653
Bi 6.379100924996048 7.554366156972619 8.01779566460397
Bi 7.2515291907604205 8.234469451355965 5.624464880840717
