8
Energy = -27.24203547 eV
Bi 7.80313247403128 4.457061008476726 7.077708088734014
Bi 9.420865436591226 6.117460547148362 5.170586979327279
Bi 7.812693167162848 7.2515911927179015 8.345723290766577
Bi 5.287058332998311 8.051671564136655 9.999361037619389
Bi 10.491808950269286 5.604247830348756 7.870993415957242
Bi 7.376542918088964 8.659374266595986 5.617101058390364
Bi 4.699739510949449 9.263880831286064 7.415462403288118
Bi 5.021307660546889 6.831561842084877 5.630209365858172
