8
Energy = -27.33237859 eV
Bi 4.724299774165188 6.400258704177332 4.1086686003299215
Bi 8.475730790504011 6.546890406885348 5.99037550050908
Bi 5.989901539807862 4.7775361712595 6.279696403643703
Bi 9.463760631646327 6.253921433127132 8.877065665987342
Bi 10.439080967281454 9.08590812141125 8.951624390371029
Bi 7.623853628783016 8.518337662848701 9.781489411245223
Bi 4.301739974632297 7.228714595002709 6.954571088255431
Bi 6.793767411117963 9.000567623226528 6.868643657596523
