8
Energy = -28.35533131 eV
Bi 6.556476889394174 7.343647094052244 10.164008612434733
Bi 9.36812446610922 4.945856913589387 5.310961786694513
Bi 4.567916622695331 5.532862937022071 8.848159785250646
Bi 9.207453353865736 7.86125689626676 4.747056736759582
Bi 7.311499635940937 6.043162968675107 3.3850711329201553
Bi 7.319941662043623 8.623499692815008 7.396492236148714
Bi 6.635800446412363 5.847859525637903 6.408430171657776
Bi 4.363620064089369 8.489868887844917 8.49726419748861
