9
Energy = -30.90278345 eV
Bi 6.49620578022437 6.942180726727886 6.708769272689312
Bi 5.685801703188201 9.214512130890085 4.659122955658795
Bi 7.822204127127992 5.770289130607501 10.170013851991637
Bi 10.459630110438223 6.713036321546511 8.969436204264023
Bi 7.597878087182963 4.203964466927768 7.746885444945
Bi 9.451870563155424 7.643692334536603 6.239463961425322
Bi 6.491564401384974 8.65896189363819 9.27253942541201
Bi 9.350535096446277 9.553173481475564 8.559652957114974
Bi 5.617390634569771 10.724904848320692 6.978489986428303
