9
Energy = -31.69393239 eV
Bi 6.8014670187860595 9.913656912318718 5.945030515261277
Bi 6.240271234770782 10.530390713636306 8.845955797470337
Bi 5.184603720482357 7.097704600005078 6.157476889294593
Bi 8.104137885956295 3.6467948530988474 6.826763135913828
Bi 8.765252594155715 9.092622578133016 8.089011952099494
Bi 6.337561078332394 7.4765622345315235 8.959171400828676
Bi 5.100071421807383 3.907878198513862 6.8381260397883175
Bi 7.749991305492071 5.99762956123907 4.927616095933606
Bi 6.561043899535332 3.253247328042978 4.280735834499391
