9
Energy = -30.81044904 eV
Bi 9.18415688372317 11.437568343946474 9.881927748723074
Bi 8.840264828209127 9.815353623339645 5.10862854193571
Bi 7.445732765096146 7.140327341831326 5.094428471609584
Bi 7.53842031616556 10.06800828296549 11.824903368847089
Bi 7.509078963600449 9.910178925339954 7.772958767575341
Bi 6.40706572430524 6.239383862359725 7.853864776872401
Bi 7.605465747386631 7.317835143673543 10.65108378820483
Bi 9.79903151513195 8.32329629310304 8.840965841610167
Bi 9.181542188649834 5.655447423991371 7.045283473812152
