9
Energy = -31.39358127 eV
Bi 3.735235837980585 9.869810540891477 5.971443260545739
Bi 4.904121399214217 7.723514529705991 4.2263751381293435
Bi 4.658727446645731 8.147893552912256 8.26585178085983
Bi 3.9237555188641857 5.883988245224287 6.402053278957955
Bi 9.159509455830527 5.17659006813174 9.04538557306256
Bi 10.226450550509648 7.382391580417695 7.28197257938431
Bi 6.983552526126239 4.5597719449968395 6.894682843954674
Bi 7.13433148423027 7.527934613795726 6.4750006114695795
Bi 10.126569683897998 4.579026648690637 6.291657275195788
