9
Energy = -28.86523558 eV
Bi 7.1003789060030424 7.787568174233733 5.710518120950614
Bi 7.846461055448089 4.588282815165795 6.054374085902948
Bi 3.520244085937254 5.326215109881536 6.445406776265685
Bi 4.85920223771378 7.078753706021677 3.9849048767842166
Bi 5.604831036349862 3.880459551104861 4.3290245455580765
Bi 5.420891072348704 2.7580231191706193 7.4931559153631975
Bi 4.054305829872718 8.618515845483879 6.865068242169044
Bi 5.762893482829892 6.033266054698177 8.170276463166699
Bi 7.8725154902545045 5.970638123245654 2.9889937054295896
