9
Energy = -31.95668942
Bi 5.775282895391471 7.6369938039599425 4.180802298929729
Bi 3.4791118777847783 7.144099302018226 6.083949582596268
Bi 3.0655939090471924 4.920615272891119 4.056030016300141
Bi 8.115250160442207 8.155115477725836 6.070535441098945
Bi 6.056540275636908 4.6891624270407 3.579147153692178
Bi 7.21014566397851 7.186901450051307 8.773452896822716
Bi 4.841308979876801 5.367822687648616 8.089288505803838
Bi 9.02241636620372 5.449525886514037 7.028941558015367
Bi 6.637584267379292 3.6529980878908472 6.341086942481448
