9
Energy = -30.86579481 eV
Bi 4.381404490224666 8.593969240958119 9.796735746388862
Bi 9.355704577657605 8.71537216799804 9.374678526058226
Bi 6.763223726489657 6.998659419567292 9.275933221629023
Bi 8.279683129727493 9.445964935154196 6.672252930158915
Bi 5.2993544597065485 8.45166519048582 6.952536044717793
Bi 10.075810729518748 7.0566025136814154 6.948144640792303
Bi 5.442668285442264 5.5473983412322125 5.713606969846089
Bi 8.189208468464418 4.590029242733743 6.531727747954446
Bi 7.727966022207427 5.831719732967517 3.8802960223589977
