9
Energy = -31.68555752 eV
Bi 8.719918292265636 5.662031823177145 6.1146099924207835
Bi 8.291780176215145 6.176212572833642 9.112236726537722
Bi 6.232960125673923 3.9641823311874047 6.147409811510311
Bi 9.994363129779487 8.636757008730019 9.120250915251598
Bi 7.078400654083837 8.895186932857621 8.497139653076678
Bi 7.656517278585681 8.440587354581528 5.522047481433127
Bi 4.390001395755935 5.136876116950345 4.055460379772583
Bi 3.9543047266733304 5.766057047271536 6.980153407305002
Bi 4.7159230950821405 7.97130716149824 5.056496477224519
