9
Energy = -30.86651472 eV
Bi 9.01953592579277 4.157206624658747 9.237501602118558
Bi 10.837575377124516 6.129535309127894 8.512545638011147
Bi 6.988210126038479 6.54559250494214 8.743010807299765
Bi 7.98303454911724 5.850060020853332 5.924922663647963
Bi 5.99806754466878 6.754288897255762 3.854544288617132
Bi 8.920655224209696 8.414112431472015 7.296487171037235
Bi 4.295044631214218 8.780085803471916 5.218060362717271
Bi 4.180165629451316 7.931510908078933 8.132325805328033
Bi 6.0588392080701094 10.039249098509025 7.338159827184806
