9
Energy = -31.62110965 eV
Bi 7.252761054009098 5.22428776197198 4.361400788756826
Bi 7.503104314957376 9.168538219935476 5.9582497413115165
Bi 8.934048408860788 4.92395014276967 6.830513125398891
Bi 8.264617005489427 2.5011453877408405 5.175213276398878
Bi 7.38713954479371 8.239942826816407 8.852731432975192
Bi 6.029629486395204 10.842697267166352 7.970250077764501
Bi 4.478380371712051 8.870626168532048 6.2396349636974024
Bi 6.022470780539148 4.146598997617776 6.885438667467261
Bi 4.796394856764778 6.74462329602117 8.387193263599801
