9
Energy = -31.47226313 eV
Bi 8.37610770857189 7.520580447988207 7.404899494379492
Bi 6.944456566357398 7.28319983474724 4.692710986805418
Bi 10.377100262149673 5.0271997656816945 7.168709456343869
Bi 7.591938620889917 4.777200347935891 8.475078954755404
Bi 6.462954637173336 9.659344371514205 8.816000218018731
Bi 8.030061478676394 4.319152009759661 5.529806840791648
Bi 4.165367742610728 7.329414936859084 5.948682522559667
Bi 5.656950515804685 9.980648715446476 5.968449237962262
Bi 4.923373621669119 7.053950816351821 8.884005966860169
