9
Energy = -31.55946936 eV
Bi 9.943816026984084 7.00451688978479 5.734798603902066
Bi 10.094480035878892 5.719810659103378 8.399683376207719
Bi 8.366822648436152 9.266664397220785 7.538954961423667
Bi 7.446178052667221 7.272521545215501 9.650163429758544
Bi 6.524757693616119 7.922306051759885 5.4710168934204155
Bi 8.352148955137945 4.5087317411682415 6.309924603022599
Bi 5.53788908865509 10.489450640354024 6.8954148407626095
Bi 5.738187472511059 5.887455552774353 7.569572347003321
Bi 4.581803040972927 8.814763705738432 9.096785912546908
