10
Energy = -78.8637378 eV
C 5.885137420782093 6.0220850468824025 4.449867942205042
C 6.773127917857031 5.233692795068186 4.96680661972783
C 5.32751093925447 7.05147951461095 5.0046236389797505
C 7.5957990332066485 4.758615018593107 5.846304898514293
C 5.0442387543661145 7.935700159461999 5.9054731429182885
C 7.84401948237843 5.174042534002541 7.0469461632732715
C 5.495172979959884 8.09787775054253 7.107270356282484
C 6.19262212569493 7.885641545841035 8.181169463849326
C 7.058673237525346 6.940993041986249 8.37287535658151
C 7.782581452191348 5.898755936227047 8.117545760884372
