10
Energy = -69.87644011 eV
C 6.298063026692447 2.565593616471259 3.9168452313674127
C 4.396095205390104 4.449530590635483 3.7490390145543766
C 4.628706609747033 5.867886681742612 3.8855672769668055
C 3.448925724872759 5.964500568219221 5.024921930161285
C 4.530517437319924 6.260717488622993 5.885296144655217
C 4.7436665042778134 3.9540851540237796 5.495334088201666
C 3.498771053057762 4.518390643584858 4.919279506668186
C 5.425273235865882 5.114814958367489 6.019193323706326
C 5.607738817898876 6.175214933192088 4.950651158988868
C 5.308111339710692 3.3764782933128035 4.228782072851024
