10
Energy = -75.61989157 eV
C 5.340575841253614 7.217573857790382 1.7673573466140842
C 4.9906480969773295 6.557961853251414 2.8346655373516128
C 4.848122902737825 6.020114658665618 4.006781106316207
C 4.852020786498649 5.583913432227146 5.206613923820823
C 5.184031498287371 5.388931699294991 6.435157220315346
C 9.692235771652213 8.013598683054497 9.323639789250736
C 5.81286950022526 5.474552549061859 7.544119139509287
C 8.687528272827429 7.187581785092523 9.276362506902515
C 7.6675986523382775 6.465715511461981 8.938477152292037
C 6.678462142076891 5.844149434974443 8.420919742502212
