10
Energy = -76.83539287 eV
C 6.027086976267329 7.002407245604604 7.537887908227632
C 6.111333756522582 8.277785219379783 7.472616958104523
C 6.83865710319502 9.360179167759878 7.448831656034416
C 8.486079951852428 9.241105990642176 7.500487942323459
C 6.579038403477701 5.822909432499241 7.585376975435649
C 8.950264707975862 6.785322866119527 7.56892941342501
C 9.040165114332439 8.0607870847562 7.547567307823171
C 7.742883453515879 10.385420762041415 7.441145557522857
C 7.318159628908706 4.674245345550695 7.619022181628113
C 8.219678306023082 5.703183772242969 7.591482532496398
