11
Energy = -79.48438269 eV
C 2.5573421076311886 2.864191190907955 5.572281924874789
C 3.667711792244129 4.267026953369477 3.5688191377603533
C 4.042986280734531 1.5278682089602853 0.7525783851669837
C 3.9135980450699956 0.6589754952552334 6.8594387582656
C 3.9895422470826034 2.4317847424564554 1.6995002743141787
C 4.110022169964225 6.848137491412396 3.2153522694972207
C 3.8795121175276615 3.283948025647559 2.6164738067967934
C 2.6081500943276796 4.318503706867453 6.060713708522233
C 2.0095009703781974 3.26750180641384 6.8594387582656
C 3.980608161772047 5.599011157411629 3.246296256149171
C 3.1167120152038783 3.9071979920082405 4.8035504162730245
