11
Energy = -82.69300694 eV
C 2.1519520317662866 3.780878578513069 3.8368012397297653
C 6.50715143444798 3.640525025038154 4.332147199215533
C 4.595676458352496 3.8627324256112145 3.223641328950995
C 4.640155639791867 5.056933162798618 4.016166959451815
C 2.8298395160798355 5.237445029157937 5.772142390974622
C 5.55761956644598 5.274020795313613 5.090897733410178
C 5.758506460264702 3.0952553194048917 3.4031398049913215
C 6.693913693300672 4.453462216084718 5.362359081859054
C 3.1942502698788244 3.597635492259345 3.1386829912118355
C 4.13531565098311 5.499336082645549 5.233284029985663
C 2.186009151293392 4.471347842036949 4.988439876928723
