11
Energy = -78.39290207 eV
C 3.725335141319929 3.9067610393179857 6.6659746404461115
C 3.2085888552647654 4.4210943925539805 3.1716140118828218
C 4.895453486691499 3.3085284288127177 4.348709353703061
C 5.0925738658916515 4.0616035682004235 2.254991197345587
C 5.843514552968342 4.1542492981879775 3.588738267400805
C 4.107392831394661 5.251899318041474 2.3390177663009863
C 3.4406264813789513 5.082575545546002 4.451325079241797
C 5.636295440637522 5.404888089275305 4.2113651487008505
C 4.4185360286053035 5.889110529176069 3.6885513692822434
C 4.143060087861894 3.2933984109517787 3.1031717683860225
C 4.0512108954334565 4.031432200018086 5.3968794992487075
