11
Energy = -78.8320682 eV
C 5.328471052551871 2.356226587770369 4.947982973678666
C 2.887383406233206 5.992801237897892 4.084681737131316
C 5.7319817388348255 3.5799344944906553 4.183889413109765
C 3.373910884527563 5.867311262545126 2.8591619006779574
C 4.958405639807892 3.6682063497464954 2.8888785140489626
C 4.542349573747244 5.150692380016602 3.152727678848153
C 2.8058271618108663 5.542661406268642 5.317004361984659
C 5.1091646208691515 5.002875005172782 4.459311080755372
C 4.349545888814965 2.7541790949643654 3.8150811342967645
C 4.038520580824084 4.808781513539891 5.381623881493846
C 4.23006055457209 3.357018840011293 5.215421198951266
