11
Energy = -76.74483234 eV
C 5.211032608223435 5.920646374132149 3.301129951665672
C 3.8456655099303223 6.666844300301214 3.175838586830835
C 4.936843219188436 4.659367860023702 3.851802808259389
C 4.544072470463013 6.978719811266785 4.287689429959899
C 5.248983353770643 3.2168196282634316 4.165584612250149
C 3.26287020314143 6.0676669458890435 4.491735674089788
C 4.144540422565899 2.2417985627911894 4.12625797843355
C 5.060137355640169 2.755020849343883 5.551605349935751
C 3.74076835470233 4.750637417227454 4.590799699750146
C 3.975782952989364 1.68828659979413 5.5355224169782025
C 3.7308396042963445 3.338395377400262 5.091643614123403
