11
Energy = -78.38954363 eV
C 5.752828684828082 5.620231594543187 3.508814763695011
C 5.781557301361114 4.199063062994278 3.6761326629213102
C 3.5259576540522115 6.019075884263085 4.431773820240072
C 5.78268319853732 6.289999472174014 4.777807225597785
C 4.667591475664971 6.523677356238851 3.8141759784897014
C 3.9154589034213925 5.1644007342827845 5.496824239706993
C 5.839545572717685 3.9895106444184743 5.168737739290508
C 5.351841690687473 5.286585398216451 5.693758969612055
C 4.648021604361665 3.368268621078271 4.039142040446231
C 3.6512773603888875 3.7123482376261148 5.189869777620085
C 4.8724988478260105 2.834221150518493 5.3287025827753505
