12
Energy = -94.05320945 eV
C 9.301960757934111 10.14270813268446 8.108417519064458
C 6.914874280194804 10.14270813268446 8.108417519064458
C 8.108417519064458 10.651219968268075 8.108417519064458
C 5.828388080476243 9.423596291855509 8.108417519064458
C 5.9067005851200225 6.837348357768234 8.108417519064458
C 5.749237533653042 8.123056588971949 8.108417519064458
C 6.942446788436353 6.058833998688209 8.108417519064458
C 8.108417519064458 5.478703006396993 8.108417519064458
C 9.274388249692569 6.058833998688209 8.108417519064458
C 10.467597504475872 8.123056588971949 8.108417519064458
C 10.310134453008894 6.837348357768234 8.108417519064458
C 10.38844695765268 9.423596291855509 8.108417519064458
