12
Energy = -88.99348433 eV
C 6.1768265484842395 5.0012024955972185 5.371423691359118
C 3.732853855065071 4.633158449529513 5.853386809593923
C 5.8151589078525205 3.839148497282452 4.470122228969698
C 4.985562637565023 4.442371425708462 3.4579040953598636
C 5.190588168528274 4.3366777081863015 6.157386553743681
C 5.264654539462808 5.911206985949544 3.547679592143228
C 5.904583190739227 6.271076884309816 4.735867179954015
C 4.400854751166809 6.5781120636155075 4.419511432930086
C 5.060967162592104 3.0318260314514833 5.467723383471225
C 3.670587123915442 4.276823125081765 4.021848852017249
C 3.6209734920166348 3.3259746550199063 5.167216708696935
C 3.452095346256299 5.554322598346929 4.801301193878412
