12
Energy = -88.59478658 eV
C 5.005218708764868 3.129312323439864 3.8393819762649883
C 3.555411587420418 4.932682747768275 5.525283744700785
C 3.0583826290093206 4.959082588040556 3.3707473113609896
C 3.530939810117474 3.0559171056357557 3.718796524629973
C 4.064075747281546 5.599333440070541 4.215768212612984
C 4.621282728998837 4.399102861458328 6.236431756214756
C 5.060829032789433 4.046651101117597 2.6555231615918937
C 2.8867270705575407 4.096887204998158 4.5476821613102905
C 5.316129215824536 4.994134919248762 3.8064305949535933
C 3.5532697687947805 3.942077244109412 2.440663895177946
C 5.683229488084202 3.955023053718536 4.809658656045791
C 5.867195024277938 4.071111861948784 6.253038452862534
