12
Energy = -88.66016614 eV
C 1.1106949335483662 4.050442506797466 3.6782343618831015
C 2.6707823198627003 4.1448335015199085 3.8581143747472137
C 0.287164710541365 5.035975239608779 3.4124444580225455
C 3.7536886763591655 4.865607656579182 3.817570072083152
C 3.964493682719831 5.988724501453497 2.2661619440688723
C 2.171060996785897 1.6210668755660527 3.669344933495757
C 4.907693643825748 5.327750037188236 3.556098994607768
C 3.332154063531485 6.888413461362423 2.9471447164662066
C 6.073407266911359 5.743600811210345 3.1616622620515757
C 7.098002022060252 5.988724501453499 2.4068374249399827
C 1.9832370510824917 2.931765046561409 3.804699405631266
C 2.755682712431499 0.5407404197360167 3.3718701761589664
