12
Energy = -86.03456676 eV
C 5.051359528684219 4.2984598787787895 3.1236927369832546
C 4.016909302848679 2.9914966448870843 5.169901773375161
C 5.252410839282871 5.283387972571798 4.7457705605619305
C 5.981643129994373 5.35882131835074 3.4334238852105154
C 4.770183830886496 6.328106225623136 2.6669816618075615
C 4.337776664336573 5.123012591024782 2.164133268619997
C 4.305853335979098 7.124135464732672 3.693618131622999
C 3.2318859553477286 1.79685517527722 5.126732953952429
C 2.7802045615482265 1.2931303412322812 6.399042385347925
C 4.481363689926744 6.468723705788326 4.857019952529399
C 4.718415375224642 3.9270722100428896 4.518649068666156
C 3.557454428733955 2.5011105439019863 6.430700956599871
