12
Energy = -87.61010591 eV
C 5.358314731397462 4.229541016076214 6.77768439121702
C 5.456450806305099 3.7007942934532574 7.936672106673017
C 4.799288000936084 3.7633986472641205 3.0947962690445667
C 4.999054563021935 5.9988743160789575 4.637921999396232
C 4.811463342581988 5.102949261721133 2.358931369075397
C 3.4719873237292815 5.369690183491711 2.8200119342535186
C 5.727878497829543 5.51007173792575 3.479628132824922
C 3.543092875472724 4.652295497423013 4.870762816622528
C 5.027143494725683 4.626965323071829 5.519630261042833
C 5.734064020285796 4.215946744682109 4.118502834958515
C 3.6114478721099443 5.930836264667036 4.20653856475059
C 3.45844831845718 4.027475148147859 3.5568982532718887
