13
Energy = -94.02132331 eV
C 6.0937111317278445 3.7943412166565134 6.052256459013139
C 6.414696282409843 5.111066924039374 5.691671257137274
C 4.881955430327428 3.1070827665924656 5.801786189862205
C 6.779488177789899 4.020591862381309 4.768274666346251
C 5.645143040339627 6.082750701217139 5.016609541334484
C 4.565976117818039 3.3139642770046236 4.440958299363008
C 5.109885426784726 5.4179310529578455 3.8866076875841173
C 5.688092866818946 4.053100596878345 3.833410818617193
C 3.3357630298085583 3.862607256998709 3.884387434024198
C 1.9475713744926442 3.8502277615281555 4.060523887526856
C 1.7456168748978702 5.187103386407902 4.12160182362595
C 3.721240328178169 5.314602422302122 3.507926831340161
C 2.5218696243566794 6.062524898100924 3.4658089717610236
