13
Energy = -102.7125728 eV
C 5.421023001509706 3.021755790392512 1.840139813872232
C 6.057164825188686 2.5346272835890225 2.829572666662703
C 4.489766930628097 3.6701151890212946 1.1752775419124397
C 5.951950068191907 2.406348991792357 4.128989525883746
C 3.357244083512513 4.236385181696488 1.2098948162194425
C 4.665042727319963 3.0924437035278474 6.070535501141482
C 3.6281693997111475 3.7303867085794193 6.515417319461108
C 5.597446068876986 2.545491399009947 5.352381838326755
C 2.3129053003229045 4.773134943125668 1.803226377423322
C 1.5524066380079726 5.054779866745806 2.7789696254777505
C 2.598008046318576 4.357544525058116 6.075935544955474
C 1.6689328448913328 4.883083030471738 5.319797379498954
C 1.4250610689197247 5.08530164225479 4.085460206506772
