13
Energy = -95.58892619 eV
C 4.171172573467385 5.418251381048166 6.2414935099019
C 4.191549829845756 4.002426743249195 6.2138195673461265
C 5.4642925208706155 4.850133502159278 6.2693430719633225
C 4.623464896705334 6.014845751985616 3.928118826638407
C 6.588221326924154 4.565384415422807 4.023307903672112
C 6.07135559947643 5.958907292002611 4.11751599973766
C 6.407108213006264 5.191256667640461 5.299982338234088
C 5.946046724062836 3.3940252858869515 3.786037477986709
C 4.556861271871217 3.532503346138168 3.963523065668037
C 3.6019180078971194 5.893137867254732 5.001758040979297
C 3.950671133314312 4.804362302463529 3.5808021148306266
C 3.5806565382059556 3.5031497516478116 5.040266084921781
C 2.7549642533011056 4.779500017481745 4.441916322501287
