13
Energy = -94.49243454 eV
C 9.055993204340137 6.645615007747757 9.067843518967493
C 10.056199561421188 8.100908806622588 8.052780922621304
C 9.136920127489491 8.063786195945566 9.13652601795469
C 9.136920127489491 8.063786195945566 6.9690358272879145
C 9.055993204340137 6.645615007747757 7.037718326275112
C 6.778944441379808 7.1722845329602745 8.052780922621304
C 6.238553406663799 9.308705262294017 8.052780922621304
C 6.72092406159483 8.28503120491236 7.071541204675819
C 6.72092406159483 8.28503120491236 9.034020640566798
C 8.013817159244008 8.957089200646433 6.799266306275463
C 7.68928501043939 9.679700903042896 8.052780922621304
C 8.067859954664648 6.521508756481469 8.052780922621304
C 8.013817159244008 8.957089200646433 9.306295538967149
