14
Energy = -103.87176916 eV
C 8.671031845633218 8.313035931360414 8.417129550708971
C 6.418543478259871 8.46763167183156 8.718671583169305
C 7.5729938674481 9.318434368762432 8.705981581831685
C 6.816987418875719 7.061340098435296 8.677619141854164
C 5.976208449041466 8.675685265604399 7.283319081748671
C 7.2829177995464445 9.269511572656127 7.220990256933792
C 8.446794928354645 8.40692416461013 6.976944122136334
C 8.223934696895391 6.949591422417284 8.725494876553336
C 8.574881857125764 7.0161197031283296 6.338304988783662
C 6.340087681856437 6.562647342981982 7.284616240316645
C 7.53396301540877 6.063488777688793 6.659111614406883
C 5.631984375764065 7.5070610607043475 6.532249822687552
C 9.84736423855843 6.374948804568329 6.8570313178666495
C 8.691989247671541 6.043263537386096 7.632218721441954
