14
Energy = -103.00538738 eV
C 5.570864785664885 3.6618878532940737 3.4545285264185224
C 6.354896118187905 3.9788104495091026 4.779247885112061
C 5.7299261860215775 5.013956989497016 5.5114853006492766
C 5.9374916504092345 2.7254604667084594 5.353954294576229
C 5.108055380992756 2.4908007557125433 4.066048989953955
C 4.495308727105753 4.669849188564898 3.31889767408266
C 4.491217550732038 5.039488007015847 4.780611015849599
C 2.3094638957517493 4.840719365861335 2.0210120486146894
C 3.8775377538694404 2.65049290026899 4.917155191682546
C 4.640950467062645 2.9253385443337163 6.074181546078592
C 3.500513120418045 4.77408654618417 2.4454105795806775
C 1.059685687331282 4.811788587826796 1.6469256794061327
C 3.7564057791950214 4.0206838720493945 5.479648836699884
C 6.354896118187903 4.663573494592393 1.5013943128252123
