14
Energy = -97.72545072 eV
C 4.390611402352507 8.071910844127464 4.543841193643144
C 3.4476812736849687 6.924874591996406 4.37347272638011
C 3.7384192604301627 7.523881127064904 5.719678042803829
C 4.996974626347668 6.886115188413658 5.215226353037542
C 5.143441163010801 5.255575273525691 3.1834956842105604
C 4.401567725714615 5.721429910773102 4.366144499365092
C 5.83306636592848 2.841682449495246 3.4038063295862035
C 4.969576750006551 3.742313734714143 5.931314086557574
C 5.559602948239066 4.062570723523255 3.008935994126438
C 4.0374875073881045 4.424315978388048 5.11167209531444
C 3.2366244847799854 3.430197383755067 4.551360200941392
C 5.210879302404514 2.079196880513331 4.3171958308879175
C 4.903943777452098 2.27336280552997 5.714755885093884
C 3.7798038229038453 2.123938432710128 4.823252350307287
