14
Energy = -105.42877968 eV
C 6.754162295259784 6.9393778099281604 2.778683318690104
C 5.094111792524807 5.31958482302063 3.65702751378771
C 6.430274322048454 5.585296609925095 3.0728344284200264
C 5.480533107737287 6.719621490488268 3.37008773317486
C 3.4721419387779986 2.6624186465798654 6.190954870648424
C 4.394522212981552 3.1470816074266548 7.008387720772271
C 4.813752513610011 4.6831007075984035 5.044307843519056
C 4.919389767116957 4.09302218379226 6.23919716798666
C 3.7628126407664797 3.9437204545212836 4.4325745424967495
C 2.461811203945582 2.9693395225737214 2.7236899201693454
C 2.9763075711506812 2.8347612268696145 4.885741071109271
C 2.1939673813519884 2.335380945951151 3.8179655788245364
C 3.9313176203592315 4.447878205044178 3.1083045083119183
C 3.185593039938944 3.886422401536389 2.0841935797052518
