14
Energy = -103.87450673 eV
C 3.2556428826752293 4.8775719465569 4.4069374973906505
C 4.298794971577631 3.6299102909544883 6.251131300257503
C 4.309356430003501 3.0274476940691253 5.036724491642352
C 5.270711073960306 6.1317757961787045 3.9452574603887713
C 6.5107341686656195 5.000513221233578 5.727595300646993
C 3.8151728867875003 3.5532163366749425 3.8813691331825138
C 4.669300918569813 4.468860102048333 3.0941265856834512
C 3.96396801873238 5.726851751056048 3.472930768553286
C 3.512521247010232 4.9428667565154285 5.8446523997091075
C 6.035166713958677 4.939787946321874 3.358773298126428
C 5.574557744851978 6.218404901974727 5.370608475774091
C 4.5630410382055855 5.801131005556328 6.296140036780183
C 6.655198525957931 4.47768038150469 4.487328721903154
C 5.375987269776443 4.572847407575215 6.548692263401436
