15
Energy = -117.34971722 eV
C 6.004755793532094 6.813089385297378 5.042962498836959
C 7.215479848730334 6.775084832109171 4.703797140463781
C 5.028720591267924 6.739901515791632 6.010605207059963
C 9.546453705854272 6.401743680361999 5.153126449130266
C 3.6250725887603874 6.649581859468466 5.786213069680325
C 8.50524464008218 6.63400322961705 4.4480483565438185
C 2.3143811533376684 6.467264187670584 5.898616865872937
C 6.419063066235564 6.549393511039433 8.102417030022218
C 7.649759920135597 6.384322247257014 8.217998421288659
C 5.1888290366115895 6.645375516382036 7.478262273255699
C 8.967490935875439 6.155240805988623 8.177239126396573
C 3.865353545100806 6.562318490544647 8.021854796123028
C 9.799993053791724 6.114340083317292 7.21937149163585
C 2.89895063004258 6.501766616825504 7.180022535777647
C 10.470360984973576 6.106483532660599 6.059374232244307
