15
Energy = -114.13510973 eV
C 1.8204454785178594 0.9159672531804739 6.97005612972853
C 2.673103815396936 2.7493390861190146 5.876863543690819
C 1.9943844505204407 1.5378231422346065 5.806501867649077
C 1.913684099913624 0.8819700319313771 0.29075474677221264
C 3.0630092584968165 3.117377141754113 7.094995689906138
C 2.5115200346187474 1.854138312578039 1.142031219730273
C 3.078901055397363 2.9313622464764912 0.40441809183703264
C 0.9806948593047925 2.5489137712604992 5.806501867649077
C 2.4063661723969876 1.8597013188236027 2.561938589173826
C 1.0921714663177955 0.8921710078538633 4.442636581972588
C 2.423738494570911 3.446680855136529 4.473412285578157
C 1.9270764047975986 3.4664571539275353 5.7284750349637195
C 0.78882134139353 1.2423126503523192 5.714687035836019
C 1.7503127145055037 0.8853318864676446 3.36262196835475
C 2.8367143329634628 2.9313981210156888 3.3923042658598983
