15
Energy = -113.21354742 eV
C 3.2696173952083107 3.653881985698846 1.265886448884649
C 1.991583366197795 4.304489646236882 1.478896050670292
C 1.1916734508506512 4.287951980625501 2.6801023219524605
C 4.723986082827465 0.11274163447142353 2.7582535763150293
C 3.2537057351185066 4.948987768540985 1.8481255452458227
C 4.029074470702771 2.760429001100154 2.1026796085444666
C 4.38067737651712 1.4093184996596648 2.2776504024052704
C 1.2688435630972965 3.6845674618446393 4.005209990631774
C 3.487449509383944 4.786804337606077 3.2690432572712997
C 4.088008928665492 3.438303093021386 3.3948936227446125
C 4.074531351134894 2.3326749488052463 4.401068986313669
C 4.422944850671394 1.151655508009497 3.6775867504433033
C 2.1021622737163645 4.789483792234532 3.6663502874008733
C 1.615023130748361 2.6912385178014513 4.877287370744167
C 2.8344846949684346 2.3812380041530727 5.030731960240684
