15
Energy = -112.61832492 eV
C 3.8648516112378046 3.2433792948983298 5.325149827698544
C 3.0874840219595727 3.1145422729825816 4.128685348260155
C 2.7299949476565235 4.457935264286058 3.665821550166742
C 3.0474987839578684 5.459393144995856 4.616254039055932
C 4.131617096819245 4.7381067377957375 5.329637751409673
C 4.608815120901417 2.1151254961676877 5.670722597239715
C 4.603955697448898 1.1488463329160925 4.775749700683279
C 4.2916772439982 1.1431608812769767 3.523391473037888
C 3.605279448235955 2.288902944885914 3.0399289214786163
C 3.664782549229642 6.521159448337044 3.813858835757483
C 5.31517170494498 5.227069118486045 4.778431845036748
C 3.480790675421562 4.569312251025121 2.406292020050165
C 3.9920042077595226 3.2756873059953446 2.0929694660495692
C 4.134293501809373 5.8298000278257645 2.6399217005162217
C 5.0501454918514606 6.149141873617273 3.7265401072747326
