15
Energy = -114.02622104 eV
C 2.760428972525774 4.464880489936026 1.8804677933332477
C 2.9717447794061216 5.413292045224869 4.291449482075896
C 2.5985765167938855 5.092605189652969 3.107803003848405
C 4.165012760167693 4.299917347073095 1.8548550292751589
C 5.196907907926542 3.7039327048119395 2.2846766699896546
C 2.9684149942162597 2.0144128364788423 2.1868946315779896
C 2.2181150137269667 3.0974181104518483 1.7273487300292374
C 0.7537306680497066 1.517219564827624 3.4223533125075822
C 1.5478855530053608 1.9776550107863131 2.305952898866641
C 4.827150221797666 2.974797784862197 3.4770429131668985
C 1.8387408666045575 1.2051818882543615 4.115558273515422
C 4.830498037175743 3.6857906393936712 4.7006276424383815
C 3.8908052358096614 4.5409424627515005 4.753552218730759
C 3.109285078467624 1.344709161409073 4.409270830899472
C 3.8435847807001076 1.886662635587258 3.3261562162961162
