15
Energy = -119.64986382 eV
C 5.9124978274643265 4.939203736406637 4.715141290317156
C 4.753057395625274 5.511582274433872 4.851155092910768
C 7.119753533091525 4.555129220425407 4.756135841912048
C 3.8750604269075075 6.313845502729102 5.307427021878753
C 8.390877451257808 4.498400222891277 5.135843889609801
C 3.4020239826248724 7.261954643212309 6.056898920805
C 9.764379705924215 4.230888722954704 5.259074965057157
C 3.5272525554954934 8.137153824665164 6.976948355494695
C 9.234770838095782 5.165669269076187 6.164519540604261
C 4.265586101915741 8.72436260403517 7.869100156691684
C 9.057015330009635 6.077943775557759 7.110757375303433
C 5.394741367711183 8.835589378115374 8.454954510264116
C 8.481143046052331 6.9555261546714915 7.82248308873955
C 6.630771882507163 8.480075925365382 8.624534853164452
C 7.692080889152626 7.813687079296199 8.396037431082341
