15
Energy = -116.78236501 eV
C 4.039516273073613 6.152244360525223 5.90300252391124
C 1.7773391669351497 5.364418608359651 5.275468909501403
C 2.7301417346561934 5.939428024520823 5.871242877653999
C 1.4528486736068593 4.54940785505528 4.279505627859615
C 6.635322738478872 4.007185946124442 4.492586124954282
C 5.180558466592084 5.885542190788756 5.448246628400288
C 4.665109442550202 1.6572444800664865 3.277233971706672
C 5.912336259461871 1.7215358739291116 3.7047865438668035
C 1.814942235958194 3.7905879280512775 3.3438669245269
C 6.41920488146289 2.7581998462403834 4.346426339665547
C 3.008170993430206 3.3969927941711373 2.739714109132779
C 3.6453571205615765 2.125733640913591 2.670880080246673
C 5.7457449163091665 5.116733591156982 4.434954384053453
C 4.037409683719165 4.350791245274891 2.698257951319433
C 4.971722111676933 4.937215903799774 3.2787251444568466
