15
Energy = -111.63258357 eV
C 4.779278205450424 5.493786645946159 3.159750284561698
C 3.8773747926120574 5.730081224075997 4.219883963644679
C 4.5741143183969735 4.69010392574836 6.5094422029351415
C 2.934504228903534 4.629146964037014 4.235017368641469
C 2.62783096377132 4.057019189546287 5.459659751426369
C 4.640037850385987 5.746835532888492 5.516300157278236
C 4.385624051591752 2.815551492834558 3.2578193880708635
C 6.076382994449232 3.9354591837497472 4.5090960462474605
C 4.505047581605384 2.539596975527919 5.7132975421889425
C 5.742259527426961 4.841063908436327 5.6608980854667745
C 5.18480710171088 2.793294739074091 4.531114571969289
C 3.3068473696136316 3.6983731269595843 3.114226033218274
C 3.693959960640088 3.5583096732002204 6.193473779991635
C 5.844974799763444 4.6283321223660305 3.298822792461682
C 4.660041225982337 4.146287938966456 2.5206868852025703
