16
Energy = -125.06560781 eV
C 3.3970319370178483 5.05079111459141 4.421692082812119
C 2.41487147257887 4.47175872974253 5.2238006947558056
C 4.599298490283294 5.969073836433227 2.579704182767377
C 5.78367804631891 5.599488526000586 2.5136311957148756
C 6.910569200885023 4.924831220118101 2.75190790183065
C 1.1336674231321942 4.875408984012385 4.74912992242704
C 3.358344091357734 5.794959217007074 3.242614942560964
C 7.5550755673573216 4.075305485614286 3.405702580605251
C 3.8453342988932047 2.8772010323970933 6.591086327460809
C 7.691312548018515 3.156975784856584 4.359071094448213
C 1.047556239235942 5.623716162255851 3.6847020090967155
C 6.227248590319332 2.2342576182860587 6.170008512464063
C 2.875786058886793 3.5499668125334343 6.198526534112911
C 1.9979676881704496 6.08549246154551 2.9206152262646317
C 7.211461839089699 2.5177358426571783 5.325113715043635
C 5.068041469010177 2.3462043515278537 6.6283749419431555
