16
Energy = -121.09819606 eV
C 5.027507486957551 2.0920598560043895 6.334483448551963
C 5.4630984974849826 2.1435398608286444 4.987857931935293
C 6.033971148323534 3.184400627238972 5.991706941574912
C 3.931855453550565 2.7324038152051213 5.484555148772053
C 4.303382588240834 2.289298603527979 4.119759167159645
C 5.4162927101139235 4.500895314010743 5.76067256707836
C 4.003239313889752 4.216911312123257 5.592413066138772
C 5.8571544251617285 5.6036041317827525 5.05871006421697
C 3.0908432796877134 5.111555236925857 5.092394474545757
C 4.010728132542371 2.929117383990568 2.9602571201637433
C 5.474867622213039 6.510745657766116 4.252714391339249
C 2.674333446021759 6.019327065391653 4.3292430018261765
C 3.5867556684251194 3.918022827223813 2.2886530715893656
C 4.7218784591840794 6.755331568448084 3.1873025576270373
C 3.497807954625084 5.222444141746501 2.141099401857661
C 3.443034861154692 6.257392169398684 3.0452658076602925
