16
Energy = -120.32496224 eV
C 4.057803850958613 1.3306401136417816 1.9127610849665213
C 4.395161826992578 1.1222752424088263 3.124840206994319
C 3.446799043913936 8.089612364190446 2.4512000997661083
C 3.8655301102745154 5.882526593550837 3.7215534606240497
C 4.886094188580444 6.332051677350591 6.21799413901463
C 4.063727263550325 3.5210807902450636 3.649300133914243
C 4.102655135074191 4.762890046001482 4.452474847312514
C 3.6234884736251063 3.6291986837410883 2.316674856379003
C 3.657934243232914 6.976683641302859 3.0959148939565346
C 4.487029241274113 2.111464103466303 4.1231594190624055
C 4.442045619145681 5.082289327304044 5.8687918537805075
C 4.70159916991577 1.9723095405264428 5.490775452995489
C 5.276863774255203 7.495782676052691 6.585925174726573
C 3.667020301863893 2.5581051095762204 1.6211655177192799
C 4.768008293661889 2.9215349874344123 6.3467885248797735
C 4.395484603274713 4.055887896105812 6.86632425051608
