16
Energy = -123.31535248 eV
C 4.214998901438337 6.852070649661419 4.933140312655067
C 3.813641262922478 0.3935757824703808 4.375524190435165
C 3.764196774476839 1.6186208690561157 3.7564005517600907
C 3.965497079350016 3.0681552632724447 1.8118853974100788
C 3.350031125313221 2.9272995207114385 5.887229976161897
C 3.261631036534494 4.0584996696122255 6.489274864748876
C 3.706642843722187 4.205006701293332 3.889253930029554
C 3.5966565039683793 2.8883354575857867 4.507807911565323
C 3.9465211069256423 4.3135673279049085 2.4481658425965254
C 4.227325701293869 5.575614090147726 1.904339733375021
C 3.3202815700336146 5.286649169768366 6.062157642856957
C 3.599787838263349 5.447565904544394 4.700004987713065
C 3.819091632139115 6.622760948568344 3.9501073646497273
C 4.206023898723353 6.852070649661419 2.7653603641999998
C 4.619946993896128 6.7452910168839155 1.4034353694913326
C 3.8928023093013766 1.9790561487247678 2.411470951341433
