16
Energy = -120.86008455 eV
C 4.310275796203699 6.180337659130424 2.4847691449528337
C 3.231184804133002 6.074288646816146 3.126789567980142
C 5.500016252867871 5.661725382112457 2.1674966978721906
C 2.6888153096640695 5.239490523675786 4.014266222267748
C 5.46301737816779 5.995131092921096 7.248610348281659
C 6.223616394867446 4.676266356915213 2.4452556917191326
C 4.5233004671360515 6.689540892361487 8.098322809542331
C 4.958514123163408 4.852555243494013 6.568561881735042
C 6.2409617892261915 3.942719173214818 4.704750076668195
C 4.033755942025334 5.50506203542111 7.420961749539035
C 2.806608372493414 4.166312216419043 4.66286900261482
C 6.26946188299141 3.5954336212151348 3.3353881782695187
C 5.1049200745765 3.9712317687855045 5.511786099658853
C 3.8872527230998846 3.315760297585909 4.890330110913579
C 5.373568066021525 2.50777988166252 3.299577384759853
C 4.309289013197373 2.3393395214682187 3.974258412685613
