16
Energy = -123.55561923 eV
C 6.849755328120338 2.109015923328832 2.800256884924632
C 5.614183872772975 2.213825594801725 3.3097530414137655
C 7.361853236370507 3.0341168425439453 2.095787160388238
C 4.3775765918250205 4.72359311459743 2.6860810464596683
C 3.794419372582916 3.82443263318946 3.594619016639528
C 7.499192260913596 4.189423161323361 1.41524625887976
C 4.467963012025407 2.5681678610014167 3.7194004436384587
C 6.447962755556827 4.902164485198049 1.5288616746804464
C 5.220207823895872 5.2474048069632415 1.9203857302454874
C 2.8980357793350913 4.165943559568011 4.5974243254685865
C 2.3100364777582074 5.402949912200627 4.991708173053209
C 2.6112313527357123 3.2118054566023977 5.636472006162272
C 1.7208463648092738 5.680151006726236 6.075286622470795
C 1.2655935607293882 5.418792251084491 7.3341879063974
C 2.1037011631655997 3.0761291594201134 6.806194848104502
C 1.5289811324362144 4.146449307964659 7.3409509023254875
