17
Energy = -127.38984606 eV
C 5.074119686203985 4.691828280341345 5.464524922374839
C 5.984504495054613 3.6061446377660786 5.202560534122376
C 1.7245908681412934 4.574430691194613 3.6119239747717984
C 6.127054392772307 4.179796276453256 3.87944091139152
C 3.520725509368777 5.940963707446077 2.6089623431465787
C 4.5252012700759465 5.986681280370412 3.37464558740425
C 2.303520719771563 3.2319817694309503 3.636239023202126
C 2.71158900761698 3.7821315126204897 5.092150166096558
C 4.4763359058383605 3.2545074441459634 2.3640133944350694
C 5.4305877561436775 5.465062912051422 4.236046644411885
C 2.596745496373427 4.898240469033066 2.491352214608649
C 5.00074687352338 2.5395336612449744 5.5937498206391805
C 1.9936572715527776 5.006706968288535 4.962475420059297
C 3.119920405038625 3.486544172727165 2.44607840852323
C 4.0097988799170095 3.679378582269322 5.635244964499878
C 4.854155541828955 1.2367014871170257 5.724830907587709
C 5.631402100235045 3.52402232695588 2.760416942182043
