17
Energy = -130.74412661 eV
C 5.345548529698599 3.0092070895455474 3.297394151308791
C 5.307333020162287 4.406656701421463 2.895315668644941
C 4.21622434087674 4.127816397299601 1.8341006995346465
C 5.190201362907095 2.6465533904483647 4.668158335632372
C 3.0285817567908264 4.841443210760175 2.138825537843165
C 4.205094657677021 4.9470537912072325 5.028068216327017
C 4.127530433715955 2.8407454213770067 2.4642404697457696
C 3.463656165366922 5.671830242248365 3.2527635401962622
C 2.7038038232184776 2.7812357031039423 3.016200795315677
C 4.860799912301738 5.423585119066912 3.7420924651172887
C 2.841084561310822 5.273459471284409 4.47922645660056
C 4.454905570161518 1.4639597460867644 5.108134269764889
C 1.9444612042458551 3.975701485115076 2.586200782290992
C 4.435617993047459 3.6732249959977885 5.436496310746999
C 2.039012975672107 4.137392311061061 4.067393873140235
C 3.4796737616305218 2.5321333717368906 5.317738074431117
C 2.3772414836407547 2.7719037758325396 4.444085453146454
