17
Energy = -126.55772101 eV
C 3.4139527857766057 6.132289310625595 7.285319522235851
C 3.8080055021602113 4.707651535158588 7.659692457149551
C 3.6045703110778513 5.108315103664065 6.302269693240132
C 3.6271760416383927 5.729404086145573 8.650521648187638
C 5.425780046107165 2.8481432196321146 4.906641444023299
C 6.48681412892084 3.3479343007099702 3.999508063316822
C 6.061607032415255 2.1070697529275684 3.5427709638692826
C 4.21179916461989 3.4979949118166402 4.489315307755455
C 5.740565499522026 5.52240668286266 3.0299068153313775
C 3.646186337218361 4.747861153764561 5.010727174506454
C 6.351571119300693 4.313120624441288 2.8617897242805075
C 4.083142835248433 3.3531193055009045 3.054050401717878
C 5.489386660102197 3.107504473730796 2.598486625961326
C 3.5014157527051992 5.629785479059915 3.776011565269649
C 2.4019426473734824 5.281217668127714 2.859586605150598
C 4.73538561116711 6.185954212832339 3.3959367689586846
C 3.1652293911322356 4.269770639021677 2.569466614690979
