17
Energy = -127.98601762 eV
C 8.207576610096371 3.0355237849108576 5.3121381727310775
C 7.246424124055407 2.3753267287496587 5.871316191518872
C 8.699190637891151 4.053880246605256 4.55640897821822
C 7.420546196592261 4.305093851462152 4.401362376134322
C 6.082217101465281 4.106214656088329 4.620144580533775
C 6.005382510066137 2.9442446140749676 5.5236623504320095
C 4.594739168508949 2.791981999600499 5.896527319397587
C 4.119594408872489 5.166668081379563 5.57777508220479
C 3.33939513778147 6.755752746419466 3.730433406943455
C 4.818550727558088 4.762651731957401 4.280157805031909
C 3.7230716404137394 3.9269188006879023 6.245362745733916
C 3.5263239262877004 2.9944009347463076 5.056145126284894
C 4.17513037497704 6.118726130721999 4.631796945173034
C 2.6818007542297617 7.09634836852593 2.6149980151278416
C 2.7340652181875917 5.691126932543758 2.671191089236365
C 3.678988710536742 3.766587731615556 3.790296414937945
C 2.846998011379274 4.4272104492825886 2.971473650689027
