17
Energy = -131.94928333 eV
C 4.693375228479113 7.462733368514485 3.6564135164614546
C 4.648204843009479 5.287494832889199 2.612452538367865
C 4.286017972927583 4.170356580113869 1.8976259993461975
C 4.178354878634488 2.996005152639948 2.7302158272774157
C 4.196491028291421 3.166102035691126 6.410545912860211
C 4.321377093601752 4.305970876830615 6.90234970244456
C 4.943935165488629 5.6665202583367105 5.066247018522799
C 4.7862820600395795 7.113673977043746 4.987222765256331
C 4.581984659545331 5.6016257755490795 6.49440774677538
C 4.43039030334673 7.014149557515935 6.399826440990644
C 4.706284773854712 6.700490184170843 2.642906687709227
C 4.855103702738856 4.797164779168 4.03378914927738
C 4.532062626554619 3.413778931121648 4.060843314569045
C 4.170693054645379 2.537351005263955 5.139492617414751
C 3.6749470319781707 1.71882675163463 2.824744328078417
C 3.284506825514763 0.6260477194471791 3.5184271133626335
C 3.668482432943389 1.3737335699663815 4.577705470464592
