17
Energy = -131.59477085 eV
C 4.145067550376754 2.9154102776039967 6.731108431583367
C 4.2474019966155065 2.236775145849662 5.507078365707953
C 5.362233319130697 2.98555881070843 5.890852007879098
C 3.9293036008189546 4.198717471002511 7.207222468163253
C 3.562339923629769 2.0744650218747127 4.311128661616132
C 4.858601541040123 5.080406815062533 6.637478560797402
C 5.848610771090361 4.303689497021625 5.827048462783673
C 4.584727058547068 6.384296666633616 6.13195889538746
C 3.8256773994320517 5.107459873700218 2.3868874943458995
C 6.52988360080852 4.922587715348281 4.78237192112182
C 3.369402383875879 2.846487995304913 3.338787940157016
C 3.4115476813036456 3.9422581331901196 2.5824612919534315
C 4.493944369095507 7.0776217417528295 5.111142447089763
C 6.819032787392367 5.70714124084961 3.8508057507224684
C 4.540244152124529 6.238650599886522 2.627324268329727
C 4.75748679912569 7.16971470484708 3.7473671935986355
C 5.819306963981567 6.441382234308103 3.181165574739095
