17
Energy = -122.13076919 eV
C 8.405864529432632 2.0536775939529326 4.329524771517401
C 8.304339744381766 2.8865314785110234 5.6079576973462455
C 7.136706901328817 1.593377310811581 4.146124868519744
C 7.439173122287325 3.9343284431157284 5.146343666835242
C 8.254908177500145 3.52018752684356 3.9951300321517405
C 5.870388497548168 1.8428206615736762 4.195111000989454
C 6.224807790147276 4.433463659016875 5.281161508824207
C 5.082105672548089 2.8004113490888383 4.505080390366482
C 3.6573925043279365 6.16174240631117 3.888506807219049
C 4.936892906879027 4.113519041762991 4.937072951442786
C 2.458400122761911 5.776685415712371 3.11729924590999
C 3.4077832752617225 6.374121628114549 5.285810360498152
C 2.400445703887154 4.471180253473512 4.204709230923047
C 3.761387089326133 4.961395450044139 4.761071082404427
C 1.4587146179560326 6.289746499072732 4.019130841395744
C 2.00623609010635 6.485752765482224 5.397063475428183
C 1.3332954688273064 5.2506586046773265 4.957109986150855
