18
Energy = -129.90021616 eV
C 3.739372226358506 4.450156342979072 6.55959460418626
C 2.3669283579976104 3.060719837287962 8.067658283348914
C 3.4579958737633305 3.9666397994471656 7.924227946971192
C 3.9935810494016564 5.691830276577941 5.785218350537854
C 4.323018276722341 7.636057839462317 4.1655054898492265
C 2.6058439206003934 3.512878726286439 6.744641506248819
C 3.7762721621788495 6.368764299537312 4.495551145413538
C 5.280534110669426 7.482510881581803 3.2296019864841328
C 4.837826685191751 4.6486130344088625 5.599103852907157
C 4.970883349379781 6.0257485561873 2.441484440503296
C 6.001590024440991 5.45997578330149 3.2982287398277905
C 6.469750985130303 6.803333027238528 3.569397707767547
C 4.1870879104327186 5.414307672661506 3.490543307245178
C 5.048410261427902 1.6593458177634273 4.019445087222494
C 5.175984558991109 4.385435027168591 4.134071891865544
C 5.158123666748059 0.7322256443128382 2.8853389587840272
C 5.325349856686715 3.00552601113389 3.7284346469541814
C 5.436774353076516 2.131514345357788 2.626300503078226
