18
Energy = -141.56447277 eV
C 6.667333200132148 4.622391403777246 4.898887968539701
C 6.198111573334371 5.99144629737465 5.166624222830216
C 6.065076574923833 4.054039526980138 6.095372166969667
C 6.230296489744112 4.215889157879367 3.6093699145847147
C 5.375179668161859 5.300848554845555 3.0843995504808697
C 5.117759664438195 3.2531629571646135 3.4235110621498324
C 5.239003419551778 6.305911331327525 4.1446789604597
C 4.730354439104079 2.565371822461858 4.578445501681025
C 5.399104074686008 5.354804748973474 6.24868757370056
C 5.254142177507739 2.9311316734852833 5.893293582222279
C 4.309502617029121 4.330396560837219 2.7930285731582085
C 3.996567310407784 5.494398428139394 5.949643779966727
C 3.1474147974929996 4.290546322361733 5.700359498641739
C 3.9102975570082616 6.368176898874681 4.758549465829608
C 3.8896202235058914 3.076306671392223 5.65411099079364
C 3.02481185603779 4.7115300074799595 3.17824352543421
C 2.8278450727900033 5.893314354564549 3.991374335927592
C 2.4629602852918597 4.6247121921273395 4.491188822719016
