18
Energy = -132.91585577 eV
C 5.029489396429139 7.814500279055962 4.296179550203746
C 5.759299141155723 7.560699492808914 5.568234616929087
C 6.173312047897803 6.907174345682903 4.42298150073082
C 3.893879283510994 6.899942620150194 4.081525636863017
C 3.410748693573381 6.094851944731851 5.231499910598033
C 5.084765460547267 7.012367194354115 6.658638121038986
C 4.475245541586653 5.522807687940994 3.8598609759393674
C 5.930045220466581 5.522079412855467 3.9979135467271454
C 3.5380737811034817 4.757212123996481 4.654723855116055
C 3.932579595026951 6.523079988823279 6.470925049904618
C 8.067730095336668 3.9544593070413003 4.315751093664552
C 6.923073895799029 3.047084056954577 3.893408391642824
C 6.7607318617039835 4.452217865760581 4.034049479178118
C 8.232025044854007 2.524565030984885 4.191753216987084
C 3.5617766816967484 2.107581435931202 5.1431679431633
C 3.43690753892214 3.474394510516225 5.101568407963788
C 2.5276190375131473 3.2073421879169133 7.460846741039417
C 2.968350878930684 2.748766694564636 6.308394026378143
