18
Energy = -133.52670272 eV
C 2.764363351748623 2.9222350367997083 3.769546327992247
C 2.834402209035896 4.130797742569204 3.034174361418408
C 3.72709812221403 2.648718166519535 4.697403554786522
C 2.6831187742669225 1.6918992124471663 4.516315364962147
C 4.190570715563719 4.754169109683382 3.037252394567663
C 2.450457442585524 5.43241429976268 3.2022139917194523
C 4.772731208241194 3.549771786334262 5.153527726785229
C 4.600185030186388 5.781814962905383 1.9673465802600782
C 4.944743732816084 4.704620351140939 4.348953661755195
C 5.361545488190022 3.3655060751652712 6.394210050895089
C 5.916922250460511 6.238063590596807 2.2097310610548333
C 5.365786153205078 6.098074208406396 4.619422895520278
C 6.26636685540566 3.093423221407032 8.630162826121595
C 4.453973501981012 6.995846790852785 3.947890723815415
C 3.590156779707171 6.299069123120201 2.9780181799532834
C 5.44644443946301 2.563497199974645 7.556686861228534
C 5.849368812445548 6.8028046177839885 3.4558040758874116
C 6.172389214818232 3.898615356420172 7.434643269415811
