18
Energy = -135.08798814 eV
C 2.120030827585015 2.109803031031134 3.660724788043829
C 1.6572227832519497 2.915695909899069 2.5771925528924786
C 3.544875816476628 1.9999279360659492 3.598435763634029
C 4.018193053563751 2.9720953977573488 2.7133348431462596
C 1.3946702543816984 3.3083157134733296 3.964916213430243
C 2.8106145924930974 3.654560501298593 2.1495480520135293
C 2.0260198792222037 4.570159568917406 4.242684571098284
C 5.0085936594841325 3.969654237922827 3.256289800035452
C 2.8633063828968437 4.747281535036876 3.067346316998445
C 2.7354552499220492 5.225054806109482 5.295630091525624
C 6.272510119960624 3.7376988123789836 3.8253359665174673
C 4.199003953766657 5.076388543859731 3.595701620627908
C 6.004125738191391 4.766445581284383 6.411669803204289
C 4.020062135640039 5.605351510277853 4.981720795365018
C 7.012120361073286 4.016143290161742 4.787106128177672
C 5.198495117804274 5.755396381226588 5.80092915489343
C 7.38209395599662 4.77529350302497 5.954957005969599
C 6.51589157042933 5.964015548890223 5.485875051883078
