19
Energy = -148.57480914 eV
C 3.1429390315625994 2.879432723907674 6.555520345601732
C 3.297179918374319 2.594811271103185 5.227193901263521
C 2.805944861074837 4.982708596204888 4.221305920829536
C 4.292543530102697 6.839742641346412 3.0419452569439436
C 6.021460599188986 5.42340308956558 1.7105138575044492
C 3.872222496917285 2.9582445267227295 3.2302034218900224
C 4.755861288418545 3.2077791432536418 2.2198788845136264
C 6.131986303891194 2.7737423056724766 2.2564418527605548
C 5.58258869972631 1.5587520110495874 4.229348420937425
C 2.945984832170247 3.6304124720794677 4.094780816511197
C 2.690048106913812 5.176800471011912 7.31233471034757
C 2.8224424692695047 3.854747364355116 7.295772954385194
C 3.337218973449311 6.290146878071604 3.8584876881363437
C 5.141111892082981 6.182993622010096 2.3189274142430403
C 5.825307553805267 4.072235224257002 1.7967440283006781
C 6.3845984231524175 1.8894827390071618 3.310019832644748
C 4.256569760669346 2.0155236735179365 4.342368971639879
C 2.580477567425511 6.100370260656462 6.459246130467723
C 2.67531746181255 6.128757395993792 5.082600124243846
