19
Energy = -149.07562047 eV
C 3.5973527846301 4.487393272291191 2.731543467158846
C 3.0966788700320613 4.949370895367302 1.4651047255944945
C 2.061209276069543 4.174031357565209 1.3315534708101044
C 1.2710722402385557 3.2070920637563316 1.708300096802783
C 1.7708712320790945 2.747917953280843 2.9588396090675078
C 2.9783563121771808 3.384725476239706 3.5077624184081513
C 4.704103260895543 4.988021984721737 3.4462894993347515
C 4.828670919660655 4.114723260413677 4.78862010826453
C 5.605354414465269 5.955866136025933 3.338645519003411
C 6.594169898235364 6.648765306014717 3.7758528207696074
C 7.732976180536075 6.096252234421192 6.077097833964122
C 6.7583580957323335 5.153895223866771 5.983602090381126
C 7.26172360233398 6.507651079261648 4.8800877519639165
C 5.78199210281289 4.364842456092305 5.716259252753382
C 3.4592302742667225 2.204880700630678 5.711380196813263
C 2.4774685774105936 1.440949752351972 5.6162908428106615
C 1.4134524479081558 1.0814675131278488 4.857949514423514
C 1.2601577880161505 1.7224669027259927 3.7964810543967653
C 3.76531301373857 3.1893950858007365 4.727478849391744
