19
Energy = -142.35988304 eV
C 3.9963195678219026 3.5508908151543777 1.51315851543229
C 3.0939320385720754 4.426621854452961 3.9489140229324464
C 5.227989993770011 5.395651806896164 4.393582717299361
C 4.704010039195556 3.4689691374852587 6.085941782484904
C 3.6723897068007814 4.420006099818794 6.205363588619196
C 4.252118576164613 1.5472393747966993 2.9490017156801747
C 4.293982426817306 5.093106241764395 3.441234108439706
C 4.0550586297039 4.907576314279549 1.9746341984654123
C 2.2336416267655936 1.5712047687683743 4.282690485900081
C 1.3916610311435997 4.5794164038811624 4.250022507360196
C 4.517987008578298 2.3694172281545254 1.825113240731824
C 2.7494834039321794 4.326999103173522 1.7611233153669474
C 2.9495216431930333 1.1246139904265877 3.325414901121889
C 4.314543131892066 2.3186629376895356 5.263983906944216
C 2.0500183781524144 4.184736472983737 3.0499100677515822
C 4.904265652084441 4.802807176515534 5.571024980605079
C 2.567529042962781 3.9678128917166973 5.231939970319321
C 2.831631403108176 2.4674003111860765 5.1508319194019
C 4.943088379719475 1.7680129417242532 4.164963306956242
