19
Energy = -146.68913742 eV
C 6.645195396557372 2.6788236444137334 4.253601237840852
C 2.6887860305778357 6.57307489621152 4.471691684632915
C 5.101525325860857 6.123187604289665 3.866876173068269
C 2.9341069188350963 5.903237275440577 5.732008919029701
C 4.258277007798281 4.286810901628536 6.265367002299781
C 6.585562133695492 5.37468405191332 5.203118933045013
C 3.6170093266266496 3.3131024057854614 3.3660279209840063
C 2.7888750788704146 4.132683651414467 4.133396324620841
C 5.454123566259294 3.634151896193167 6.350009462851939
C 2.6701607722119935 5.49060441901765 3.5841727134256525
C 5.987492710034624 3.677822175696996 3.4582916978930793
C 6.486589229433329 2.985176474985763 5.558231364000141
C 4.30581243306686 5.771741843297678 6.117626871221326
C 2.9682269290176873 4.406064669124701 5.5254380492758886
C 6.128824007482173 5.056304418578982 3.8417131461690945
C 5.439375416393366 6.265925013696278 5.332243239453194
C 3.8077764642272776 6.325984394479042 3.479931233417904
C 6.721160342783196 4.288033592576142 6.127843615773893
C 4.758625368905341 3.226851702349865 2.8852715892198533
