19
Energy = -146.19824959 eV
C 7.358506530079668 4.565430096094628 4.992402250020086
C 5.991651012542414 4.461619827652715 5.10839394938074
C 4.852810571192293 5.333118546244334 5.283401251667563
C 5.401849920674262 3.075073520357488 4.754930966139721
C 7.537207840931594 2.390418425904183 4.326076759890031
C 8.059081787212929 3.5640924265222176 4.5952587198290065
C 3.6542054421551105 4.500557404209699 5.343147734679607
C 3.9640373995735687 3.201459928033788 4.832665872364874
C 6.286369658698749 2.094293095924424 4.348913416298292
C 4.471465994067604 6.497832819839196 4.614566963762436
C 2.85965188778781 2.623923257277915 4.126348337180537
C 2.6065230453602086 6.479819058429186 2.834336708940272
C 1.8054507772380428 5.2608357164331885 2.7890069443913386
C 2.5456927453261575 5.248430862778988 4.85156465174288
C 3.1255149340610586 6.452546000374177 4.143963030066132
C 2.2196595965284653 4.156843696972042 2.032406243288333
C 2.2651887471215955 3.0287282942950857 2.8790063985889853
C 1.5951932479462183 3.2858156690684535 4.1123155190308935
C 1.4596297250768586 4.685857071113502 4.189923729170323
