19
Energy = -143.87083662 eV
C 4.579131534659738 4.018768969310701 6.8683021654134775
C 6.417201061731118 4.995132580965747 5.635260790189504
C 4.0348441814435 3.261674189570281 6.017165840832479
C 6.987613335907116 3.646401885890706 5.364500119543996
C 5.296578553166619 5.226750497121841 6.453324660782376
C 6.610519425660236 3.932371919709838 3.9878563501986295
C 6.550701119498686 5.375561476882584 4.234658104380989
C 6.157273897944052 6.564950492935034 3.6613793825677736
C 3.543380912246934 3.2133461462719293 4.720792480393071
C 4.21663896666988 6.150518032391405 6.12528157515968
C 4.963186280164204 6.928708919555774 3.9230876075348022
C 3.962531535126375 6.7329614853998 4.803545920676138
C 2.855811295980306 5.694765787867944 6.415483394443498
C 5.643421804578359 3.2229293779594004 3.2301435150520503
C 4.387075649002121 2.699861012510519 3.6976156849767063
C 4.45580985415864 3.6753146990268113 2.605793628069608
C 3.514956900478051 4.645272419246762 2.8319667962752355
C 2.8909427812187434 5.683635591415812 4.966437450590306
C 2.9825263389495 4.495378870564086 4.125145451040482
