19
Energy = -144.99918385 eV
C 6.453574675885385 5.047565194729383 5.784396666934695
C 6.19041022691923 3.6547144766802764 6.02097096026291
C 5.603005410447079 4.621339954772794 6.901675301707417
C 5.6831947466791135 5.931740463523231 5.032295707382825
C 5.163432446006192 2.813349266217564 5.454632836947039
C 4.229155966378763 4.768392567458269 6.487123340536377
C 4.31752150847209 5.721970605184106 5.389580776165073
C 3.9173455796739414 3.497006437262928 5.898158867550206
C 3.7383289292076953 4.4475941297357515 1.5522922524298937
C 3.6323963738573823 3.5950031348148044 2.6088640446763423
C 4.078656523237235 7.06734572228021 1.9195024173442692
C 4.811824930849842 1.903197731769912 4.368575336211323
C 3.53282487044038 5.550072083354787 4.13532076986415
C 2.9210376627414587 3.209034474519554 4.88298786742624
C 4.046186872667449 2.219322668504039 2.9989324654672918
C 3.073682091119172 4.185779209911106 3.871754194300541
C 3.4213148915714475 2.005435004904125 4.227890831166075
C 3.779049356618368 5.754071314283408 1.6036013250657024
C 3.7483111581633857 6.340905859488111 3.0296425777426177
