20
Energy = -160.71015212 eV
C 8.952264155527622 7.324856059384117 3.471335716045097
C 7.721343936059506 7.763348482644733 3.50367066538131
C 6.500693855156171 7.893290093067195 3.812343830767204
C 10.044758950620164 6.775347685205663 3.7920545449137113
C 5.284282736256414 7.894179547696555 4.282995610986908
C 10.800692837092118 6.0767263273887036 4.60339128164804
C 4.167796336670916 7.656579950526949 4.834015567926848
C 11.099408819087827 5.526041106889692 5.7001461887915985
C 3.069585710439485 7.355253013308531 5.459853057038114
C 0.9748006529353092 6.471990745744266 6.919594399028234
C 10.779271566305496 5.200969044065874 6.930984507055386
C 2.1217231746768026 6.932986952118781 6.211898239683738
C 10.098410841781233 5.164510967280185 7.990936812409294
C 2.044012474461139 6.472352289567953 7.726092525102483
C 3.035653185711109 6.35232635767048 8.616374404327097
C 9.06173900058834 5.325335256831854 8.780727366257851
C 4.181889851116234 6.254667461924493 9.11151006394515
C 7.944893450319815 5.595274067650184 9.293270175039105
C 5.439659825412925 6.09698256426621 9.464267953972016
C 6.673638463876432 5.863501850862152 9.491056913775227
