20
Energy = -159.60769969 eV
C 5.899804050296534 5.254770195743213 2.361703203072348
C 4.769990593753933 5.604271481027994 2.8876916405170747
C 7.153996373125488 5.0278819390388305 2.3054325203863284
C 8.380448723511297 4.967755081182511 2.7114304333583132
C 3.91206766700914 5.996325742565513 3.744791185624813
C 9.364257451505358 5.0873713668041205 3.5145526240863263
C 3.3998396638428967 6.387642134891431 4.86799990567033
C 9.988167420197529 5.367093971293578 4.612680331150932
C 3.258825111382446 6.751574117199753 6.078181478607743
C 10.18995042283554 5.735281784845128 5.8160141212069645
C 9.952431934530821 6.154751103300024 7.01840060544664
C 3.512503235221841 7.080943789982177 7.308000699951911
C 9.373743421598748 6.5679948663693075 8.072410761075064
C 4.007159012642855 7.386904136289565 8.430887421587583
C 8.463024491056482 6.963834890069946 8.910565991928648
C 7.4214002627782 7.326481428748669 9.529428786465335
C 4.853987800588167 7.647176258616165 9.411987301187274
C 6.170623927417299 7.63002682527139 9.84202415546782
C 5.168391970781105 8.22157763872315 10.743828607510455
C 4.7490682994929365 8.830023081605836 11.821670059266237
