21
Energy = -160.09770564 eV
C 3.563406773800689 3.161468386325563 6.840920380651917
C 4.707120123805851 2.9742230492691064 6.207034351212781
C 2.266543932680769 3.2623565390044407 6.797605638671094
C 4.2912952729742235 2.2574177886842444 5.078250679699251
C 2.778720865721792 1.7714888446926789 3.4239011100186723
C 2.870304508254556 1.8547987896407367 4.882006987876138
C 1.435492043548337 3.862348932728036 3.3012914601745296
C 1.5980177776163913 2.4746929067560908 3.202876059085396
C 1.065962983915162 3.067841150056428 4.427563391161528
C 1.8753322438246678 2.6852727069306153 5.569125809051314
C 2.622998317757451 4.69275666174166 3.062728339729614
C 3.409707829584408 7.363055280091872 2.391790841788073
C 8.646821643014267 4.469449682177881 2.955766797692866
C 3.864453132370058 4.0666808504589 3.3261730446213305
C 3.959901029127782 2.6428281978561596 3.70917322900888
C 2.8912046893119614 6.049370786513646 2.6927746608221153
C 4.920269303900999 5.075454924451513 3.209816697696935
C 7.331503219593282 3.9180154524239192 3.157805608226796
C 6.2621015668819275 4.864538245408142 3.1668277369141205
C 4.250572753380635 6.308541907478337 2.845509522364627
C 7.554612448446436 5.41756883889493 2.9590931899781805
