21
Energy = -164.13995858 eV
C 7.104726751746151 4.013259572820533 4.300759604486786
C 6.4920280298465185 3.2839144970548726 5.183590873329492
C 7.092820978390298 5.39479219285605 4.064348311999795
C 6.217553073884135 5.989728439556751 3.09038062517154
C 5.607218339919042 3.056069002537054 6.09177831246921
C 6.961543708547536 6.2377990676250885 5.259719778478528
C 4.821920205592092 3.881367592897519 6.913330259710475
C 7.478273829212775 5.843977509490071 6.516162614881568
C 5.661542915659471 6.965440175768075 5.141160343402696
C 6.850035051237075 5.198077962858477 7.3804964772551545
C 4.871435771165306 6.071157479494017 2.686622930041982
C 3.7606538483895466 5.384276155149829 2.238650584532698
C 5.526099586391556 4.891712346404933 7.698624025453288
C 4.747415459671728 6.780638892173272 6.213819356199902
C 5.336740483651251 6.871391100057739 3.7493396862219157
C 2.5177708048879635 4.011843562908312 4.000854258668963
C 4.762940628884994 6.11663851133965 7.480209012220053
C 3.0338043904061593 4.63057808902118 2.9298456716061003
C 3.6992161113306015 5.873992673193448 6.5939818476327146
C 2.95074744990941 4.02216357779422 5.182279767642267
C 3.590585171919231 4.45425640974982 6.31609323578896
