21
Energy = -165.76590099 eV
C 8.117364037130073 3.7318013147773215 6.33546606193453
C 8.599793826195302 4.7802535607656065 5.84150506350034
C 7.927299920622199 5.860497544981257 5.233459575887323
C 8.07542533474287 7.149617297678466 4.715506954740985
C 6.785426838941941 3.2802990021762533 6.382612339230328
C 5.957183833851109 4.306520235239955 5.705834748586512
C 6.488384779962432 5.499661286888723 5.178601058262573
C 5.780322894575593 7.751475573154262 4.231904826355302
C 7.160585022070717 7.9206461362436915 4.310835521143507
C 5.886131025623688 2.352817520240145 6.86533690818854
C 5.5428711901083 6.382614576971657 4.695057019552423
C 3.450913695377661 7.321408249152796 4.342613848815614
C 4.526048849000235 2.682024101199793 6.47274610935951
C 4.589827391947076 3.9963342445053427 5.757550140562526
C 4.483899990368482 8.266802849974406 4.0210265633399525
C 2.0492798937250494 7.213185132623205 4.452141899370041
C 3.436333088443045 1.9554209788178465 6.738808783246504
C 4.169543521525862 6.125236483592595 4.761472817753679
C 3.612534722086784 4.934014625576592 5.315718256882918
C 1.7040707617652515 6.086255240756812 5.02328405032023
C 2.1685157838731324 4.921374511153338 5.353608868001253
