21
Energy = -161.01023297 eV
C 8.40232092671759 4.207781645237773 5.735353595395206
C 7.6593287362920375 5.260135624512304 5.644904578102664
C 6.952132942132875 2.804860096216979 4.5928129688806285
C 6.0379112936784765 3.816027737859045 4.430862754992014
C 6.432404589645982 5.20045149895524 5.0351577201345075
C 4.827212457792929 4.072593856842391 3.694014429881723
C 3.88945516519669 3.473738947978417 2.7972208040864794
C 3.168709743798082 4.583356238491107 2.1645976929003914
C 1.9124081145020595 3.85363874815793 2.1745314957375963
C 1.8849048953882184 2.1259190005658044 3.877837297035751
C 2.627653583943383 2.6969899622523044 2.8188300658297685
C 4.445924753859195 5.499593892886964 3.8365231557469057
C 5.381309609033009 6.07769876991783 4.6453000659805195
C 1.114673295685985 1.4959163208799011 4.894286656041765
C 8.072651287171619 3.0685337044020597 5.179532780044781
C 3.190022866073245 5.698126906582631 3.0950807009193104
C 0.8884806415518288 2.8564091014403696 4.564315676013507
C 0.6225025639392066 4.20681666733878 4.254989446572345
C 1.2041339315949868 5.40867222474439 4.751675205421634
C 1.0289301441730132 4.633496818202161 2.8877851599164472
C 1.8489536497146437 5.783248262731569 3.5092781269930295
