21
Energy = -161.32630578 eV
C 7.2886065274530845 4.034609691117339 4.957728654369615
C 6.064381762798356 3.526365186808847 4.406072956805826
C 7.185138315003481 4.3366452167694245 6.195137341935535
C 5.69829475769096 3.280147372567754 3.0744199845615596
C 6.515199252416504 4.443947236518635 7.399077662666251
C 3.484606603522185 3.146286358305589 1.590160898011148
C 1.267490063347103 4.749596232556904 3.630136285009006
C 4.436369957477582 2.9270528503142748 2.6882920132741637
C 5.005564034060479 3.452665494454071 5.44984959475159
C 5.583024483457062 3.957203101606607 6.613956509928669
C 3.680510525048282 3.1021718052667366 5.07857130100954
C 2.374217111401257 3.590298163787815 5.439885933215483
C 1.5435142088858587 5.4500180173761805 2.6396048257355993
C 1.999039774663294 5.249721532312943 1.3020765623276904
C 3.5331684534719225 2.640124961794547 3.7549007533789007
C 2.070203872753039 2.566556068024573 1.9093130664706173
C 0.9783242983343209 2.9442269601107975 1.064134474868692
C 1.5092155822998328 3.5618125991247815 4.365005489371623
C 2.1560158824002844 2.650710831575397 3.321670806173329
C 3.0361805805349857 4.316313840141222 1.0175435514871802
C 1.51506878161377 4.107580828469857 0.6386026920841517
