21
Energy = -158.83956394 eV
C 4.992099615633043 5.648962950362948 4.115499148970809
C 5.379636645123303 2.8705389974444113 4.078292281051826
C 6.177134172097789 5.190516369724276 4.581197055653543
C 6.236246543360271 3.822565144967734 4.736731066052867
C 5.444610078082703 1.7102724581584918 4.997670569388516
C 6.490218130724591 1.851739220104522 6.167965055756525
C 4.172241224154615 4.845333176202219 3.1500227092091584
C 3.97367407911655 6.457724181396138 4.848997219522151
C 6.293246998971584 3.39898771825832 6.167119604392706
C 4.202829517999268 3.425351900045745 3.460347673345315
C 3.1223111266255614 5.780335536879859 2.7930775417702463
C 5.144963432342291 2.159333530380975 6.3898878243695405
C 3.099125566524471 6.891561307280229 3.7397884638603722
C 1.993415037831177 5.178995981537417 4.8413126696933855
C 3.73330000884483 4.174479884449108 6.214382017753129
C 4.926266796747211 3.5520347635305893 6.721562642502037
C 2.9695472373626086 2.994226270416128 4.147976985149694
C 1.9684529668208057 6.054871939236655 3.704901481201357
C 3.211581893364492 5.4395230821076055 5.6610900921579725
C 1.908727208108206 3.789826808882167 4.707715477996758
C 2.869884991321889 3.1740381304469745 5.563639085511014
