21
Energy = -159.84930748 eV
C 5.396629840421525 4.131198883400149 7.746693171784217
C 5.206074288912167 2.9387531674968956 6.85185492294426
C 7.133998939043961 7.021255377336722 6.4937583797297345
C 6.92171133558816 4.215357499433646 7.601525156322403
C 6.687626687285121 5.588406455847814 6.909057325949101
C 6.7286605255345355 7.057600868933406 5.157960684775263
C 6.574458187226675 3.2083112301897896 6.6526891792712215
C 4.242201703210644 2.929927687826332 5.823789737035543
C 5.223623280348297 5.467464299374938 7.170174840485069
C 6.967590514119685 5.7174000675788035 5.432919136960491
C 4.13970638537435 5.9648668185381855 6.4901116349406855
C 3.350149599369748 3.926215663319353 5.341913770467059
C 4.490498532303849 7.1731009492923565 4.224593074916654
C 5.889794481045012 7.557835673730349 4.100747011924547
C 3.2358256326592065 5.274846053578116 5.639707696853713
C 4.072747051051443 3.1267089469439866 4.412820161380177
C 3.8048787501030525 6.527345851920746 5.214614888754463
C 5.267121779207072 6.740954563348139 3.093134463728588
C 4.679470420208003 3.2550068438106696 3.1913540632177932
C 4.940791011788238 4.410488450685832 2.6587626177371337
C 5.395788717604967 5.599569563319889 2.3943719539772053
