21
Energy = -153.0617862 eV
C 7.1131566181764905 4.225422356861322 6.3692279694845935
C 3.6885214806748383 3.4818204648605486 7.083899820367815
C 5.874137293078517 3.6849662975605644 3.582450128616516
C 3.705785302935267 4.571420185304005 4.675712114342359
C 3.5221183141453567 2.173143881676753 5.811874213761441
C 2.843564601446317 2.2619241702580397 7.0325237443687225
C 4.828110761364051 4.13903855726504 7.6626498801968905
C 4.473336492370795 4.213071550956153 3.442275916382655
C 6.239118193459697 4.239105604912712 7.415972511230556
C 3.509724316044457 3.6405010116495715 5.6753750323529895
C 3.384582769272759 4.911303574560885 0.4152210833634922
C 6.644389788226264 5.143623991223754 5.3782812676478695
C 5.278708405732776 5.3494275963694005 7.177372140431504
C 3.2476556107371413 5.783815320795723 1.6193296293468644
C 6.390044480789635 4.9577906556958835 3.967875152923945
C 4.449191536564576 5.8710223680792435 4.8294696236205406
C 4.435965066085064 5.292059877549988 2.391369385954345
C 5.432532106070849 5.852183389937111 5.886409120969778
C 3.9188492259933434 6.271777472710407 0.3425898519029487
C 4.7582427283508215 5.151006444775583 0.932748657894151
C 5.178204867809419 5.823859624854884 3.583974654159039
