21
Energy = -164.83124634 eV
C 7.556253675056462 3.987534152976695 7.540191996627105
C 8.529752285774222 4.949152671554674 7.365920374193742
C 6.273353712613563 3.960705064068194 8.237377311182236
C 8.756337370994595 5.947906179687079 6.653087058325852
C 6.742269692726813 3.775289021574217 6.357035971037137
C 8.059564553940753 6.705028902896244 5.717728948561814
C 6.4260356407864965 4.69415953567086 5.267478061282244
C 5.520395625264813 3.428831233714006 7.112037300992734
C 7.015284143550532 5.950182606970643 4.918495893704486
C 4.416807096651951 3.9578801707372646 6.391555515034917
C 5.009233253744462 4.540597832095223 5.139526268829096
C 6.163926437804779 6.94438044933742 4.389741793434769
C 7.677622059346259 8.052817708155173 5.698138192075703
C 3.2894848014769456 4.761463026373564 6.651699885880158
C 4.184523160533198 5.571030489194511 4.691137523858018
C 4.778889729655531 6.775882706964174 4.329516772554361
C 6.44710776846051 8.262401717955381 5.06599385451289
C 3.162288735739128 5.8417558758249655 5.760903481206967
C 3.1376384785294342 7.250671501166665 5.858958162584962
C 5.188360657643998 8.793713397553413 5.372012854911478
C 4.1417936937259565 7.879764211881844 5.092063711613847
