21
Energy = -161.38687825 eV
C 6.090716577035059 3.9848155357666526 2.2292838538940263
C 4.972133060558377 5.760586333502816 5.47159795337074
C 5.415168753120251 4.62812726366455 3.434636077113865
C 5.254006427033269 3.4348061249391795 4.28562223752702
C 5.797294488028635 5.660869421707917 4.490966593231332
C 4.591041147015919 2.0156822754759656 1.8582568637354655
C 5.467697915483437 2.9903834444671684 1.7093120804645088
C 4.575344470579515 2.5668617892535064 4.823981092766778
C 2.899212734274168 4.566433187453198 2.196659164375924
C 2.7377271415131323 5.464195616960374 3.4093724794030456
C 2.4198875281435335 3.243448332084542 2.1856401135485837
C 4.023365002433955 5.207377865482847 6.201539337342467
C 2.8643541806598867 4.613704691225707 5.824407951370516
C 3.1941550600962634 2.2065780573829836 4.91406417392616
C 2.104651702579807 5.008801405232615 4.583345085620855
C 3.3240688235651565 2.0469358903341406 2.3361085459873903
C 2.3770762148624276 3.2171350136863386 5.567789847819558
C 3.9771040026040403 5.0857330409532295 2.9033922552407803
C 2.6268148933261766 1.7955760428262455 3.6412818991723337
C 1.5165433888828963 3.7133532831804237 4.478097999951226
C 1.6656424763545319 2.87416114630079 3.338548681045377
