22
Energy = -174.46152248 eV
C 7.193419848864459 2.598967918387524 3.345058487018646
C 7.854417790456908 3.6354952854208826 2.9048686098456264
C 6.148743868490201 2.609596907054185 4.2772401942479386
C 5.938154461337002 3.9252554431013893 4.657372752255289
C 8.140930858684417 4.888560668036614 2.833035022279711
C 5.202356169271726 1.8496165835301666 5.036880684855128
C 5.990069095673347 5.140664110836142 4.795795586244745
C 4.300455871974911 2.01543672799163 5.889825213802695
C 7.958549463928488 6.148444954076307 3.1787766288574852
C 3.5452175200901737 2.778071587490782 6.695936929018115
C 5.838085224707535 6.44823186687729 5.132172177070818
C 3.0701750760214197 3.7789135470534796 7.276321538451592
C 7.5365164349320395 7.228321149841308 3.7131868688932204
C 6.55693271753777 7.609397151861938 4.652593986867128
C 4.867335099592006 6.822222233349797 6.070014021576681
C 3.1610872423132377 5.164209617318313 7.394890187934666
C 4.005924077694531 6.056194434753198 6.753147538948185
C 5.950759805902079 8.699172872019465 5.354738211192667
C 4.925794041224074 8.314311654792087 6.22852975027607
C 3.0104037599370184 6.523372843792319 7.724826750833213
C 3.943215897083178 8.687253300979252 7.170346858762306
C 3.161608952261919 7.881520252935598 7.771506185293039
