22
Energy = -173.3272407 eV
C 4.913603040769822 5.189617677810702 1.7032979002414768
C 4.353219744270903 5.407244101039974 4.229296514324372
C 3.7725603097877785 5.929942563947559 1.7211954602705302
C 2.949631413892624 5.533148772135992 3.753196810027948
C 4.7319430784985945 3.7127820816063837 1.7310350558436778
C 5.205870453540526 4.940864065135305 3.1447380616305343
C 4.642143896586079 4.778645336824071 5.444261985503774
C 2.153552875348792 4.392786842227649 4.24250779105114
C 5.348104101536018 3.492271595755433 3.0437270389941244
C 3.5936743050019477 3.0340265347820163 1.2308577841298067
C 2.856323022831001 6.283186233937093 2.543027259521931
C 3.6269799782683707 1.8390377640455464 5.956566346095325
C 5.179662854868896 3.414294576036167 5.440465466755695
C 2.3769025362823877 3.85928105176016 5.55545268052761
C 2.1229057039673247 3.208226731683363 3.3343461243081154
C 5.015130283134544 2.682658850679602 4.199065175007554
C 2.4220309474586648 2.019888947274878 4.100654185057547
C 2.65093336489556 3.191536136942665 2.0603702656925558
C 3.6188172958922222 4.1307429231826776 6.250309798287694
C 4.3717695765796885 2.8953931171486365 6.561377384665218
C 3.909301100788183 1.7866005613783167 4.5209779562782275
C 2.372363377181154 2.4068045587332008 5.468846206761452
