22
Energy = -166.16341755 eV
C 3.592456032971561 6.006623129723244 3.945904326199602
C 5.220505380856498 3.174120341101922 1.8965597354820534
C 4.577877596344324 4.726927625809938 5.764116879796604
C 2.356415418845079 4.425020049410774 5.219242758137406
C 6.174711701131355 3.774438833954356 9.11076251780394
C 3.8335077148663728 3.1510157392685993 3.8826977674727465
C 5.025003711607218 5.966421041485612 3.7241137520018204
C 6.770883641508171 4.707095261443308 2.7231133909623364
C 6.3306648694546235 4.186281956396268 7.720107648801614
C 5.860123694774907 5.849789397347345 2.510404312094276
C 5.160847246763744 4.61786893546323 7.069428831731463
C 4.9875477178416325 4.253111895857822 8.429820346775575
C 1.7618815983147114 4.416709124111081 3.92602495630978
C 5.17017506943569 3.115707519152871 3.2976081739631673
C 2.775785657410008 3.7905711694818747 3.1083455883872597
C 5.557303215884464 5.056588331616054 4.681159517365744
C 2.64297943615255 5.252738944844413 3.127047205085935
C 5.334994347362397 5.551748445394894 1.1838954655086187
C 5.954701204366936 4.275249333473911 1.4740704432490366
C 6.206329856918265 4.057891164101827 3.8465347321684518
C 3.322275628110905 5.491424175369261 5.273883363412522
C 3.541795193548806 3.5885439105123202 5.202788210539165
