22
Energy = -174.08448998 eV
C 7.4303321988525965 5.821668212713783 4.086609147916243
C 7.682679053708111 4.465079248764094 3.8441660354287994
C 6.707178404651103 3.6931793018296974 3.9917518413595463
C 6.468283110330159 5.927925280761483 7.463252607614999
C 6.972734639413545 6.7208041266829746 5.059106658653613
C 5.909974033112131 4.532380784065887 7.636653816021555
C 5.374592065892389 3.3362172528076717 4.200555342669465
C 5.2550811366804595 3.523478805769427 6.887038864254784
C 5.138889102323161 5.627768429176487 7.918219531104727
C 6.278864712157274 6.727747545474173 6.29554010291521
C 6.372016696234777 6.699999230382005 3.7846956460956167
C 4.934262139430784 3.236922539716929 5.553581019919278
C 4.811959643458084 6.896444805965608 6.095895676142298
C 4.444637575442262 4.07475002654834 3.3707787869117487
C 3.9034459524954865 3.7989377963932944 6.372867689236001
C 4.206095125197794 6.6870496855538635 4.783684079411037
C 4.987358407816765 6.531658287283289 3.546598413066232
C 4.10797545792576 6.081492538582468 7.045470734482925
C 3.345835740989267 5.089243474533085 6.259957109548454
C 4.40422262770676 5.408422390991809 2.8721166852762345
C 3.356789290995944 4.882043063611016 3.7121703040686764
C 3.227178319336716 5.616375064264876 4.92001976484609
