22
Energy = -166.09080961 eV
C 5.8085546241410855 5.241560328184696 3.5322235057990174
C 2.24292641404546 5.908222210042033 5.044437426519497
C 5.10886675000343 2.940238797011819 3.2648699309790286
C 6.248362145379865 3.7052433070039923 5.366252242562172
C 3.875851400005644 1.1478019040454288 4.6597233147545545
C 4.045902712821214 4.413210022171027 5.820430556910447
C 4.6702533763312575 5.238189189898579 2.6938969252530613
C 2.329513835269299 5.386302470172262 2.8229371298977326
C 5.239630154972109 0.9755413120582759 4.886222178417781
C 3.5626539374040527 6.145519881182807 2.507612172434908
C 4.876765731726413 1.6170955392806334 3.618275202185361
C 4.542919111633799 1.8876021996811205 5.805399998209284
C 6.34559387639152 5.083795327132977 5.820483441871655
C 2.8626933766638807 4.639650717184514 4.972907462990558
C 5.0096497530632815 5.51668920928733 5.87424645407864
C 4.122006899616745 3.858152192601246 2.8144945590552126
C 5.85747241448848 5.958759286047406 4.773261113591704
C 3.2274592436360434 7.297019666482303 3.2982054040570623
C 2.137745071913893 6.566335269317372 3.8602810060489756
C 2.8844916827892852 4.267457205500168 3.528190064421774
C 6.097841542495049 3.819672784409132 3.931352842987214
C 4.885650358163899 3.2346608616004477 5.885395927555729
