23
Energy = -174.45769594 eV
C 6.473273355523309 1.2077860753820393 3.3823790832627947
C 6.281741857755757 1.604789041421132 4.734937591750299
C 6.015502674028991 2.6360193842041793 2.9188980592776663
C 5.359107488648993 0.6141213462446136 4.199210333473854
C 2.9629829326465966 2.6103398256963417 3.00326916349068
C 4.996135445801252 3.1411015185140734 2.2531423318049346
C 3.2361111432353047 1.46678090724531 3.5240621213972
C 5.977306181233614 3.0309456445846172 4.408227379092302
C 3.7737922123369736 3.676210396380693 2.6018004866885436
C 5.4080683287525435 4.179610614055366 4.813002851547204
C 4.031399428432592 0.6016242490720929 4.06735786607274
C 5.12922264587761 5.323977379218318 3.782243858293902
C 4.352397704730903 4.642055837100942 5.722811099651273
C 3.700155208183998 5.046302470915757 3.229682737947448
C 3.2649597216507797 5.005863341698226 4.813549405876288
C 5.519931048659112 7.27632003400417 5.260006638842815
C 5.539257293593006 6.549726562266829 4.219322354087401
C 4.301733672153912 5.67042111418241 6.683811005700122
C 2.8505271195919857 6.221279403389563 2.7913217698369257
C 2.4583121782754818 6.84927056917561 3.806449432904279
C 4.660831388720166 6.997975993954567 6.317003003267047
C 2.649526976103877 6.282707216210722 5.102908716304932
C 3.2671483886149724 6.693789509627493 6.327811329138811
