23
Energy = -168.12716674 eV
C 8.160245444927472 6.6833759081317785 3.5126312733823584
C 7.368487850383898 5.657596383069658 3.2845124583776526
C 6.900716083983545 7.026270120445303 4.257387248872515
C 6.206429806420261 5.417309155847722 5.937215261546669
C 5.832540686202923 2.921609018151304 5.781170852737321
C 5.93702888039501 5.407513415642433 3.230825015899141
C 5.754298841623235 4.204045908410879 5.366712539104134
C 5.435227804275347 1.7241931465031033 5.882879152917887
C 6.545457331859663 6.56606973932288 5.563392377164762
C 5.599508900501388 6.765418380516231 3.5851541727480294
C 5.129955607881747 4.4970338374564855 3.960756089239718
C 4.387392597254078 0.9826095193775958 5.431072531701427
C 3.1244145629343025 0.5194132966193934 5.942034497122072
C 3.108577688424733 5.995401499250891 3.5727101970033885
C 3.6933964868931444 4.719863860044003 3.711776090285044
C 2.8049527444061364 2.3903458804760285 4.236163647381848
C 4.004557716816819 1.7641122892947507 4.2057563433410055
C 2.4733235774542384 1.4755428134821051 5.272679434079614
C 1.4823571442140488 3.926628767714912 2.6051028544190067
C 2.2794910604120484 4.968908169819106 4.616197026631505
C 1.0437996341789022 5.16893430677418 2.4149414538374825
C 2.45535254759068 3.6921258776096115 3.6758751534714262
C 1.7426668217562715 5.867645343068004 3.4235296841654197
