23
Energy = -174.19160673 eV
C 6.9363862530303155 4.803204601235969 4.812926889884978
C 7.867197940849665 3.8212703965963852 5.082248173665825
C 7.506090943001282 2.4309930346337167 5.526453928418207
C 7.18467960759297 6.118768523050218 4.357122032145762
C 6.234037800232632 2.1649568274758537 5.684821979268936
C 6.250229480784823 7.048599675509898 4.058260249278068
C 5.491896057590144 4.401819496438228 4.9979747146738225
C 8.81353083371669 2.8703018048105826 5.340175036066037
C 5.10970731120931 6.431505151345809 4.315748555892232
C 5.191561362990964 3.0223750539494394 5.466217769094345
C 4.509008300263895 5.346025153901059 4.705759806963957
C 3.806755937568212 2.6973420465703564 5.632302988680382
C 2.5894524140404007 2.7105093212991496 5.036914996157786
C 2.2515895481887878 6.075374851390644 2.523469735055904
C 2.6558378631279367 2.4029039203210476 6.419929574221607
C 1.0476973163740348 5.436815704227656 2.99287478437616
C 2.727451552527685 5.675022542400984 1.3243207866166653
C 1.9119260145936179 3.0396722438212493 3.820874014336028
C 2.2474471067379076 2.6596892373027523 2.534590592823982
C 0.9498348791377168 4.129185021729978 3.6588885494766603
C 0.576705815304089 4.295309214042968 2.2852486458532355
C 2.2706584785339037 4.494862896852554 0.9813364799388957
C 1.5392775284564926 3.483521947388552 1.525358623071259
