23
Energy = -172.26103864 eV
C 9.909572939977176 10.582837553865328 11.796114994799687
C 9.909572939977176 12.891141800000003 9.776476746574096
C 11.10002600939257 9.909572939977176 8.16765593314529
C 9.909572939977176 9.909572939977176 7.318712185908436
C 11.123113239533817 11.190286834828488 8.791478664481362
C 8.961102526332937 11.641066016242739 11.386296325535797
C 8.69603264042053 11.190286834828488 8.791478664481362
C 11.22330412487798 11.861042182610959 10.042592093146519
C 9.909572939977176 12.00279342229544 8.593098663750995
C 8.595841755076382 11.861042182610959 10.042592093146519
C 8.719119870561796 9.909572939977176 8.16765593314529
C 10.85804335362142 11.641066016242739 11.386296325535797
C 9.909572939977176 12.78358207419826 11.52665236387922
C 9.909572939977176 9.236308326089018 11.796114994799687
C 9.909572939977176 6.928004079954351 9.776476746574096
C 10.85804335362142 8.178079863711604 11.386296325535797
C 8.69603264042053 8.628859045125862 8.791478664481362
C 8.961102526332937 8.178079863711604 11.386296325535797
C 11.22330412487798 7.958103697343385 10.042592093146519
C 9.909572939977176 7.035563805756088 11.52665236387922
C 8.595841755076382 7.958103697343383 10.042592093146519
C 11.123113239533817 8.628859045125862 8.791478664481362
C 9.909572939977176 7.8163524576589065 8.593098663750995
