23
Energy = -177.83532442 eV
C 2.9150214000474906 6.3982427965680335 2.5636072772778244
C 3.436569592311901 7.374258585098352 3.1835753696004567
C 5.874110732096796 5.266640083339939 2.680499123325234
C 3.5676784690251133 5.216235601687408 2.978032287522883
C 4.127283567695777 7.503479208605628 4.369599687945987
C 3.5736068228544924 3.848678982639863 5.184576720168887
C 3.4642164437681005 5.064887801245917 4.480811507099463
C 3.939191106687629 6.256960614707086 5.149102163764321
C 4.730684473322851 4.727973402113944 2.383755173758118
C 6.799765721633658 6.04195144158563 3.1747935435520995
C 3.9553368515362597 3.9122549038494605 6.586926452446254
C 4.012022687632393 2.505214970457491 4.847802360551909
C 5.518020258772464 7.822095433535653 4.58200584770465
C 5.086522881056246 6.002384292770714 6.044964898658625
C 6.5917826465722635 6.92675994272873 4.188132502510798
C 6.092324915523487 6.922159368656005 5.517316652607605
C 5.066171816703291 4.832980683239555 6.777145779966437
C 5.309829688816429 1.9092428525642378 4.863462524563675
C 4.483501670538974 1.808883455730819 6.015352190581693
C 6.702199289401645 2.2929499418838493 4.998621142790571
C 4.634928883606377 2.689516401756549 7.084242364621995
C 6.77788968056068 3.1009633563613908 6.014834281993119
C 5.839907155485923 3.5819086101407103 6.931019806142414
