23
Energy = -176.45992027 eV
C 10.342918655950244 10.551399823257398 11.654672833373992
C 10.180258786277758 10.861313810170774 8.50770889129492
C 10.895766839408775 9.540364864958772 8.740993107510048
C 12.28201048706103 9.643356231350792 8.814744365655262
C 9.004367230241094 8.178619809380544 9.795837893459227
C 10.232651616451296 8.718639582476571 9.828496709270308
C 7.730723119042053 8.123505025635692 9.892000561468068
C 7.892172757094929 10.250341071237402 12.017727900505587
C 9.10716729149482 10.718138112846344 12.158511679612982
C 6.897806615180493 9.858776596022789 11.328351955498057
C 7.91685310433808 9.90975018864644 7.8021481383466424
C 8.8649141105592 10.901386114828762 8.154990393652438
C 7.611062605857482 11.401697565853462 8.799079181154696
C 6.911968779582234 9.254908608354299 10.040173875009929
C 7.033761568987409 10.127292628904677 8.916005516760816
C 11.065197513669826 11.545539638525236 10.851997067675063
C 10.836263839098793 11.763577834668622 9.459506759167295
C 10.82956763330122 9.197736214261104 11.15736961877115
C 12.106606395256248 8.794605612811187 11.35416865244166
C 13.058608004719277 10.68421064023552 9.432555573513994
C 13.310992334918891 8.4779311244304 10.964212527239903
C 12.170691933060649 11.65985378137258 9.973957550156443
C 13.230680300890942 9.350066743343785 9.867800821469327
