24
Energy = -181.72004578 eV
C 6.414713250534394 3.576677512354597 2.9934280784946017
C 6.541970572720609 4.039024987766612 4.341944310355157
C 5.133312419042592 2.029160975328842 4.44383584655111
C 5.735328250983858 3.1811844868463948 5.190878891586659
C 5.047604481278153 2.781158202920126 3.160251515193879
C 5.498888504096365 4.740403538887788 2.971239393133481
C 5.877519211024785 5.378643136196613 4.226674084560324
C 4.793298756996235 5.3587618750409 5.199696600260106
C 4.649147941447807 3.981388733026535 5.653316800118275
C 3.5295945734384366 6.010860604371302 5.213823813623426
C 4.268985734397658 3.925442145292604 2.8703686168939146
C 3.438257844694795 7.138438673810805 0.49704504200771626
C 3.3558400064776466 1.4860404540314227 6.770087840755343
C 4.160613277627878 7.92723617551457 7.073687624982246
C 4.300899892067658 0.623366332325587 6.446619288328046
C 2.970724427306783 6.297640517035463 1.3795761902592316
C 4.235475573955592 1.1973162558019856 5.113462356253881
C 2.618657054166914 5.544773836446147 2.343527138036479
C 3.2107428774450066 3.5207794710341536 5.486004129725685
C 2.4636389661922355 2.4307556438929914 6.3259008294794015
C 2.2378140480181457 5.9116206886801095 5.3772319208029415
C 2.985524926068914 2.1144246597374394 5.015896844072082
C 2.977017945646569 4.590648519377602 3.2423988071944727
C 2.616092906495017 4.654629512888078 4.670956262498036
