24
Energy = -182.51073321 eV
C 8.007955712257212 4.980011890632506 4.6641265846818385
C 7.0843947434594785 4.589937726012694 3.6126571731720416
C 7.907518826911291 6.336684163266712 4.938077208047725
C 6.615012210941877 6.786590772105891 4.391956731361976
C 6.368842409927033 5.867933745170779 3.256352701559351
C 5.087621390007027 5.5933104264926925 2.6252615200827303
C 7.6751277653601795 5.386571257213674 6.020292282571859
C 4.05328419952287 6.478977431626953 2.7823062172366813
C 6.055849240307921 3.7124260838144987 3.7331759120975834
C 3.292314194737073 6.5810162297911745 3.7967753210855473
C 5.763000405316621 6.573028920588312 5.540169279730447
C 4.7662087887637625 4.2238035979491615 3.1682270978527085
C 6.350056841998029 5.628764712638738 6.476498682419603
C 3.452838440713079 5.744194587560007 4.881976323942293
C 4.319702318797736 6.177167979133147 6.000358461324897
C 3.8264300339918274 4.4117129865043445 4.4100507359170855
C 3.5308293396249777 3.2671411391962035 3.1891346553228197
C 4.1197987384453 6.490548178877843 7.485986764916356
C 5.014280714449152 5.104134757215144 6.881609361248037
C 4.168927599465302 4.114778715775831 7.5839749863674815
C 3.519030685635551 3.0480107144547164 4.575791704946398
C 3.4181647920887106 2.506880168399864 5.8561826604394165
C 3.786056103849499 5.3437718302098425 8.114689576939528
C 3.577466258115783 3.0315805073244273 6.984810080179582
