24
Energy = -187.27977468 eV
C 9.001137085175262 7.108567344960762 3.2838106116239953
C 5.666768048859173 7.810363018656264 2.8790001169947543
C 7.84212370092577 6.730306916834767 3.789550174303318
C 4.422056585382723 7.786567841082712 3.2770385403101145
C 6.3689036421695695 6.81446913105212 3.5657784690023404
C 8.039807214502549 5.752654065997558 4.896380747795002
C 5.73731554887187 5.713393916294341 4.286754592873787
C 3.339390114283325 7.648661785703788 3.978778404753642
C 6.811736537181872 4.953747017944665 4.918191847822487
C 4.389373310462259 5.531580732552615 4.739149596546959
C 8.653792606060042 5.552008559316185 6.09777459681604
C 3.416478513412062 6.612420198263475 4.923340566595543
C 7.85126813402356 4.703720781733615 6.957511339643425
C 6.7657961342934785 4.175272510654412 6.06864337416013
C 4.784776633754147 2.984900507587372 5.146944095003791
C 2.8361105363698673 6.535547141636907 6.229617358439718
C 7.424435921580964 4.912455285642976 8.229906768147346
C 4.200628370965943 4.259046766700963 5.495752358415428
C 5.481248952717737 3.561014111884066 6.332294554326551
C 3.1585696401268697 6.146173256365841 7.3642405328391485
C 4.40600237367513 4.311107507061462 6.934456728517601
C 6.318123454649467 4.993618347396409 8.906725993824946
C 4.079726384919388 5.220921556438245 7.934884600442486
C 5.086730195828088 5.370140118151833 8.924928763970797
