25
Energy = -203.09080424 eV
C 7.881342150484193 6.463172707607469 4.734716563274106
C 5.809529091381259 7.80942308702069 4.676187229826965
C 7.1603224101403695 5.310673737916024 4.511043909862401
C 7.204770901455421 7.767087089425998 4.921144960992216
C 5.024767126437237 6.5044100683258534 4.514558421605639
C 5.708243802464731 5.290587545889858 4.542203096634989
C 7.194609656021807 4.486907267005487 5.792221512841723
C 4.912396296703989 8.2224763666897 5.735342725362231
C 8.695069487163089 6.218694963831878 5.949245640468487
C 7.696641530090226 8.287657650825025 6.203500029122599
C 4.249207664458208 6.869948626772305 5.660647681863019
C 5.710525417724014 4.4698986474865965 5.768443520556703
C 8.7346899872138 7.336769793560374 6.755122347959485
C 5.397912599630161 8.390754470216672 7.027104923662922
C 4.376184486314918 6.209023109654676 6.902206944959234
C 6.818447929397328 8.601610319353655 7.262684429219669
C 8.123730967534332 5.056255059481723 6.700535403356782
C 5.001244427450107 4.878821848537998 6.951049638122305
C 4.988853416857132 7.199622630017215 7.825446751119893
C 8.31556460750984 6.953187027452131 8.094746150027516
C 7.900826856934492 5.5349400145164225 8.06634480704006
C 5.69080151841027 4.477557221722091 8.124013316661383
C 7.191608614883331 7.737499962518282 8.404408172418563
C 6.540874550069475 5.452998697840702 8.58560984618529
C 6.050940460879268 6.8491280439401665 8.670577934465314
