25
Energy = -189.60775247 eV
C 2.5389444741564633 3.2785723033746232 0.7983599337275409
C 3.6172670016741533 4.1888816271780644 0.6437655589356281
C 4.630872869811222 3.614131678761237 1.4836625582660816
C 3.8853113470562786 2.531855053050327 1.0957685562898094
C 1.4627941300127496 3.189500755996841 1.511546194097988
C 5.955959492499617 3.2092972386024967 3.4742593063620273
C 6.104229086702018 2.431936495978743 4.4776796387870945
C 5.380651206554327 4.087767597442138 2.611503428235817
C 2.2139645999690325 3.3835291941594168 3.834646812227039
C 5.143538139539574 1.6403700359139348 5.340973029196061
C 6.456842451425866 1.620315849861496 5.646258768081535
C 1.359453118785598 2.6904628333324494 2.8053251246861732
C 1.5257511019730907 0.7685652734353655 4.08874547510337
C 4.8669324726588306 5.370642372466776 3.105402825522026
C 3.758201742098554 1.673480789801715 5.2889410648145665
C 2.5470750974178165 1.1048355435730843 4.904988683240386
C 3.4050409151903804 5.658289594678064 3.0047438655355947
C 2.772126543339571 2.5455235116599693 4.765525680336618
C 0.8994861766125255 1.3929368158588917 3.1801741720172876
C 5.379435550639371 6.187075482182751 4.125770360759141
C 2.5650971775312432 4.8267710739400895 3.881489074236322
C 2.470710733679328 5.513156976527032 5.109679206386546
C 4.378355698701004 7.042066397660233 4.5887864682292
C 3.298208878948864 6.981770712911536 3.622690661425181
C 3.0536228337503992 6.798551453875171 5.043761452795144
