25
Energy = -194.88826695 eV
C 6.182605578781552 9.72699942722375 8.723855627758189
C 8.176028533412017 10.664360998225245 8.881114441707805
C 9.660667335452759 9.55421228890557 6.919424489546443
C 5.9294623707501435 8.855534653708403 6.57912183406822
C 8.745241219303383 6.555474662892137 6.392871353864668
C 8.108771570100554 7.7322440274048905 5.751650686483401
C 9.009886018930446 6.030944103951655 9.184937981265257
C 9.23518680329217 8.351994527468246 9.163561671569036
C 10.188040366955828 8.330072600425135 6.512805525461805
C 8.078400357212155 8.534003857357304 8.223342082656607
C 9.07343707776994 8.773532887289733 5.779119537357281
C 6.852413670804872 8.368435353116826 9.07792912708917
C 7.98559592083508 5.3718936877695995 8.434560011592708
C 9.017815129916908 9.653225645068954 8.300142339633732
C 8.049051508475724 6.619329696436943 10.164576663822642
C 6.985980804102023 6.012465754102178 9.34576567162764
C 6.3243678824649505 6.973449802361448 8.578538556181817
C 5.4825040762574195 9.577769577985984 7.517717268766777
C 9.959947662509501 7.030778584162163 7.097041927366516
C 8.067802573553669 8.011942380061853 10.108339313640283
C 7.749205483989912 5.804041818249678 7.087501868612127
C 6.940323702523825 10.83293043804113 9.16011307153459
C 9.777289079525723 7.050013367690125 8.526436698832217
C 6.582543986371453 6.682981237322752 7.149578435265676
C 6.708197586617872 7.772134922688323 6.210720114205568
