25
Energy = -196.59941861 eV
C 3.478885995852952 1.036972494068641 4.920439855179772
C 4.713447452026465 1.6232814986228397 4.491062268201133
C 5.838935771682421 1.1844866927931768 3.880098923716092
C 6.843997637690416 1.9799634339464942 3.5810477678428283
C 7.299930585553944 3.1500241052679936 3.577436954289847
C 2.6973280606565346 1.8890728211068168 5.418772030051136
C 3.2279547872006864 3.2236314553364926 5.457663388779794
C 4.565975978798726 3.1133491847108763 4.877899256540519
C 5.436417549257073 4.251576725015814 4.7769671803489215
C 6.780842991506108 4.355611525664889 4.087323489540363
C 9.21681411527204 5.88540220707889 2.595752506505294
C 1.3761183859902524 4.778499951260374 6.396002113771936
C 4.874869284306646 5.4337950771202355 5.340695339887434
C 2.6649239138705987 4.44716562998325 5.907244849532485
C 8.307560791853877 6.608608932975296 3.186557837924998
C 1.1792327489311853 6.033078079919794 6.650681461708759
C 3.5664871380260337 5.554653679134062 5.84932543763225
C 7.375775511239085 5.586365474088329 3.9142398957742395
C 1.9215104552753572 7.103279532547374 6.63125715915767
C 5.429752555780285 6.7371835181574395 5.5446434582636455
C 3.233823327034361 6.95214997098009 6.2082838835479786
C 7.217569182612966 6.949645850420498 4.041342520669885
C 4.447961322472935 7.70467489657285 5.938611089291437
C 6.284462411984472 7.615449849823908 4.799231831360158
C 5.049492504159909 8.446528994144929 4.8519366533685595
