25
Energy = -201.49344687 eV
C 7.092161299458282 7.091158932456708 4.307076996950132
C 7.022248887088782 5.707483641640278 4.490229943303263
C 6.058142892805333 7.857917786859663 4.915115787939898
C 5.7418794422229995 5.021908828779714 4.761839548965513
C 4.648885261157976 5.84671208106875 5.210935699296727
C 8.073580060132773 7.644124470114478 5.307143534435489
C 4.816497161004598 7.289951471272576 5.289007569651314
C 7.02865775171863 8.423775239078525 5.943753640550996
C 7.978624362742779 5.388447359095636 5.551710485234006
C 6.006251375319352 4.134854664412977 5.829745798625443
C 8.78543304470209 6.559242468004169 5.879336673585136
C 4.16103930787094 5.404903472375202 6.557052006379616
C 4.339379717664712 7.689697002749544 6.592377567444801
C 5.144145704333814 4.474350584163606 6.981767126397252
C 9.938670413843754 6.679972890174482 8.427554873806328
C 9.36021132155269 6.684804317535777 7.160979118447954
C 7.22710597063963 4.569253178061708 6.478237271716506
C 3.8625019064312243 6.550333272841868 7.357459967449871
C 8.598939138603194 7.1152618421586995 8.26401021382271
C 6.615885238975292 8.41273131264139 7.325190113634716
C 5.209527876220709 8.299721458095508 7.579790622251363
C 6.339194492295754 5.025170957638857 7.63145092268488
C 7.24018497562833 7.366956457628246 8.160723117048878
C 4.978231016535679 6.978780694627315 8.201421209385401
C 6.242067636854229 6.291931872327058 8.305536446794399
