25
Energy = -193.49080473 eV
C 7.156044407870982 3.7994026002074595 5.381094264343382
C 6.857859003806241 3.189559919451343 4.026353587672385
C 5.62585644165678 2.042625371619677 5.602139349328776
C 7.305042923560871 5.2823866674115845 3.661227492378372
C 6.701779473241604 2.763345379855371 6.294997151807556
C 6.168719842410971 4.91488121222547 5.56735787712864
C 5.650416070290864 2.3520036459322227 4.209433137030174
C 6.723525280371854 4.140736791267627 2.987821597594309
C 4.675915821781951 2.819564283789919 3.331881523484557
C 5.342353263647748 3.0504367567625663 6.556495767774514
C 6.161616121032585 5.713641858072933 4.357853818688876
C 4.946686710308127 4.4221043706994365 6.206964547108108
C 3.645450187007671 5.9160240189504325 3.8847046990003777
C 5.0720732190759525 4.239468228932183 2.8032699862208443
C 4.936900307597671 5.468838923341991 3.613645383203191
C 3.6574543070151133 4.949642933800178 6.103411076252081
C 3.2995541404154354 2.7887085101012943 3.0133844440962427
C 3.167157875526638 6.079316599966768 5.260700860942648
C 2.5362578439086154 2.4414707407158294 4.118931075742329
C 2.7023935432272963 5.100440823781618 3.1347540481007314
C 3.3796794916145623 4.1199479872787705 2.39077340856933
C 1.8829074983327314 3.4736901883790976 4.770484215796207
C 2.307154235432588 4.339197622938686 5.90443944485852
C 1.8085276515545172 5.600764916261554 5.292517820642107
C 1.655484434985723 4.778379753997496 4.107881204888135
