26
Energy = -202.14625683 eV
C 4.869133340814975 2.3882518694907198 4.5474761001424335
C 5.403515587804653 3.0515324429195414 3.39072736291597
C 2.2642196235587497 3.503392958108961 1.5733104519630539
C 3.3164827715510192 4.427204488733858 1.1884745369626804
C 1.6770252245330448 3.368924723956919 2.871012781431461
C 5.314582628984769 4.796610859908981 7.240985400277719
C 3.289492276191208 5.507279493207819 5.802650588414255
C 4.375585476677554 4.924391727939569 1.9607664452873677
C 2.1454169838038673 1.0527356326390367 2.0164880749654976
C 3.982977179911925 4.617441668958417 6.759490835032099
C 5.932234153601181 5.200819690218551 3.9123853761323546
C 3.961939960572561 6.1938121885336415 1.3582827566549285
C 1.825390831965889 1.8603395951231585 3.1663982168732305
C 2.3912339312856035 2.3579068747904115 4.348439513870496
C 5.1060772390922065 6.244471315328757 4.384391556652997
C 6.155163396352969 4.708346978349294 6.317121488022477
C 6.478616658382061 4.380110193312797 5.00408737426739
C 1.9124349536319014 3.7607567180718955 4.246719055252323
C 5.331023092646411 4.38596827606381 2.86685987270884
C 2.3983301575180813 4.454574277563562 5.326270476741809
C 3.3215438387250593 3.541474820128983 6.093510978269261
C 3.6035249981943065 2.4355566372310467 5.180692068565663
C 3.784585250930504 5.359833631463591 0.1792855853455464
C 6.108691250812337 3.06461159013595 4.6239962695838175
C 2.4337003044732266 2.1088572864049344 1.3405499503661893
C 4.062559119185051 6.392157858855794 5.050211883454151
