26
Energy = -204.76344335 eV
C 3.7441871539036478 1.2635296816880335 4.455314549934265
C 2.9747449200791674 4.950128821074784 3.864551056921871
C 3.557787539660163 3.7108782696680214 3.427877858276082
C 5.318660840807278 6.286138088021025 6.284881039115673
C 5.127205474829079 1.230636824063354 4.0924931067735795
C 3.1376243034598152 6.590710870265795 5.225203643064473
C 6.148512061487935 7.243248166946298 5.542699020130459
C 6.2022037113303226 4.196760286137629 5.139263373694724
C 3.361886336738608 6.336992866049671 3.7548639697586705
C 4.177591082670756 7.198655747880166 5.951007321031793
C 3.179573862447126 2.6021995408785505 4.35425785714656
C 3.590160596629395 2.9710155036644323 5.7135510164862415
C 5.179093623703401 7.972699884315247 3.9782057793812187
C 5.779252648633299 6.065402422151932 3.418975683988879
C 3.8902550833512253 4.329325052599376 6.034129594751327
C 5.6458843884642524 1.5923907330253309 5.469346529209521
C 6.300603115743595 2.813702277650137 4.935977080372677
C 5.812803898004049 4.743917540118452 3.780841002983288
C 6.426566129842993 7.156947295255521 4.149680751672624
C 4.9975752984658355 3.636545770494338 3.2460145731241234
C 5.004240888294834 8.253225002946708 5.370546203664095
C 2.958450278635682 5.187072305076273 5.346958841069521
C 4.266003036027969 1.7133421896719572 5.823388451546507
C 5.248016219147921 4.893404690095836 6.121483045842873
C 4.539541865180598 6.91212426086111 3.198845176638775
C 5.7234127486610875 2.4408434141640294 3.6114809781848907
