26
Energy = -198.61015061 eV
C 5.467465943410895 4.323524266308605 5.4756180523657125
C 4.296246107637419 3.5443781597306874 5.346884430185098
C 4.463653121135612 2.184927555794215 4.8343036370071
C 3.32008271043536 1.6900693164958183 4.143177262246234
C 5.685366929593245 6.518452593763837 4.640229306645883
C 6.032961776284908 5.268748337092394 4.092517287153766
C 2.7504411002812437 2.5981468246747137 3.208877552788242
C 2.8136476746970005 5.710584713400824 5.118623157057514
C 6.6003891695868715 4.063405343193898 4.753837490716797
C 5.581695447931588 2.0196647969923465 3.891085582752649
C 3.147801330447664 3.9486871267780588 3.2744324881034323
C 4.727580627425265 7.285750818361696 4.851155054124722
C 3.622872393829299 1.5184899445323812 2.754273921049898
C 6.743380015806559 2.875347861623472 3.946209464068971
C 4.970001311180391 1.8662423660409804 2.5062522486473817
C 4.2668989413962 4.22900193116014 2.450036785885126
C 3.383594725884895 7.062105779437502 5.195097689162974
C 3.339709773407943 4.412457802141205 4.692373438981563
C 5.101308463461682 3.097261640704838 1.6994589694201392
C 7.178600310376288 3.087628632713439 2.6219922536976354
C 2.2843462113687587 7.914691221222793 5.51506193366708
C 5.489409451766883 4.882155967869901 2.735556784796074
C 6.310894782115435 3.884544999267926 1.9574673921799866
C 1.1910098419389619 7.117035261000007 6.223745059135598
C 1.4155214353589576 5.876257115449446 5.356457791911426
C 0.9923903302730407 7.315777301440972 4.891712819022826
