27
Energy = -215.43726755 eV
C 7.17717904202611 7.032278186483679 4.280058417567278
C 7.803410688174898 7.744638721633314 5.336777909078716
C 8.01690129228437 7.315970590277849 6.488772765352929
C 7.748036493053682 6.020742799612018 7.00736446135849
C 5.0887685374279545 8.501356645078832 3.451842638240221
C 6.111330427075589 7.417247165261849 3.4378823356923816
C 7.259867203395719 5.604232543276294 4.5649554448739975
C 6.991501634068699 5.635232568052772 8.125553938799008
C 7.717435632365358 5.113524589957718 5.837620187473035
C 4.0248071126017635 7.502162311406879 3.2365069492187164
C 2.869146968361185 7.131539483105284 3.826127432229094
C 5.107347687024667 6.474555270528865 3.1016666330499914
C 6.259920766150267 4.479753046147989 8.197807157404979
C 7.197723763714946 3.7978209320465437 6.017883359761216
C 6.238190341555396 4.638567857951001 4.0933082568727395
C 5.011082856338408 5.180073638188126 3.5824456016702895
C 2.809159727948176 5.909058538710568 4.528633293267749
C 4.811325721491712 4.122094112398774 7.95389425556372
C 6.2038033916556214 3.542411172164485 4.969489302254972
C 6.575753840104753 3.461891009982464 7.203498246553591
C 2.358433267790042 5.865428522543697 5.84163801915092
C 3.75844768322126 4.76804644906144 4.187021682391962
C 2.897000719700334 5.3786987862367805 6.9213725700389155
C 3.705752550375321 4.911060003863551 7.797381066866713
C 3.7828597620849806 3.646429535682022 4.975378922910191
C 4.936656096423067 3.12559807853857 5.5693004284121335
C 5.184475682196246 3.041709465159644 6.9944033636620615
