27
Energy = -215.63627334 eV
C 6.444850003877386 2.8382343326269903 7.31534783618406
C 6.449484636813618 3.796126580028499 8.25497791865128
C 6.375703127361765 2.302290946035029 6.192194465722542
C 6.428879943655752 4.9563791625178 8.695735440908662
C 6.20594388853865 2.2740607389984375 4.862302482379653
C 2.775248293748991 4.635568640832268 6.610568175059843
C 6.409489623161779 6.351831850333417 8.522158323187606
C 5.996954896941654 2.6724547040798385 3.7029578397616225
C 3.152955332293732 5.496943195086405 7.445528429646138
C 2.9404699741066063 4.075459648849261 5.417878974050007
C 7.5472836874474725 7.156551309695331 8.27181023086903
C 3.9739151295698325 6.581823765942727 7.312062003320201
C 3.696084585944955 4.179620491458837 4.426092605628464
C 5.6647525858997 3.8164207179657037 2.931983091562047
C 5.303770238963718 6.955466153070365 7.802901230905499
C 7.728856567729726 7.875506567209607 7.2573411768039175
C 4.6441592829489045 4.6742005791987795 3.5491331968343576
C 4.282890298468806 6.743354802156478 4.740212549240314
C 4.840814778260895 6.1196021737918365 3.6257632999293707
C 5.588815538848894 7.736789242352827 6.63981889289453
C 6.36044310955873 4.541228459025543 1.9809525554188085
C 6.8625482782409035 8.129798145432952 6.180266797514275
C 6.496950492218533 5.806834595951359 2.0382594363183477
C 4.348585882037594 7.226322169303115 5.962115602232997
C 6.982716533138642 8.181554103375607 4.763494141061324
C 5.984433874668241 6.7303478510733 2.9117718069536873
C 6.631740282930615 7.755702883723702 3.6663190623720117
