27
Energy = -211.66631814 eV
C 2.7619190998212453 5.927664693013892 3.087955357399411
C 2.3283178597967487 4.8058759829612665 2.204655113789508
C 2.7089127936792563 1.61258112371972 5.868359809316288
C 2.515817101722846 6.074087884133535 4.391080624368377
C 3.3348541954125857 6.252277240859233 5.51300775866887
C 4.527088000099862 4.981971577099911 1.8512611673077535
C 4.120057459853385 6.246069963635963 2.524098721915568
C 3.3687621331294606 4.153106440471097 1.847192128232707
C 3.4914327060409707 0.6884616613316692 5.535699401061374
C 5.538675291116029 6.773432240503851 4.316687452803782
C 2.363519249471772 2.836753584190389 6.2556656462427975
C 5.946065193507204 1.0145749873104513 5.052477982797907
C 3.378542994105406 5.207826630094866 6.528191759939326
C 4.678548315576724 6.924350467724532 5.467879287524428
C 4.782146786332089 0.582613180164176 5.205048589164575
C 6.298854453046477 6.4563669304580005 2.1769362933728384
C 5.225549519379901 7.050931710165388 2.9273462579894405
C 2.6324533292018373 4.036590590591573 6.452722138769298
C 5.955362225213906 5.08679538438858 1.8579819052221656
C 6.632543348946075 2.165115608511971 5.110973399131566
C 6.905146352250028 3.363698237980056 5.27663706166552
C 6.825214094612444 5.3881913696828825 2.9656102528388
C 4.662098310219006 5.335304148530426 7.186815730309408
C 6.512541927625158 5.6290164183071 4.369540413813305
C 6.026548151907197 5.259864882039081 6.658245767295603
C 6.633426941063456 4.716394600974543 5.481106883658397
C 5.3137868884999815 6.454723311231728 6.627737647119977
