27
Energy = -214.37014469 eV
C 2.926737095180991 4.051432765298956 7.172233945281393
C 4.435475877376006 2.791759821239457 2.7940216592520692
C 3.222268834740924 3.483572493531606 2.5530518838522003
C 2.9008933376414654 4.824108271742718 2.955697664666758
C 3.504860634342474 5.889290436108773 2.314019301062493
C 4.505114407564674 6.591814809917949 2.008515846834962
C 5.750353873132765 6.142892601287731 2.5337839423285193
C 6.641923230912447 5.314920284306179 1.8092056739775695
C 6.317153433856856 4.112542477562041 2.052408462776891
C 5.802679210524321 3.18450737618507 2.9222988604760096
C 3.473451808134017 3.1425475490587287 6.302232558783404
C 2.55982927290993 5.24203481731335 7.415811707479989
C 3.3789340599065283 2.6791256289286762 3.7254754953040896
C 3.079148446682425 3.4130163129907536 4.905136785498458
C 2.8271628340076345 4.761000801181923 4.444833305744896
C 3.423968618256045 5.907687105814126 5.218947380725544
C 4.583310965189243 6.190571135896425 4.61271347074614
C 5.754521621521909 5.949127257801674 4.005299169569239
C 6.39072687985982 4.824732837354132 4.7798636290626755
C 6.041332591475907 3.5341152168716454 6.671737831367224
C 4.853733902834106 2.798907653651457 6.430566583999516
C 5.913969929288647 2.724469241223879 5.49921399576615
C 4.649148152246913 6.5948251450578415 7.215899770914194
C 3.4205951787288713 6.1014582494727385 6.690779660354691
C 5.67338130905657 5.928554250379477 6.910406146912611
C 6.314822922429746 4.885116351817565 6.2689635743863805
C 6.187262085967768 3.4686296217735983 4.319642206643779
