27
Energy = -216.59596197 eV
C 4.382420404702474 6.456439724805969 1.1895908438237885
C 4.9407248075214705 3.695272890728752 2.5861381841797786
C 6.114308176980314 4.206154179000747 3.233598601367871
C 5.075813303369528 7.17367960645127 2.083988433013746
C 3.845410901597048 5.331701510760728 1.2915104023931914
C 5.547957913214295 2.9787179783556854 3.6495779966437185
C 3.7354641834106994 4.110009658680858 1.9443734374357073
C 6.655547044395621 5.158664707475782 4.118653758658206
C 6.175192742920931 6.571437523209704 4.2404849453029625
C 5.720211057510408 7.275420594229327 3.1449833877073483
C 2.5271472836080675 3.6380796098476353 2.5283098076888977
C 5.431847894080686 2.532617601137687 4.9896801518981935
C 4.137427997560002 2.1579457150962504 5.539329811265792
C 6.0525767871869425 3.4713491569512893 5.883201417577685
C 2.977559707663392 1.7315488434705866 4.928200728780662
C 1.9531841655886433 3.2630323403978485 3.562663281423175
C 6.841223013614632 4.620778267832348 5.471440137295183
C 5.928452893927872 6.749891238887115 5.655083794001608
C 3.8110915539147054 3.273926358860782 6.473737150908156
C 2.1346332667855576 2.881077036948161 4.892873533301455
C 4.657573926398898 6.4377871365067545 6.379230796222636
C 5.022294421724039 3.9433923683923386 6.828283242941137
C 6.577286899676306 5.667312560196114 6.376907657304806
C 2.5660892601960765 5.21731618612836 5.991567598294817
C 3.3146338758920826 6.21798212721434 6.100855688223469
C 2.58703972585578 3.829882619060336 5.948944887939431
C 5.328520336356417 5.314445636749285 7.03438696928312
