27
Energy = -201.72635152 eV
C 8.142203510397525 6.7921354496278505 6.525676314172093
C 7.1375494202103 5.7467801639072675 6.1557425209313745
C 7.721103262639327 5.826431427674688 7.5362635179399895
C 5.107557257236838 7.25069120628208 5.213173645082646
C 6.894307723328376 7.054546148834781 7.303756054943022
C 5.8069612943575315 6.504072651808616 6.389240885059498
C 5.53699824155814 6.122593467289789 3.00162388228292
C 3.910644351240299 7.860463404282198 5.454282622494112
C 2.7200953819357023 7.424392137832647 5.638753995318243
C 3.514283541755695 5.505954447571205 6.735045727263176
C 4.7330832563641 6.279689986886217 4.086026038621829
C 6.248101253323309 5.760089698969737 2.030510308317358
C 4.725480057178225 5.691836916790762 6.9811508157630415
C 6.83881910028964 4.799737581330761 1.3306980851200887
C 3.5607579905863127 5.473579344093304 4.34687989313272
C 2.854399914281571 6.015822845856735 5.590347181739003
C 5.743208204413441 2.630652361253067 1.8985958561261111
C 6.387577755549861 3.5486490501732484 1.3328276824989111
C 4.572944112198015 0.9491860500449706 3.4120263106157807
C 4.7392373291592245 2.179198500293927 2.7206535695872254
C 3.1404586056765704 4.157578871256402 4.010976533230328
C 3.3117194823282903 0.7732242314875079 3.915602123761349
C 3.535946629179761 3.0022967614673495 3.1560063801343574
C 2.2309661028456653 3.6090291530307526 4.971088542913978
C 2.648471289234133 1.112418979057297 5.117009534426493
C 2.5814459614857763 2.0047559993399724 3.4679555874804824
C 1.9301689752415832 2.281648819402439 4.768096152246609
