27
Energy = -216.50600635 eV
C 9.191536598480198 7.445274466062195 5.385406535653507
C 8.027418501420149 7.77163416759367 4.643065114040408
C 9.64843425061799 6.3659593900911196 5.858184807496839
C 6.909209312570322 8.662884190762034 4.655134902175776
C 7.62405964078078 6.500147042050335 4.090023878245373
C 8.963677179103259 5.134851224210722 5.727558431977574
C 7.969819053112638 5.2297368480010284 4.67325567561688
C 5.8082064646767755 7.954547048467151 4.099076609689811
C 6.228133052021423 6.588429995526666 3.7238404121343653
C 8.637785821153273 4.033875108143147 6.537296910527687
C 6.7422885478118015 4.5278415556248355 4.660802178468167
C 5.694123326279145 5.3541510920658935 4.073594402531365
C 4.437788821084473 7.920205263966978 4.423500491550986
C 3.1896691195792988 8.042794821919946 5.122428355744851
C 7.674256013632088 3.3073693811013722 6.843708803358278
C 5.835414423855123 3.853742419387346 5.519337493800015
C 3.6476078595443546 6.791070931186767 4.675910712725086
C 6.289352899806737 3.1015102951643576 6.693178888580372
C 4.71677161835027 4.760286811304525 4.979822199182221
C 2.2511763621365084 7.819030683149749 6.105842155397907
C 3.539376310303565 5.521032220928718 5.283628770080254
C 5.326084354166783 2.575536078684041 7.535531132070586
C 2.474874874150234 5.4602740499744975 6.367797302286699
C 4.1107754386682 2.6680380655296343 7.801681165930348
C 1.8913149378016003 6.726648112886823 6.618861434155044
C 2.970030646139521 3.320127006388352 7.632686492345936
C 2.4152837754578407 4.316443642415871 7.12697071258601
