27
Energy = -212.60633951 eV
C 7.250141649470197 3.205813219924646 6.3622241474093535
C 6.0556110180054565 2.818225247571454 5.7856665839206345
C 8.014585596014879 4.350605975089776 5.997302373073155
C 4.88005483280111 2.1899213116425207 6.272113632104152
C 3.6493571005270895 2.3502587320583426 6.121031532771832
C 7.732039685139768 4.826572785433916 4.6624834583912245
C 6.830414001587278 4.1221890979069356 3.809743948995946
C 8.597013182126686 5.248835779540543 6.899450311030847
C 5.7866376414991665 3.472970695021756 4.500901242073063
C 6.274526233016752 5.320053388833597 3.099873283830123
C 2.6132696548609404 3.0782044098481647 5.687260609514095
C 4.637281849683784 4.197198539158007 4.077061471272668
C 6.97309711106133 6.02574175091921 4.140407633206733
C 8.61225472214821 6.4187679799726105 7.329575765774796
C 2.2103716500775827 4.144175149359965 5.174108861499651
C 6.1234959301183 6.898992229571818 4.908648595150946
C 3.9713199661119707 5.5908710088654034 4.359913375811691
C 4.836819777413846 5.189993695389858 3.139108184542644
C 8.036759973736537 7.623364855238801 7.330155478642999
C 6.012555361171622 8.004169226725462 5.9613489071051955
C 2.479507266413581 5.453368930733971 4.753186813050329
C 4.759814770175036 6.681123804399127 5.009863248296626
C 7.015649150682005 8.193582012422517 6.86584949591549
C 4.560313795218935 7.882734055885699 5.894804050982023
C 1.8524631683283175 6.586693617376697 5.242396819087143
C 3.328562485747582 8.365779048705663 6.2648489808527
C 2.3385342034860312 7.621909872089013 5.798551420450881
