28
Energy = -222.33136794 eV
C 5.201261969296636 1.1099565345057063 4.538051905927069
C 6.43921229901136 1.8592317079606098 4.575175142541084
C 4.373666033228264 1.4962964577963578 5.658842057112238
C 6.439609605572691 2.4992997310635108 3.3011315328179567
C 5.110338705703134 2.3993542161734127 6.4708128996859555
C 3.4258404546480064 2.2239275897552373 4.756445826230678
C 6.255165532655155 2.842500327121351 5.633510711162291
C 4.261336154989742 1.8144843670255395 3.605210469569876
C 5.129693994004063 2.614947403768713 2.7951903148017796
C 2.8093019556132797 3.4543378158402414 5.1052956481917064
C 4.472646937690476 3.5150069607989787 7.007596924875426
C 3.287495071658181 4.035858857315386 6.355713604894686
C 6.005230956163735 3.7806976906456033 3.0209795973748603
C 2.2832597995148336 4.3941067141716195 2.6821979285255986
C 5.156403222039071 5.936866238085063 3.6267196119808416
C 5.892705411153192 4.8228178360504215 4.022701999662415
C 3.273708112913938 5.099603809407213 1.891508196661799
C 5.0686174930258385 4.707143805699429 6.413900441923823
C 6.056053790963435 4.276258528769487 5.407365714374221
C 2.312112436438932 4.4328518953402964 4.152925400992029
C 3.8068720541937537 5.409501413274138 6.238646807523415
C 4.241894631325171 6.007704065017768 2.41175403999365
C 1.889216580372321 5.6229658783369105 2.1078839746134195
C 4.270681446690088 6.859471218029515 4.2966177572764215
C 3.4290913098907936 7.005236226197535 3.0575410201948428
C 2.2222425953301217 5.843294607992723 4.4364024348372455
C 3.396615185251735 6.279861793038199 5.266926234110681
C 2.0741420092818963 6.5763165866208615 3.1849977784853563
