28
Energy = -214.56022381 eV
C 7.978336045733743 5.0338742972146 4.839529483437101
C 7.054327685662075 4.050488132914934 5.366251152844571
C 6.964238426241348 5.821253459528859 6.785231094501705
C 5.146514564558767 2.3138996347473393 3.7163229949601106
C 7.788678706830829 6.252697366622838 5.6875206727663885
C 6.865486007971999 4.62666446468326 4.078734453567687
C 4.210981981197043 2.844017823124471 2.4450673488995016
C 4.74246608192523 1.4978443639362964 2.3776125043932574
C 4.8647248153295 4.660570840000079 6.755267726288046
C 6.3342077053445704 4.519899211762318 6.502907839280316
C 4.729918004229167 5.980504253462529 7.373406199030847
C 5.924163054183443 6.723985745947025 7.2234124994962015
C 3.7837912460254954 1.7352751965743531 3.577150567621793
C 7.079726506536646 7.085686130000891 4.846740676774779
C 4.751580126474353 3.773829931141083 3.558270837001818
C 2.743176563901043 2.60833946000513 3.9587005690189123
C 5.605648318240954 5.010218144663591 3.5252471038389483
C 3.5226546921380173 3.940638996115526 4.465686800707916
C 4.953661726067262 6.2404882465966205 3.9367393589486332
C 3.848178387039169 6.877751098427806 6.571195434539883
C 5.681581617362504 7.222248885784597 4.811227616410162
C 3.7835098316961253 4.624862244594969 5.808254927927525
C 5.146558221503749 7.41610995854341 6.133526112966416
C 3.3121874596579612 6.041338626500897 5.625342979403782
C 1.4694288921476746 3.0502942312598 3.54058595377447
C 2.7049545717763377 5.017223011143867 3.7360491901721358
C 3.4855830978068933 6.164543829574697 4.164735347717591
C 1.5550832589176016 4.355685616930696 3.414523574552049
