28
Energy = -221.27928959 eV
C 8.097189721686428 4.407659786897974 5.863455649424715
C 8.502167957635141 5.559760960095315 5.1109811090759525
C 7.963751474676975 3.1220082607678163 5.3056218581678785
C 7.224366862174935 4.867563914854081 6.87900011381732
C 7.715150128271409 6.659098622255376 5.413217965871752
C 7.327301194888577 2.3289333044433613 4.593136077751524
C 6.199817134475767 4.307486499687457 7.7797255459517585
C 6.862822536262012 6.237559401672448 6.542417772659783
C 7.247385658846397 7.836159576703722 4.826934388638729
C 5.281070869530838 2.0896816529062425 3.098920794314572
C 4.2486324998649945 2.7224710537077974 2.5476430455957937
C 6.316821009553996 1.977877818993743 3.786617290645715
C 4.834464638899093 4.099502188484249 7.406825512225986
C 3.466903373374181 3.6402315399983656 2.2056500996286577
C 6.003631297328229 5.282436402904889 8.934624732119516
C 2.885840504734801 6.114172248854846 2.395528180812795
C 3.7173039629358597 3.514471977079362 6.899142328644708
C 2.8898560676718117 4.329158702777363 6.356658716524413
C 5.0937726511150725 5.512474116180172 7.837607261893075
C 3.250108757149987 7.223544321663797 3.039300122163226
C 5.511805112148618 6.557437934251041 6.827324532435945
C 2.515760637840085 5.573885306387186 6.103804629954182
C 6.137377971807232 8.3840963054396 4.689371208872228
C 4.5107291135826895 7.257615337394705 6.034698563713176
C 3.0037898803493244 4.8840248228991605 2.1884723707828657
C 3.869283470529188 7.997411056578926 3.795968205907299
C 4.792598306081127 8.080768812361272 4.848278323739778
C 3.3080848355055985 6.564692471257465 6.105491534774701
