28
Energy = -218.31723929 eV
C 5.2247243862709105 2.917487856795754 3.2314375695921074
C 5.398796418422271 5.845830237850093 6.545801230882398
C 3.3276701889008047 6.022886332565325 6.6950588635693595
C 2.6632595046237735 3.844045676085113 4.687847126804807
C 2.1895464199529693 5.723521953298264 5.9800349361702825
C 3.057424727986594 4.209255818467755 3.1951968607847445
C 5.959306401863015 3.4847709182684627 2.1602103307054366
C 3.55230975744222 7.678087030173263 3.9568197717801468
C 6.086458729774227 5.529888020230384 5.339009400062981
C 5.172431842732398 5.6768378596618865 3.1753337934048913
C 5.61109388133832 3.0582125237706825 4.710197803715745
C 4.429091195302199 6.904763563117872 6.2467983570927075
C 1.5977256373508262 4.228520655302773 3.798666437639496
C 4.146221024081514 3.6837620694457143 6.7239513581495
C 2.8698796835604106 7.678087030173262 1.2588022733161948
C 3.1684818223430216 6.757640706757894 3.180666934736167
C 1.7555408119333025 5.139403452074975 4.91772186065324
C 4.716364384747121 2.8416095401789585 5.735622184695089
C 5.514858756587118 6.451099583241953 4.3232948518125065
C 3.746074582903898 2.9128530125349 2.7812397433384395
C 4.299873295149617 4.999419588965774 7.112060643754959
C 4.534056928138389 7.349664792222077 4.900640167729125
C 6.293974062975853 4.2961534278027775 4.650550876767211
C 6.0350987655766355 4.506417571642407 3.1630703752253164
C 3.3167354558725353 3.1306488268807064 5.6946705846627514
C 2.9988338366587426 0.6522739045271664 1.7383525015916834
C 3.7543190354007496 5.528806566621906 2.882087116076704
C 3.2826805416705436 1.801171452531586 2.264078615547484
