28
Energy = -213.19689321 eV
C 6.647021393814138 4.678492135936111 7.545994162401693
C 8.935328954203182 6.1528967706549365 6.611107810045077
C 8.553549597840584 5.940763455997081 5.230617264359751
C 6.811891154868572 9.507123346028298 7.469493993262132
C 4.263637314968495 7.13925944063977 8.496387433826355
C 7.063757785917883 7.87831924958117 4.496669566490994
C 8.939300273896183 5.306987550377931 7.708674466421638
C 5.476401272158959 3.703060190813025 8.04339318263521
C 3.5438734824457816 6.373369132779729 6.469277994327242
C 6.412355947701359 3.2607637107590643 7.03113967863611
C 8.22906663914216 7.5091727601877345 6.567536834835593
C 6.791811548278322 6.903472496170744 8.198298003838026
C 6.034871898723363 9.49328193796571 6.44980075918183
C 5.409005351377514 6.414098315941975 8.691250945003505
C 6.005330987804039 8.245288545897733 5.60577911051136
C 4.417435385907091 6.180329166121827 5.422506823553583
C 6.318512621836024 5.551857840875561 4.235965026898064
C 7.657553223919577 5.57705114833103 8.115579840987248
C 6.107477716289125 6.952239525010999 3.951816952674884
C 5.032567483274462 7.364086158022235 4.782719516816037
C 7.5092662332461 8.21019942806636 7.744837831386969
C 8.233988849521754 7.423087044893808 5.034446444078236
C 5.371215447467115 5.033612567640753 8.273249498002079
C 6.756756095795849 7.304967312977077 6.73303974453484
C 3.29004392819573 6.879076035395226 7.60995453338987
C 6.430113176650166 4.366284383528018 5.997729388261963
C 7.4310954516156364 5.060831466446844 4.990867793024799
C 5.3140408168270925 5.083477886420657 5.144011034229195
