28
Energy = -217.49905861 eV
C 4.9832856956466545 3.7147847555073072 2.637348545302691
C 5.945509601245285 4.259546381746228 2.037768331723002
C 4.284225557643755 3.4424590738798453 3.8204215444228313
C 7.137824450864083 4.816129841740131 2.3383416422954113
C 6.6222065324936334 2.785564840917621 4.985722828184295
C 7.491475003055285 4.064066638975507 4.735069703344642
C 5.314880912229251 3.0987692264273696 4.769289639952679
C 7.908033979055763 4.577400444803884 3.5444123269887524
C 3.0072182293721066 3.952829922529738 4.121942350139511
C 6.82042472601078 4.774603626005959 5.783092853151347
C 7.853045639699216 5.879785205006577 2.9368931117767025
C 5.86294315577861 3.700266018722439 6.111141961633077
C 2.669473551224545 4.337329804315514 6.636019750021761
C 7.362054914470379 6.886150929242501 3.8197536222803667
C 5.1892426220976455 4.129711194710541 7.300712087593425
C 7.6114554139505755 7.580555072787676 4.9755932269988445
C 2.3635693394259554 4.3301084630729125 5.232013184896585
C 6.49123309904999 5.964889254935008 6.530020363571884
C 5.572567393588155 5.517632371993194 7.536367848964347
C 6.1007041165661775 7.033892145656864 4.4262698198502335
C 4.132322548158098 5.872733756875717 7.666216012063504
C 3.7606982409903575 4.508655934319586 7.438304540306678
C 6.467519885511361 7.327413896951338 5.920931512182088
C 1.9417293522636097 5.44794242356662 6.046032586355556
C 5.584046884285969 8.235233859756594 6.642028956630446
C 4.394394565328482 8.009548530616604 6.904297522299853
C 3.4298152903455015 6.996021526391147 7.145760608702142
C 2.2614773014741294 6.72919177504118 6.367999400246785
