28
Energy = -214.57723007 eV
C 5.423992775998684 1.9075795607726074 6.351947199841071
C 6.152093033746076 7.2598101522300515 8.958468178181151
C 5.886157603635083 6.296971185924452 0.9274459465661776
C 5.6619774021707086 2.841514129382269 7.505287990104698
C 5.4317297325647855 2.976906352330094 5.311881947186795
C 5.230676776484141 3.8292773460355107 6.5379911843354686
C 4.347343657431116 1.0976964188660823 6.744888322352224
C 5.027981454285817 6.60802823067398 8.503028490706773
C 4.195878807831493 4.526860124388228 2.0134537224767666
C 5.072738197398451 5.161139806417524 1.0717341390269652
C 3.663707489808825 4.837213826449339 4.5250773736684815
C 4.3776099797467385 5.3353327525612455 8.714947103485965
C 3.9108592143282306 4.297295409183514 6.87116216113935
C 4.697918742324712 2.686670198352582 8.503028490706773
C 4.292312855524708 4.285299443889848 3.465022466489607
C 3.538135677760524 3.520123636231427 8.050563241232462
C 3.108486175620101 4.118741606002386 1.222439687487958
C 1.6243385393116112 4.0938324128666 1.1413144229388548
C 3.077698182075864 4.65549309898058 5.756777517578058
C 5.002176986275171 3.2169486429187115 4.0693438194509595
C 3.761082760627098 1.6437945652167414 7.926821943611681
C 1.6815886339306314 4.839220722729749 8.88337414706983
C 3.142524197286812 4.755937278313374 8.838337450198095
C 0.8630350890607728 4.123338324624538 4.66797628755353
C 2.5518481545664096 2.4776862229701138 7.812670202454623
C 1.7080701012781978 4.404741506222006 5.5381365724211955
C 0.7703178316854796 3.8799868786383964 2.179535158682371
C 0.506646553933553 3.9260408429912483 3.4059996229820744
