28
Energy = -213.42645777 eV
C 6.204269830062272 4.909255348749532 5.381793510018725
C 7.385476798092689 4.202751551074574 5.831730309484155
C 6.979795140225623 2.8169022072031793 5.8015016249868046
C 5.963694942069487 6.292005951294644 5.494288267620511
C 7.0614683381977725 7.027316719676106 6.048470904466197
C 8.410593034629056 5.0587507593043926 6.2016354047217
C 5.6940033673542505 2.6118754331448866 5.367173812361068
C 3.2626116282399016 4.033372350324738 1.6779873673172245
C 8.135809966729928 6.3390244238619236 6.271359969882623
C 4.242993625054691 4.427520479672733 4.051338584669467
C 3.3729595517685085 3.603136531944827 3.1340409297103076
C 4.489180974555316 3.4872530836976607 1.0386263644514928
C 4.700760534813388 1.6516830780578797 5.652634840011309
C 5.253528079874868 3.9564440353081527 4.861373569771303
C 4.040735374619368 2.6077630392067235 2.1473801765280705
C 2.059805640281177 2.809688302360324 5.222383439343064
C 2.212389081859675 3.0059314576331646 3.857985362589753
C 3.8699129576082067 5.805485069454371 4.205431858822489
C 3.194336557327774 2.7346756805062746 0.9404926992366877
C 3.5225891497075557 1.2855244922412097 5.750830819666957
C 2.6406709927907834 6.1908203895491525 3.6818978270718956
C 4.620866756430556 6.710070384983194 5.138596116724888
C 2.084046336496553 1.6573085937617822 4.16584401877008
C 2.0860557744946937 1.333084983019325 5.56235889952154
C 1.9804637517099595 7.185402292646674 4.195058599436717
C 3.943456484194795 7.766681273464885 5.708565109303482
C 1.441562583181323 8.187579147255123 4.944097159876224
C 2.7240722825392982 8.07338654155292 5.418635663145134
