28
Energy = -221.21399489 eV
C 5.412151833537083 1.8255936177518721 4.542493256567018
C 4.06933604633664 5.634845892909414 1.9365433834486157
C 2.897701225869901 7.234789000429094 5.085607110711243
C 5.152468181174404 4.910944370219643 2.6177189839524244
C 4.2658567435603825 1.0379824181329753 4.473012254122229
C 3.782621901677194 1.3771112716340796 2.0287622374975736
C 3.8094939706373006 0.4773572761896324 3.224972138254804
C 4.3833974996497265 3.897889900224404 5.503849586653334
C 2.3626132794214962 0.5880000183392233 3.185446275253774
C 2.6689626412680827 5.151320635514653 4.414743574594186
C 3.85909699012879 6.60882721292496 3.008299930249688
C 1.9425342088108635 2.6902862455477963 2.1815184588070653
C 2.661437772623016 6.588738370311111 3.868780774303981
C 3.1867010010774504 3.117309419904488 5.362601733833023
C 2.2061977869379983 3.8536130551301375 4.497154206720165
C 2.3205298275184236 1.2987565990452343 1.9078688745155248
C 5.278282333584582 3.4905962617018615 2.564950346263745
C 3.0363632605857465 4.887384543128328 1.407427299448359
C 4.775066604980489 5.737143885813498 3.768441069518537
C 5.859073037547232 2.8749930600221916 3.721932707842268
C 1.6588361793345945 2.822153661864724 3.58467896219996
C 5.481437752837328 3.1579138695521647 5.061957817979822
C 3.5969849559546594 6.556290094885076 5.952662285793092
C 1.9817538989402013 1.5031381123106087 4.191566667354197
C 3.102059097863293 1.7201013545064001 5.076320053980057
C 4.089640791932303 5.269001592239463 5.0447341631406095
C 3.005989457416001 3.5404132902087966 1.6013521842487881
C 4.22970879983921 2.752702041290555 1.880314032966569
