31
Energy = -240.50021668 eV
C 2.3688377329246615 1.1655572428616414 7.233168134663611
C 4.003811759303151 0.7631968997721067 2.597635318460338
C 4.60299211602841 7.12289230758355 0.4816761517860509
C 5.305083806164845 4.8672602608851525 0.3168254584913514
C 3.8971176144788595 7.753649647483541 1.3899766487861633
C 0.4694320455693846 5.413751580599461 1.08115557730753
C 1.5453425450594085 5.366919741975799 1.7460040957185143
C 2.4425729090596864 5.308875180879262 2.8254229856906137
C 3.410014566131123 1.1536602560810685 4.918612267242188
C 5.186371241625428 3.4151773493596247 2.363197422349368
C 3.0035817441176382 6.5419925774676635 3.4635392462793817
C 3.91959035561731 8.84770131933338 5.2138164470988855
C 3.5617845926048712 7.753649647483541 7.611810100690486
C 3.8406546443655114 3.073367394407467 3.0676876704943457
C 2.8260475779235117 5.6348208957579935 5.705367937981646
C 2.880421561993465 0.006688784202370952 7.498042932976953
C 4.061036377779132 8.920067602693074 1.5795503885702862
C 5.102464044158165 6.101405409012816 8.849999226879701
C 6.363505428863216 4.661659054936611 4.161751348363125
C 3.807974709313131 8.22077425552699 6.341984850114739
C 2.639469412742972 1.8542092434216109 6.041141260164039
C 3.5232360343317635 6.389713046939148 4.8304059017596375
C 2.3428161625771673 3.196488915525498 5.9640856958508754
C 5.9766525522269465 5.736250041878728 4.885252852785319
C 3.7189782261800333 1.672958396326988 3.5702667924299623
C 3.0024284208575955 4.088035556652891 3.1050692306708245
C 5.316306888575348 3.867477949866684 1.0900754777155546
C 2.377954330441852 4.45766191947475 5.9932929154533365
C 3.4412723525480846 7.43186659921145 2.5358465533897485
C 4.933188513873757 6.393685956704362 5.043048025303099
C 6.180893306259293 3.789394378659244 3.2945438269484244
