31
Energy = -246.48801487 eV
C 0.1515821634021102 2.638611896823817 1.4601153421716575
C 1.420195596885547 1.9324572663194395 9.297907922101007
C 6.0341348056775885 3.8472370736334716 4.039509707697835
C 2.2283058295946976 4.964239684550886 2.581637409344833
C 0.3645667983468032 3.124533958304347 2.7542979220316237
C 9.786932349088806 1.8277568326493971 6.32492776085443
C 5.656031937450755 3.4845503632750296 9.842293262913222
C 3.5186412525572766 5.457230086601486 2.316592981350689
C 7.793742568187814 1.321176959242247 5.004127812315958
C 4.957623797746525 2.5845192908722026 9.016057741341866
C 8.472483323728524 1.894074222655197 3.877432838916176
C 5.458774462165719 5.079934297636194 3.924947392276461
C 5.703683690698297 2.7031035430203403 4.937219339678839
C 4.883569053861539 4.587465039826292 0.33070169892558515
C 7.199136267895329 3.0861111179941023 1.9392703765144894
C 7.057116569137351 2.280051434940269 4.512847610107521
C 4.12613086724787 5.22288286281559 1.0714710991145335
C 3.202988018742703 2.479378376417332 5.414552502529808
C 6.953731402099878 3.0418468434100667 3.287430158257853
C 4.498922369323306 2.461641420666372 5.387339288010952
C 3.8539068250889406 2.128293748885691 8.659929951721224
C 9.744110440597307 2.4842410607742114 3.9118046207391757
C 1.3207947752905354 4.1564271256071885 2.7928030875258827
C 7.199136267895329 1.3008416922595003 3.7120327517586005
C 4.461642780596276 5.542725874019642 3.3310199904789197
C 0.5841252734977045 2.238675541016785 0.36230896858232603
C 8.613563907326744 1.405760795254177 6.052050928323605
C 0.5862301184498804 2.3429348463028514 5.191857653637361
C 1.9459232081010338 2.498980855666617 5.277258735234951
C 6.695955749729944 3.1993862358713674 0.8048296358073083
C 2.55635061681096 1.8583274119868547 8.779354991202602
