31
Energy = -239.37294407 eV
C 5.717722927930777 1.109394818070302 1.711040054604085
C 0.8003472903649239 3.0359331809150185 1.9554965591014246
C 1.90042609824819 4.577853826277236 6.037914696473942
C 5.826003772754986 3.346570294360906 4.616496165480865
C 6.897324843180289 5.38184839535387 2.1483228306137967
C 4.532196239837979 2.899164311588382 6.805124703801135
C 2.7188397446302366 0.17708558218769874 5.076342502703939
C 4.0197178365980495 1.647730450399527 6.6698196275216635
C 0.977542246080601 4.6375034426498445 3.6637567557047026
C 2.6894073107274865 7.49349604166544 0.7071264532954891
C 1.273626505057733 4.6736741444479 4.862831967349525
C 4.805959465704886 5.016284759955971 9.871461985930136
C 3.840781947348475 3.970332039532681 7.648412209335779
C 3.5569655018824315 8.410195569845566 0.4389004176396076
C 5.154155300635538 3.915306100586588 1.2269856610356433
C 1.9877488235249887 6.452808664396447 1.0958417609407674
C 3.4303659298488136 0.738910930810291 5.9983304444577135
C 6.068957504454226 4.286669045947392 2.186666996187185
C 1.0096763495242458 1.856406289939964 2.3412444456923356
C 4.339257470822741 4.4886703907439935 8.793757380921246
C 1.3776561817522988 5.40767153438409 1.443779280094418
C 2.6862858028874976 4.36546704978076 6.971274484590865
C 6.0220610928233125 1.962532729427087 2.6643458547938756
C 1.4116494433507922 0.7909499549176983 2.992596782770213
C 4.469675337955887 3.059264767847871 0.5164391105024249
C 0.9623367265787934 4.392201517958488 2.2693251573103232
C 6.059897514979293 3.1985764712059837 3.253290810142276
C 7.795018508307613 6.215670758704096 1.7974813159351333
C 5.408572787213719 3.261489456331604 5.775761666712493
C 4.9893751729938405 1.9125570898235793 0.9419586710630844
C 2.0209446248993626 0.28383138510767486 3.9921373086126737
