31
Energy = -238.22071416 eV
C 8.311490729061333 5.575676756202329 5.466103893197066
C 5.298160934176778 6.479875419175993 8.926077185594114
C 7.5996993475762835 4.489041773508239 5.409928237593161
C 4.316889089014601 7.048893332395781 8.012648205647217
C 4.720068559199087 6.7099207282706885 4.278886006250361
C 3.520235824139506 6.10621070653057 7.31783653267474
C 7.106980141949716 5.981264100623253 4.783924448711899
C 3.42743293415746 6.731953920879391 4.30644236458055
C 4.390288448053435 5.556522025257898 8.349630237916504
C 6.539790541874273 3.6001857717291963 5.254561864873396
C 5.969437826669159 6.307849084284124 4.319026004566236
C 5.0956921397992705 4.630479902579203 1.27309485920529
C 5.835906163608848 2.696822347754359 4.457760925712402
C 2.79993220922941 5.558851680873739 6.298442423907972
C 2.4415065982050694 5.997643597101552 4.922333926158187
C 2.5931170782370114 4.605025760670985 1.653208146761767
C 5.2230804450624335 3.2819611065572234 5.597117844028913
C 3.0959214044619263 2.527907760897025 4.80857631718163
C 5.409680402151255 3.1747924956125364 1.1087375791764456
C 2.784934397024081 4.16380445257584 6.165888114736318
C 5.472309581757725 2.3036636810592244 2.0798533782726962
C 1.9367255399584835 4.830836375443216 4.114457089887242
C 3.7484074962268488 4.403208937536923 0.8841470196678041
C 5.149250904340204 2.107258280370057 3.414421758648653
C 3.864478687351421 3.2091054851998444 5.868056494933657
C 4.309709450504353 3.3813051872327167 0.10638572266296131
C 3.6797556924098744 1.8563289043572946 3.7214512908879547
C 1.9996989040950621 4.833312413724985 2.720186521223665
C 2.1776872938591088 3.681954722342207 4.914746452207622
C 2.995899356733554 1.2195113436581673 2.715522140577701
C 2.5726173257315414 0.5093389990212397 1.7484735853494375
