31
Energy = -220.46712139 eV
C 8.520523264273729 3.646192154748184 4.30427269660529
C 7.8496685789423335 3.6051359870304998 5.52336122851512
C 6.029843564297932 3.470919018628005 3.139052830080177
C 7.1577147211214855 3.9695052354095495 3.527687145289404
C 8.050555475268261 4.974414292177944 3.8377192477282414
C 4.936080776946496 3.7850069523030014 2.3882688827456464
C 8.112769913548002 7.369545144641063 4.4754409966284605
C 6.5373402369686895 3.956177866435769 5.747327189773533
C 5.66054473844679 3.151116271255251 6.462316189341307
C 4.785866803537679 4.9678758393126445 1.4733157827498977
C 6.869943140615188 7.157693578452531 4.3975146106346665
C 6.243277345348712 3.860536604686396 7.714650168267219
C 3.4411917499014604 3.586704346183055 2.4057701889739547
C 4.325895093162967 2.605190552909794 6.4665169320833265
C 3.291012602194195 4.725432864957318 1.623483720472637
C 3.1794800459907684 3.2344843675285024 5.953979954163973
C 5.572974957322984 7.153615273504408 4.612185059061086
C 5.614857014634129 4.771297649874716 6.869097461813088
C 3.5053027555159724 3.053749486050938 7.627828322631954
C 5.586423152067079 6.006232645243967 1.2607109556355884
C 2.802867267475096 4.76874448998934 3.0596680447121094
C 2.1670196959412915 3.3071742173475953 7.1183103155490555
C 3.839374474122022 5.228993030819667 4.05926262641591
C 4.331520151444576 6.493898660883925 4.3759456508361545
C 4.203556846832852 5.3183455568027975 6.701380527159649
C 4.538263661543148 6.922411856900982 5.728850570979566
C 3.326526220234235 4.570619318751805 7.82730629879353
C 3.345762624434639 4.778032157825996 5.5225303500474805
C 1.8290765952413248 6.783360967638901 4.502522356101179
C 1.7602653060412514 5.473364360285014 3.8000563577823843
C 2.0745297129270845 5.569127098813991 5.169925995579421
