31
Energy = -228.87368407 eV
C 1.9938704394613744 8.724764329530045 4.727376098856606
C 1.257175100375399 3.209089518307538 3.4582908030555917
C 1.600878904958405 4.155976331238871 2.6545677493004667
C 2.759136200437436 1.7970664429589518 4.785329634160994
C 7.0777836898341935 8.831628533208828 2.6955291684413982
C 2.784054156485606 8.831628533208828 3.0250869968382537
C 6.2902039829708425 5.84468775464401 4.907384089996591
C 7.266894088009542 8.040008050463578 3.699298978722501
C 2.481147859932538 4.361398431487272 6.571350539402236
C 5.57718733819422 4.084492726033581 3.8122592144800262
C 6.4414394809106845 0.9829739090995374 6.1062692047460265
C 3.6313431777920866 4.908815129979291 2.8188183889198513
C 7.128882197296906 6.828135562863977 4.25037836480135
C 5.112879242054892 1.3949360407672546 5.8220742947594815
C 3.0756044386999757 6.55493128431718 4.7166061714007474
C 3.580134611959325 5.195137148890897 4.472893924501514
C 5.85329326506672 2.2772695972523382 6.6644959281282
C 3.1277110127490677 7.903430858301152 4.3097179858713695
C 3.947259128742751 1.2072234561893223 5.185268878599823
C 2.4751256007672784 4.439585305760552 7.855006061245853
C 2.710629828540467 4.156956899177478 5.266282520350378
C 7.216322932662978 1.8635515544096553 6.947268746571079
C 2.5211917599425666 4.820512477030903 1.991583899101808
C 4.869337361823566 4.2919470537439866 2.5587166656756377
C 7.3685560577858515 5.4347819154945505 4.06326644338772
C 2.129460141050227 2.9772468124584925 4.5461161129652075
C 5.106557716958368 5.016196964326731 4.738563196781869
C 6.187533945494566 4.533779763844355 2.0464440007509146
C 3.186217627203195 0.5050334309634698 4.168715881676205
C 1.9455436514587685 7.313151818440645 5.07855948335061
C 6.9358459117836775 4.354830278792882 3.240678765765042
