31
Energy = -242.37386495 eV
C 5.433859491658039 0.5876652523495927 1.2816026169937738
C 2.764225172102937 0.43947475943724157 1.1577715664282782
C 4.7645828070564376 6.212165769894663 4.786420220534217
C 1.3309200145796762 5.751501864280679 5.665738591781952
C 2.0757937219311366 4.028968267368988 1.6449673722631641
C 1.7103696985492194 1.3409204506077341 1.3254085028200577
C 3.46200486341042 6.753701568493666 4.804296387955458
C 2.282945043106199 6.528320408415071 5.144642934951693
C 1.3087203270777528 4.589089966150858 6.155271319038032
C 7.5582814045715905 3.4836286436235064 1.9203144372099359
C 4.345371101596893 2.949036305956319 5.880627880748276
C 3.1061428753482527 2.966425482575466 6.332126399640698
C 6.399664795854201 4.893845651909464 7.974452623484051
C 5.495525581859809 6.19014196218876 5.953969419282731
C 5.261661907522497 3.4080322378951795 5.154239852569948
C 5.772343339143892 4.027508356502856 4.024498471918832
C 4.079773151109078 0.8823815261089949 1.0594857207253823
C 6.470952276627087 1.1448758567839568 1.6897076639494457
C 0.7082370701042326 4.359805160623616 1.83533367288763
C 3.1876048546946993 4.825147652394666 1.98593611000809
C 6.616275565287465 3.942728983448811 8.811294275199453
C 4.182537813640193 5.171864005653277 2.6303155098358983
C 7.176099092985347 2.195398049443502 1.8934601688929569
C 5.998020472461406 5.641040742993821 6.964347375163351
C 6.490342968128822 3.216184885676199 3.1396531217204626
C 6.747922711760011 2.1966351464418197 2.4802109214684185
C 5.075622298902885 5.293999139992924 3.707969450184854
C 2.400984937835043 2.679427622104537 1.2958960960075683
C 1.9558053424844464 3.475481102133515 6.450182428123503
C 0.36075667048311433 1.3854016741329371 1.6158888857670999
C 3.686699007944375 2.212882806393736 1.0825704319410123
