32
Energy = -252.04522885 eV
C 2.8952874856743933 1.483072033356898 0.7187391055633863
C 7.048461162620177 3.4204704228413685 4.849408527175368
C 6.393131509994543 1.6766436429314242 1.60388834558762
C 7.7922294311306315 1.173227073169571 4.438424658441419
C 7.824495084552571 2.4701836072652448 4.951714799588157
C 0.443382130395927 3.6994913539707306 7.075541388754044
C 4.585635315019237 5.7222730839317055 6.4321256783427
C 1.819500102132514 1.897611830436156 1.476222537158187
C 0.9842591910417114 1.019399589155804 2.205603750252244
C 6.655316611291468 6.053085341629496 7.623319121701595
C 5.529549027334815 5.481043698852677 5.425463615621202
C 4.887048911746693 5.731195857647838 1.5290341933496152
C 5.4186773995494475 1.3840164342481118 0.8523288785638385
C 1.3446613940936845 4.51992269925168 7.623319121701595
C 0.8643470223529002 3.6217535475213816 2.91562938273545
C 6.405282068246208 4.402654727580058 5.562710827096189
C 5.770497239952511 5.951853723631469 0.5031079449036219
C 2.7390081508502324 4.226504043004753 1.4937630294997066
C 1.7550288786861696 3.324543626946867 1.8677846509900393
C 5.176773534105197 6.034274387611609 2.8892065298090466
C 2.410787950947753 5.160971167551231 7.592082474752636
C 7.219712837621358 2.742575751983845 3.733071107319826
C 0.32086480129772205 0.8781100194170609 3.261330186776746
C 3.692869750064234 5.004189374190892 1.3864557970813598
C 4.136156277311268 1.3486382875277272 0.5772970595903213
C 7.0487756733160705 2.1588843805185984 2.6233649680405304
C 0.1751523647018287 3.3745722380901775 3.9067776509138463
C 3.5932647897960814 5.614361361919312 7.164819566756554
C 5.348707150931373 5.943588454592832 4.101272309547736
C 6.725403577029208 3.2889995671715737 6.3883623652965715
C 6.85660576562113 2.2855772543355775 7.212660838548207
C 7.913755860354512 2.950447043338321 6.264786658060772
