32
Energy = -245.2021422 eV
C 4.276102262058892 4.744891995262091 2.2260261352740875
C 4.310420463458606 2.408174089425054 6.990448626319966
C 7.132189864222032 5.595749496581116 1.3963312894301214
C 4.03971321701427 7.813911949392234 3.876970099507771
C 1.1926738106951205 3.6348672508661033 5.4951709163658355
C 6.0395980564625 5.810584987930523 0.7114415892267004
C 6.587457652153144 3.7194578461721166 3.9649213043006672
C 6.053837000719609 8.262291111727402 5.514799541372458
C 1.0593683626350305 4.941386426173671 4.895703187070599
C 4.763764997441949 2.2142753819648986 4.778923303717458
C 6.696412773657889 7.664747094733423 6.456915686921071
C 7.7900076441206405 1.1130240565313778 6.662929941151123
C 4.983250967212194 5.288086839625854 1.3118922797587196
C 2.250944958391634 1.8616086653738508 4.5142023737068
C 6.436130711582982 6.446337710044946 6.851519835904269
C 3.6507822358063535 5.526432991590799 4.48385650485486
C 3.509279516282101 1.758178035311393 4.457625180203922
C 3.259178963128693 6.710721875423107 3.635295944227634
C 2.483668164972942 4.995207059437811 5.285871729638184
C 4.768579778807299 6.15512980725827 5.341963128794172
C 7.96804271754074 5.107384589050951 2.2713442659392764
C 2.9763501972319446 7.886789418491416 2.895095253156583
C 5.335568046442999 1.8859810112675537 6.1286787231179805
C 5.022989537627571 7.574852650115962 4.885083711141221
C 1.1288160871702153 2.3836844757182263 4.960675324319225
C 4.287566753661285 4.421396132405841 3.534404537574245
C 5.532262027528483 5.655120926728864 6.375642700116531
C 6.600740796290914 1.5481557872144291 6.434405702413559
C 3.4195122354448393 3.2878216866497394 6.959070427080961
C 7.363873641360056 4.436847644830006 3.255431616044637
C 5.26729964153011 3.392356051699674 4.120729427507529
C 2.478757989658522 4.0090900236617975 6.287684414735277
