32
Energy = -253.86860068 eV
C 1.6518526540117733 2.9410403202816497 5.722128832668323
C 1.3935585964156978 2.877550520893399 1.2033240168024935
C 6.989830502972552 3.086191268681543 3.7558161133232733
C 2.2712276455228744 2.0333756709292055 1.4765122567018716
C 4.533382285179354 7.315510527169237 4.371749863875753
C 0.8847646810919565 5.696492988662872 3.3891017736125897
C 4.006068997392547 1.5237223957441726 3.21384013482789
C 4.723474049425296 1.9423655972203564 4.352044429906065
C 3.5415046647296324 6.942542711613307 5.0078742672788445
C 0.77795839773109 4.010475180191959 1.5379701655530116
C 5.596845055044855 7.333366523189647 3.5529452230552256
C 1.4381070148604078 6.057995009923851 4.437511919060104
C 2.4702682280759105 5.325294977258606 6.531443084088297
C 7.458603494954939 6.223294374172756 2.197723608666214
C 2.4587116913713607 2.045299080717066 5.320177877283544
C 5.9983809652228794 2.428495390751826 4.129404038224431
C 7.216328427742136 4.805063418599184 6.018858648018919
C 6.565589174394378 7.04424711682454 2.8303286778292556
C 3.242192092386569 1.5218430962545593 2.2371086008350387
C 4.127698307858525 2.97125695859952 6.710392847914297
C 7.814203834441071 4.2004165705743315 3.696718542461065
C 2.983984831213642 3.56024157608414 7.415353360658923
C 1.8449339961231181 3.958554670338038 6.639574830208749
C 3.6105296628266714 4.891587058920654 7.38170897809044
C 8.008742638313725 4.995721443008862 2.5063959529009643
C 4.885273591297431 4.251785212099512 6.940736697929942
C 8.254638488801078 5.521051198955226 1.220976976891247
C 2.417552524522383 6.198462110797384 5.438950025960686
C 3.8840696200281997 2.18663819085727 5.522557123548703
C 6.128947440470983 4.643041030316025 6.663005363263256
C 7.896653229929786 4.870278412494059 4.926832334951898
C 0.5970460638777245 4.984173292714392 2.296850517768426
