32
Energy = -233.32527564 eV
C 5.762091290259524 4.874226522541269 6.188309219344483
C 4.770309976672609 4.136391984608983 1.9125053239726777
C 2.284320920090227 4.323392190317557 2.9970446362303185
C 1.8520084679881035 3.4470289469117157 5.195091203052116
C 4.797557483934868 6.1598436486228 3.3159941227971412
C 5.946038671019573 1.6333167197711247 3.3697902766395504
C 5.635571386325999 1.2203356152239695 4.898463048559308
C 4.708969292400148 4.277367729101179 7.036492106610321
C 4.589388824624674 1.3349867931242312 3.987691173782494
C 1.903832323926414 5.450411981779704 3.7428969587500047
C 5.471303471705201 3.668062934473811 4.072068887027784
C 2.5241487636497473 5.13399622765963 1.8081552697833168
C 6.039701614967562 3.0205465964050573 7.502579790393276
C 0.5926309557693139 2.6632778689067296 4.61617362040842
C 5.328795327160913 6.793186947767534 4.55646739180025
C 3.78543012148528 8.155812642511409 3.693114481871437
C 1.5347860215020945 1.91540906961157 5.49363808046105
C 6.83308687010606 1.8267582896534182 4.5078034784931935
C 1.839691701735158 2.117736136430858 4.0641997467904085
C 6.719505327913939 3.237973622335612 4.928629000671344
C 5.101004002259326 4.781860148925655 3.0533328368545094
C 5.033242624320931 3.634553596384405 8.172134132146356
C 3.672456370998645 6.94934416522991 2.960436143240858
C 2.382690505421964 5.262224528702618 5.035709763832108
C 3.5049047163796465 4.6719684997952236 0.9781063428677882
C 4.293728660359372 2.8337080998133275 4.103024760576598
C 6.589407708408351 3.615597385175338 6.254289927803299
C 4.438097585594659 3.867338871269114 0.604386836344283
C 4.804104749514073 8.13747629430896 4.555706923903975
C 5.784356311391735 5.973644069491849 5.54679811132344
C 2.8234063210934304 3.1881809351167973 3.907157425393997
C 2.3984837439495093 6.362528194511661 2.5117618108972932
