32
Energy = -242.16477659 eV
C 1.75762171157787 6.291009478643711 7.11107562424687
C 6.706813641828458 3.9062817152842277 3.1207695657318544
C 8.580969096912275 5.2783060768516 2.615681762356297
C 4.6239232317086865 0.7428514094896779 5.210577124520688
C 2.9868438852958223 6.718562782407428 7.375489626942486
C 0.8211346559643827 1.8544198011158342 2.0658164659340814
C 1.6861601044721954 2.799830764054311 5.775253575335509
C 6.847137306441479 5.803088927957211 0.8252720850237878
C 7.892810012433807 5.583287922800742 1.5492853968714022
C 4.079998272030142 7.34583378652153 6.721662163890058
C 1.1153196966523489 3.990415398642564 6.213278174108215
C 3.759206441919437 2.093292897285659 7.416111212452597
C 4.180030261701742 6.493573441261223 8.150350088308961
C 0.9552731755599808 2.112189708592289 3.341232648644644
C 7.159769413810737 5.611756377252882 5.94876083119069
C 5.568738670762616 5.321055269889652 1.2482626713628264
C 1.259163321599692 2.370876276779842 4.554266879952778
C 5.899813237729873 2.872101111577967 2.624642688678347
C 5.781651766017896 4.187350395464106 2.115602006329302
C 7.811925669197973 4.679953610099596 3.656844769660115
C 5.277102297988052 0.2415603493288502 4.22182323351372
C 5.933954578549977 7.5285402541739765 3.193841957045747
C 1.315395431410752 5.118380075793256 6.752202941739926
C 5.272486457242015 6.6681824670990295 7.241640840078378
C 3.206081261934829 6.376301092620084 1.4747682530097883
C 2.852041898480347 2.2334498571855663 6.404426465203266
C 0.9873577762407799 7.416790725716625 2.3217780449691205
C 7.75684625470378 5.077081657705775 4.970055350112849
C 3.9830510017339074 1.4183286940829185 6.12494509660727
C 6.417310158808028 6.197156391607432 6.836272059153008
C 2.044479678410069 6.903483539156904 1.8030332285922823
C 4.333762967976957 5.9049250831079885 1.188861312512658
