32
Energy = -248.08524724 eV
C 3.220366913018432 4.61649061202641 5.9986532776781445
C 3.2342218553693782 3.316943259321525 2.282404118393282
C 2.564854325973616 6.260873404846562 3.690428597971074
C 2.7881649163903646 1.9325848108823247 2.285871635360215
C 1.8875661475373313 7.555061520375846 1.134788756760883
C 1.9492427443373512 6.772260130739804 2.1442448015441773
C 1.7481054858198708 6.3437059658947055 4.852729835849827
C 7.478903805381702 6.1204977017798186 4.635434872290212
C 3.662285382947479 3.9400491681666185 0.9986007248817238
C 3.143147856800012 3.202934230254469 7.586313591780339
C 2.980587654566763 1.1369061785484662 3.428362017265833
C 6.866265604475747 5.771025266985076 5.7175113510072535
C 1.4285757158832701 4.46623693465038 4.800336074960662
C 1.9233158479684649 5.298723751296783 5.92770305080071
C 3.7093267705391417 0.6598470092205477 4.5600945577783385
C 4.444138394841138 5.04902958833358 6.164044115687149
C 6.0445051546431126 5.956085465917863 2.9463885282509508
C 3.6991299231008554 5.493743932279758 3.58532996882633
C 2.6894743747604677 3.780365013386784 4.766608651257789
C 2.5658012395911594 2.0924504768836445 7.609831987406808
C 5.084266863557701 5.740793154210592 3.991185155971083
C 5.45821145964254 5.609352208181748 1.6982355078128724
C 2.781137464882969 7.472967344123406 3.8725688789761383
C 2.35757316106618 1.220050273951912 1.04241131309169
C 3.329335852166553 4.048329867405064 3.476750088736528
C 4.778100798668696 0.8971411645359297 5.341023583582952
C 5.795711034053478 1.2829248594542402 6.0102576139031605
C 7.388970560656287 6.204690904098784 3.3373201463019138
C 1.1090836564945372 5.579857737088076 3.835881095145795
C 4.597495779966819 4.97178921851971 1.0813714246431876
C 2.0294085507847313 6.343705965894705 3.409510406000038
C 5.482782148532967 5.5512874097153775 5.400397991567342
