32
Energy = -245.98642049 eV
C 3.9899848356361893 6.845350347341387 8.72904205902738
C 4.918079032949234 7.359332040275091 7.920915344646699
C 5.932276459127561 7.422496483963321 7.155279825426688
C 6.962951719665039 6.495611922131068 3.6614829850985173
C 6.30150385720388 6.476228732891351 6.136775558679003
C 6.882561670596949 5.983615746503676 2.478429154443658
C 3.6608107480359515 5.6134013256525614 8.432359803790417
C 6.84758833429882 6.678871965568854 4.916249414622601
C 2.100861223495815 5.9191780949630255 4.070610376808542
C 3.269515485324881 5.4537581138799425 4.264055083288273
C 1.4119769324957143 5.436246615462482 2.90784030030747
C 4.938714450290276 4.5936471653085755 7.197455466945991
C 6.040588467188605 5.181437988183698 1.7915016291836638
C 4.064035080388732 4.362615165731405 8.24151796491626
C 2.1821282606421173 5.76975990085426 1.7871832179344316
C 5.835733720045486 5.162604227851138 6.53157883151463
C 4.609618951352676 5.382033756268399 2.189063719970168
C 3.4327943960514493 5.724697210995408 1.5664944122163336
C 0.7331335591014371 4.208142125200129 3.0618632609085656
C 4.248013575373784 4.806433243963239 3.527916893028974
C 1.0866338330532168 3.051581222894066 3.3425739246732578
C 4.364365768908162 3.3857811133322113 3.6852387172379637
C 3.378651422750072 2.4809058269661035 4.378865450702328
C 2.1017652781240987 2.1310664932301537 3.5737670559014942
C 4.965466311807209 2.3856744645384484 2.907647235717347
C 6.23828836297001 3.82710346846935 1.4533058861996142
C 5.801642512958532 2.718672473459845 1.8413164983736603
C 2.761221909179831 1.145911336474637 2.907572898587023
C 4.859790185481116 1.0189637291058535 6.025356441546084
C 5.499958551820211 0.7290316464577217 7.106381199983788
C 4.168596969768226 1.3341719536229577 4.94226304180938
C 4.126468182951957 1.224598256312034 3.4716054702835852
