37
Energy = -291.31522543 eV
C 3.1773017059687216 0.8801719200007174 5.73305671047241
C 3.8596076445352603 0.3074408320243009 0.8266981152717575
C 1.1433982866024979 0.5324285713515996 4.904617871360006
C 2.482183061882277 0.38956661001265 4.5582352110706195
C 2.7661040850776266 2.0896648607065935 6.357561136029654
C 4.036731250993533 0.5071349512284227 2.242798596206264
C 0.9784462556580128 2.8246848055760325 2.916325126465704
C 0.08866606341097497 1.507006407089888 4.7047493322128995
C 0.6464675538909159 1.3563169267000075 5.985732051284932
C 5.490514687707657 0.490095261684255 2.1808980711210078
C 3.9407150799738067 2.0263386139635324 5.507168762476813
C 4.960747301852159 1.2386710258177382 1.064030876715062
C 0.3477039439542125 2.7966476161177694 4.2011937896045035
C 1.4443072059372226 2.5628115715823716 6.272927250446013
C 2.079829005514517 2.003917653828976 2.5504296546100447
C 3.1203337273666922 1.1492637603968834 3.315463932100949
C 1.5009326113093655 4.830212604795882 4.791451611284017
C 1.3687231702938196 3.8423001070495837 1.8980951183592125
C 1.0531038750002846 3.566830289784397 5.253496815885882
C 4.093166438495538 2.1923132629540714 4.0929412296636345
C 3.4554583020725627 3.144094655733104 0.6596999052353175
C 4.952398527184972 3.1268506204778803 3.5683007541499094
C 4.922014406973339 2.7455274301365753 0.876474531170357
C 1.2777060614789164 5.484330590303886 3.549198843712275
C 2.4697068126828694 5.745857677348902 4.201751385162952
C 1.5831316959675652 5.194784779349814 2.1573663235332954
C 5.14843903296582 4.1101513008238895 6.357561136029654
C 5.4261115536225475 4.800655694778242 2.123398778943435
C 3.5503952467350994 5.92756763888535 3.2446103101003354
C 3.7177083514724916 4.380304885306263 0.0043601629091940914
C 5.070117725126722 4.345750381862217 4.366080865085508
C 5.297884213617836 3.4163997839469804 2.18663996790679
C 5.094838321299824 5.205264214708271 0.8134960692123666
C 2.926172425564383 5.80808680849789 1.9097572677955241
C 4.845937233298807 5.314962157386579 3.3852925842801813
C 3.686533774149074 5.6546206548253535 0.7112606004473615
C 2.386865309178142 2.8913750217779937 1.435625282751893
