37
Energy = -291.87656928 eV
C 3.5545081896782653 3.9322846710663666 5.753123391975063
C 2.920605418328997 3.0325425836778614 1.962589990569503
C 0.7624824532923076 4.76302650995549 2.1175388801766766
C 3.106947075073381 4.432506719762211 2.776767052925212
C 3.1463981797914955 5.3158867964837615 0.02358314302506873
C 0.6503125038077765 3.9027571942180335 1.0041768896764902
C 0.8358808294828004 0.8019219979514232 1.9960613460143015
C 2.693267955553522 5.894276681377745 1.0792025894229003
C 2.7364106132787467 1.2192387426663032 3.9499052526302423
C 4.105918380434251 3.2806654956768275 1.1480772949090592
C 4.733560743063618 1.2751426399355932 2.3475101394877393
C 1.988820937943535 3.21323533606979 0.6308226219180441
C 5.0862329708663365 0.9091011693872567 3.7640258498870853
C 5.205503746287273 2.71911094048559 1.9520217401111952
C 3.3494395523102507 5.894276681377745 1.0309351581050417
C 0.33065876184286896 1.570164301094916 0.8665071482367755
C 4.473052772157327 0.18198114983936403 1.3585744560163986
C 0.5835355202540862 4.00518970933216 4.51952434976425
C 2.417739755253759 3.4438672500442165 5.778829595190631
C 4.598896702769114 1.2385504468478636 5.895854489474167
C 5.6303635506537475 3.1650755029400353 4.499966205602444
C 3.0872759986063043 1.5557844799469436 2.5394011827977936
C 3.9127835817690024 0.8708927440292796 4.631465295207015
C 2.3000319974148455 0.7129568445487687 1.4515354577917874
C 3.2848778681353443 3.916727757481988 0.16216556189243445
C 5.413182997949403 3.499637058750806 3.075261088016322
C 1.4141615590970944 1.7285585996921904 4.283264629804312
C 0.1324099761218913 4.045121734584903 3.2331742205786136
C 5.872890512191924 2.744544019154952 2.704747932912222
C 4.603213023302811 4.140910595896151 4.853349522210158
C 0.5007116767281293 1.5874143504126064 3.1675813143188694
C 1.6568896755854499 1.744158078428338 0.4890046075813665
C 2.12875396932119 5.33676318367111 2.235674967120014
C 5.47936810642979 1.816267361121876 4.861258123295608
C 1.2975798936359053 2.9299315652222213 5.082311562059224
C 4.374754454454183 4.4826891504710895 3.4435398170269447
C 5.883567875101095 2.798554341093804 1.2811061236981105
