37
Energy = -289.10451988 eV
C 1.7314498570593078 1.1660737428153074 4.848477024058208
C 1.1522648434592055 5.551572604050718 5.09265236487257
C 0.9255120110953186 6.632354402131898 4.220840522571565
C 6.235026305091762 6.530000004344331 4.7311613070875955
C 0.2750379112628122 4.719154842939032 5.8926179586999625
C 2.268301576266744 2.829027765356096 5.425504807346753
C 3.1133153218412555 0.8406606487172232 5.401367737440932
C 4.77884597506418 0.7316634245642479 6.362801157663934
C 1.1662760691724958 3.080453140505246 6.44942570786823
C 0.7537855466442914 1.5868125249425302 5.988136509332459
C 4.78544928944315 5.931464936053252 6.606419393346588
C 2.5610412827277163 5.764546942656474 0.5816796998025004
C 1.1964611694426004 5.814577140042545 6.579194483650809
C 5.698587268151815 5.402959104685054 5.611183289146637
C 3.3592652849700433 0.14000433620641864 6.6542103855849435
C 3.368457650638789 2.1472412424702902 5.956817510408337
C 0.008346627847326296 4.019295276157693 6.572137288711633
C 6.119435167259688 0.9055891842059499 5.756589089502382
C 4.245827998612166 1.7792171501635234 0.37024822798139684
C 2.437016119343244 1.7835992408551138 1.60095108402764
C 0.5332035563972817 0.44342792368725403 0.2027105394475549
C 3.3814959031905767 1.41299546319363 0.6496585535668428
C 6.441131541433678 4.019295276157693 2.6909311508952634
C 1.5401561320271113 2.8767326900275787 1.2392573630112769
C 4.835368183084177 5.800883156616836 1.3641383772712294
C 5.803715329339663 3.735945293928359 0.7535097331917068
C 0.9296024816476014 4.124069806628473 3.1895488560190524
C 2.544811635776788 5.399530416052626 1.8524148559662057
C 5.788972603489904 2.783031113745376 1.823871417748521
C 5.057765739714877 0.3890556538630708 2.1260158808601486
C 0.7895354013007949 6.601713518277884 2.926745543458612
C 4.862479632115622 1.6999895376080998 1.6643209743040999
C 1.2396177191375597 1.1804732756729786 2.3303077020586613
C 5.582456885300257 5.044840272185606 2.3824452115959693
C 0.48887765528617244 2.4577021995637347 2.0997691811051467
C 6.066839069637681 6.363278148210479 2.8797253622355856
C 1.6194655115878402 5.338759232560862 2.821600567993965
