37
Energy = -291.50238617 eV
C 10.99747858045832 7.834248201592983 6.396928831556643
C 5.805900615295517 8.311508371603626 9.911484098449876
C 8.325238324721584 7.649530592285498 7.061662900342817
C 6.994498049561425 9.100775144758396 3.9736510906135263
C 9.125999426922977 5.400296648736419 6.356415334640665
C 10.847165903282386 7.838013580742581 7.825374089550108
C 9.398725026384827 7.8551627738247545 8.066165319175173
C 8.165221259579308 6.490026514716392 6.0864821789239665
C 5.448585180118584 6.183673138328695 9.215388117866016
C 7.681529514834535 10.285443927991425 5.942029764011733
C 8.684187086149644 8.813927460483232 10.415815268873683
C 6.414782508138703 9.611244360767396 10.291460184218213
C 5.596974276002705 6.542096452342161 5.504168515449646
C 5.044226423972215 7.057475092006596 8.0276570307743
C 9.135713950510013 4.630877908235023 7.3356429180023035
C 6.083592202447599 5.328468272379816 7.208756364556253
C 8.503103411433921 8.347691054475366 9.013599158458451
C 10.042375102451192 8.604023030229985 10.809973163731634
C 7.850054852016447 9.21454236355791 5.036410625231839
C 5.069242365807846 6.345545263629266 6.8473013634984525
C 6.004257041763132 8.122804937082487 8.440066146599785
C 7.278317180411125 10.89290277558264 6.951379940102582
C 11.617519128133067 7.980126264973245 8.95298386785129
C 11.042951647493814 8.287848445437794 10.11365471412295
C 5.643987888800291 7.020642296063862 10.351067697511581
C 7.343481571815701 8.164756694516187 8.106530894606104
C 6.230883519593919 5.133128441570166 8.624302436021443
C 10.072495993196936 8.03082592502823 5.589476549758424
C 5.388803568377268 7.297123309849823 4.400154803833505
C 8.476221148560855 4.121090332772125 8.407857713393952
C 6.3902321858810325 10.672710321863908 9.32163469312199
C 6.783112943239372 5.8753185166995125 6.050459001830255
C 6.155879697287385 8.126376298848347 3.7876399583307876
C 7.601504490578838 9.436765179243572 10.925763446120918
C 6.741172232583761 11.036432857088785 8.1853494565443
C 7.407742335534085 4.419544280412139 8.975589990530699
C 8.634639361936431 7.994274545675769 5.5692090331098445
