37
Energy = -293.22619634 eV
C 5.623224753958137 2.6502440430182097 1.5060047135189514
C 3.4260115117603354 4.7689879031643425 1.8589496459702988
C 2.8805332972369584 3.8101426801265292 3.9774941247670417
C 0.23667020958790594 2.937065967707133 4.686058036650834
C 2.2017588279230305 5.245780579883964 2.3592771237783428
C 0.5626106396359929 4.158541287960024 4.059823777431473
C 2.7390617487201374 2.2795165740887198 3.8642412844875826
C 0.3562535952056651 3.047529095836529 1.0018085812317796
C 6.130831573311334 1.1621336464661256 3.3166399603339642
C 1.876793352755305 1.140033146497273 4.451446656083621
C 5.856365552050562 3.4433156574808303 3.7337736079968225
C 0.5187727793070699 1.5601276775859014 4.428534388416634
C 3.8549952387734217 3.8563249744169457 2.9151898742342524
C 3.637514127746481 4.149934382813122 0.49608918682812375
C 5.415341792556263 2.391649660701664 2.8752621424992637
C 2.4183684656566595 2.374250825907962 2.387786328956911
C 4.934837617959083 3.7904665269644675 0.009031273388984781
C 2.696585247646758 3.162347647609274 0.19719166907865013
C 6.120796203397694 2.0961419749455836 0.29790893869783147
C 1.7463528433049618 2.9811020616790653 1.3390602123935054
C 2.741800213037727 1.7977236153008747 6.007306381847285
C 2.2257043677429156 6.3864496077589665 3.8962612862493136
C 0.1163470955882321 0.11456211761739873 2.477170603597786
C 3.1750249116267337 6.440704722610578 1.1844034074861352
C 4.9204848257797185 1.4768932876540566 0.7097792387184316
C 3.914843141809939 2.3373538764317794 2.7831388444965666
C 0.5492504039441545 0.0656891203545966 1.02271950278679
C 4.818395320076396 1.2583667006756052 2.168750742001097
C 3.7162629492470955 0.9148140907145713 0.19608299949236854
C 5.415341792556265 2.65274358908493 0.17302226007417884
C 0.38468461203682663 0.8893084298789505 6.425598127447472
C 3.59452418447143 6.225374958513408 3.6055528404097696
C 1.3515182310204985 5.9680842936982526 2.839420775977901
C 1.5805478374132407 1.1617240664324464 5.713081583608866
C 1.865790335292455 6.029965375448084 1.4650551833986558
C 4.061035046682527 0.019138554220884674 2.371672393858456
C 1.7952383410838288 4.715940266653044 3.648083351859626
