38
Energy = -294.78543657 eV
C 5.828637497134881 2.244264584520956 7.748587143883747
C 4.36661441161561 0.48687776076574346 3.5341057597725367
C 8.11763389565085 8.384338973525395 8.383499078333378
C 4.790687031472172 4.535812835983132 1.165262012268686
C 4.589153690296592 1.9423767993108392 7.539365849856479
C 1.6795071346094448 3.3513967765663977 4.609275513338859
C 0.6992167816161529 4.6877555594046 7.861802717900134
C 4.364469092153311 5.928587780478865 1.1429535915539186
C 8.484629487868052 7.534133968850855 4.040208539948983
C 9.085945739388192 8.3547883578574 7.569425243392053
C 1.532053866236815 3.6772747752851958 7.532374355753379
C 4.927735717121554 7.570233802196252 7.390016641958078
C 5.028432331158405 7.131400482977057 4.882661543869211
C 5.59011037335378 7.010989644900887 3.772485267339428
C 0.968407582462102 4.4104963819106935 5.215745212034903
C 0.7702384403899263 4.619057288452488 6.471650918387922
C 4.77194093709046 7.334851030789457 6.161279394706435
C 3.119175087201499 1.3034488821066543 5.629709762599556
C 9.482416904148078 7.469678973039254 5.0816360341401134
C 2.969692952328696 3.4281308368746055 2.3469591869301865
C 3.8181610071114953 0.7165189412625862 4.63933264041214
C 2.1411107056135026 2.361689431291928 5.565277451140004
C 4.789690991123068 7.129904591844718 0.800724059047166
C 4.130922748174202 3.3480696105643926 1.5468854470971478
C 5.770622824941584 7.924768111104007 8.33611061541598
C 2.1990531316019113 3.3494220696510935 3.309252322447807
C 6.891511189957138 8.222646762084294 8.848276293957616
C 7.077315946959069 2.5855922995216765 7.674832150146409
C 4.697434351743371 2.0669751916856196 1.615102030935501
C 3.378948262534069 1.7096005634158848 7.068941283227067
C 6.502265117438452 6.825636747834924 2.7389247764747777
C 6.127917065000738 4.976573856582753 1.1696219616036956
C 5.947663786171863 6.390481220302145 1.4220937797174875
C 9.130432595997354 8.201146496996914 6.221928939686611
C 8.20433902770879 8.393289201697637 5.149809377614041
C 2.213611437228591 2.636664177050236 6.990238759727021
C 7.846884910936309 6.964787965799597 3.0250271841050114
C 4.711839733832459 1.1067018866940075 2.4160006630107183
