38
Energy = -294.94361869 eV
C 0.995466394164954 6.737127775216519 2.471645997489636
C 2.639088102040182 1.3843226599942131 6.391368508614188
C 7.0706730038258145 2.3736388337747463 4.794682858225087
C 1.967846202079834 2.7646388359980767 1.5712980729844612
C 0.8235852900993036 4.979521979961068 7.025285857615154
C 2.4229524678525878 7.265801327726387 2.207088804835463
C 2.56920870710259 0.2726542405101299 7.138741633242094
C 4.932881569056862 5.917224234445379 6.965122963679124
C 5.876090304253832 2.5947962615023488 7.214312612711755
C 0.6452617087620874 6.164910385355913 6.108409535449004
C 0.4941392196796301 1.2370537545294593 0.3910652224939129
C 6.70054897152075 0.6418609950350297 1.15220416775526
C 0.05782452731104229 4.557630675519308 2.108706069864309
C 5.688290358815831 1.1208963972846362 0.06776506043578014
C 5.949743402084497 3.115161884983298 1.1684789733639855
C 2.7188628366549117 2.4780588501356773 2.5490744883454113
C 2.4657642847549273 1.1158686473833117 2.937489907385544
C 6.695523295945647 1.239316932445922 2.565370555698416
C 0.22241079166493552 6.7295185008161 1.0721423168680395
C 2.968711426162829 5.484201993620722 0.6014683741795378
C 3.0484035324358794 6.813566964361091 0.9366078392777176
C 6.953032306958844 1.3170849203409947 3.9778013225952518
C 1.2672562171434834 2.4170246797387724 0.4546218625136003
C 6.234694132019583 2.5360063642150013 2.250957854332823
C 1.4443971066893908 1.2213360017442902 3.9778013225952518
C 7.110057994996173 5.127192868359861 0.7525853575831128
C 5.772174272045888 5.217176082526297 0.22421791646590875
C 0.6259146463131628 5.353802386905816 2.870675101908854
C 0.38859165596092976 0.6381182010656873 3.2637379065804537
C 0.661545421283404 2.995633177776561 5.648247010727526
C 6.650078360399023 2.9649626612139324 6.0388535780816355
C 3.989555932090762 6.735226530180147 6.283806612084651
C 4.8982368972870285 0.2039484365252984 6.792638130996678
C 0.25462086901197084 6.387820750560153 4.868020470657121
C 0.9795597811241304 7.307178225557367 7.196741961142418
C 2.0957125999389836 4.74119492515144 0.04262461003138242
C 1.8035038751557755 2.4655794203861308 6.422602950158819
C 7.287072147136858 0.11233810547025816 4.225132079348223
