38
Energy = -300.51651154 eV
C 4.556785025038808 5.415626712859533 10.347556587135632
C 10.626012086619184 6.204872549232851 6.824201757114508
C 6.312195630125153 8.225213317605883 7.3147573353032085
C 9.650165863044801 8.502166917874469 4.414605174306414
C 9.10018930416905 11.269941403206019 7.711911056855992
C 7.701204671065359 4.712556166957087 8.570716533233169
C 8.156551589353073 7.02319463441316 9.654240575392489
C 7.784094073660701 7.941114355501808 10.67558843481384
C 7.748405530658745 11.5832824348669 7.48789261227459
C 9.552770784472022 10.49590801460121 6.575433620612857
C 9.272741105316028 8.962569556629477 8.818955760733425
C 7.1051014241320285 6.16096856755799 6.3068661506596495
C 7.20201889432145 6.208435885775596 8.84956829247063
C 7.9799809766266145 5.10266026036689 6.31595948599002
C 8.581984633780186 4.631403810223255 7.456670604451144
C 10.90687429813078 6.745779738105544 5.6594585319048365
C 9.86614116287283 5.285846513484665 7.6103973324939025
C 9.656402004538082 9.997848833164086 7.948978282673891
C 6.7096737661132355 10.634568742663458 7.429340362131754
C 7.269975112454561 8.373058226613017 4.890335933619792
C 8.493831250945327 10.277533123257403 5.6081675065962395
C 6.402690047459493 9.442418134664658 8.102627547513508
C 5.408394646326205 4.57880315974781 9.92311166761987
C 9.299770225881817 7.537235818621332 8.816662279736777
C 10.047117530632699 6.592273168428801 8.107311611140181
C 8.694845402953222 8.977078764714062 11.15352032109249
C 6.751237715401629 9.368121782887709 9.505982610079906
C 10.423266912969597 7.572911317450857 4.784312755044323
C 6.759549338840514 6.8749917454324425 7.587713881225145
C 6.240709180864422 8.510405024177883 10.468970927407252
C 8.236264756490558 9.375234550196737 9.870146953768657
C 6.5799661176726 4.828720444434944 9.24230959104303
C 6.253941341123875 8.292117586816664 5.874546804877193
C 7.405256311024159 10.987211376764547 6.203772500239057
C 6.761372759462892 7.118465705513468 5.280651181962314
C 4.548771712259343 6.666088699033739 10.784160295423453
C 5.124081448413537 7.780007930746326 10.642317278115597
C 8.454378457780972 9.131031636616736 4.734604788212353
