38
Energy = -304.76314808 eV
C 7.435926588538741 10.286887406431058 8.248221164901478
C 8.16575582978206 9.078044629627147 6.135365427695866
C 6.535849285914278 10.776924483801109 7.349791489212186
C 9.006342844450218 7.777816452349097 4.723080073278123
C 5.25827848394141 7.936538171526874 5.754449518781043
C 4.28067307821574 8.674575845025307 8.675445026760167
C 4.9018578611147845 9.247342726629594 6.304932760363266
C 5.4398451635265435 8.995375767377439 9.424138820283423
C 5.657709281395521 10.348967344584185 6.551075459874247
C 7.648442380347187 8.179267719397963 5.118192107311977
C 6.467339218506823 7.382407311734562 5.309633131011717
C 4.30294879401273 7.215598316274726 6.597842037618603
C 4.731744611136219 5.597708529869969 8.353315168022608
C 4.076995451655569 8.499333140338889 7.292614193161413
C 4.818151944798285 7.738989072989516 9.618453151318814
C 7.6407462901813386 8.26298870555759 8.74518907279138
C 8.363999534058365 9.070565952353697 7.684204998853487
C 6.813502120872746 9.31281531269242 9.167756625871167
C 9.736764577885946 8.351598463116899 7.228094467792636
C 9.476993626180807 8.611033594074891 5.855425603699957
C 8.768893073790823 5.2133663565674215 4.784601951439281
C 9.39060281068627 6.469708840565447 4.590300251943604
C 5.844738703258677 5.138176171591015 6.52453577286908
C 4.471973659431088 5.85714414665655 6.98064678975836
C 6.567991947136006 5.945753418387113 5.463552184759621
C 7.395236116444286 4.895926811252275 5.040984145851391
C 6.042982407535145 5.1306974943177055 8.073375829855145
C 8.950459753375636 6.272203952417842 8.45429173876996
C 9.928065159101473 5.53416627891956 5.533295744962249
C 6.560295856970013 6.0294744045469 9.090548664410608
C 7.672888951402757 3.4318176401435885 6.858949768338967
C 9.306880376202537 4.96139939731511 7.9038084971877405
C 6.77281262043549 3.9218420859737786 5.960472967289006
C 8.551028955921504 3.8597747793605293 7.6576657976769065
C 10.131743271490219 5.709409469434402 6.916126578560999
C 9.905789443304615 6.99314380766997 7.61089921993257
C 7.74139901881036 6.8263348122102965 8.899108126539286
C 5.202395392866821 6.430925671595618 9.485661184272871
