38
Energy = -301.43041764 eV
C 5.154870939677009 1.6837854513827588 3.8813789809356476
C 1.3487125860206313 4.606108124564765 6.465523246642079
C 4.2554290833029995 0.9123064761394359 5.4548697952323355
C 4.794850684554783 5.559517345441746 5.0443783200634496
C 5.66920733198548 2.649817784644115 4.654246096997081
C 4.677414824807447 0.5242198659305615 3.8792321124816986
C 1.0660267386910853 5.929400601290327 6.176375935959185
C 3.4860276260934255 1.7126138243125655 6.388390910062061
C 5.97307463055744 2.9408097200473065 5.826451085478664
C 5.421288911678869 4.562176755401451 5.460813257144998
C 2.4232749691353477 4.398692617964379 0.08360833810483144
C 0.16121547050429186 3.8390336537049015 6.999024537632272
C 3.1216991385445603 0.3052740663099159 5.745829847833161
C 1.8536208495160376 7.133826696108107 6.076948444495376
C 4.44940332255654 6.911939126645017 4.968405121472282
C 6.136771512588847 2.7626220206361904 7.191184862497527
C 6.072872033802587 3.93683830501862 6.499901532442116
C 0.08074845317021212 2.7746319270274458 0.6315440679307867
C 4.2554290833029995 0.352508962687027 6.136436992613505
C 7.252380131759919 6.702404999561419 6.878259306548966
C 4.64349914013596 0.7087027739650253 0.10727407520897389
C 2.6174310647512007 2.1782191751247937 7.16077865355823
C 5.189058901021843 1.9548573074368014 0.6659566907097636
C 7.151815645172792 2.159126549876161 1.883556860768103
C 6.179955249013012 6.169087324937586 0.26132348053147186
C 2.296965582887768 4.428414085567536 1.3243615658698937
C 0.9157581643296393 0.5527227312113308 6.878418760982401
C 0.003923030008566592 4.076719236257348 1.1465910735832687
C 1.0096565777004252 4.7714473106833 1.9069718101383075
C 1.3298030730219814 1.81100031682943 0.4287183582385075
C 5.177574074149722 6.962805141119369 0.967679506869947
C 0.8876873793175951 0.11705831535260854 2.551430147242
C 5.821721255037931 1.6010786193541848 1.915975780910254
C 5.726378214662916 0.19315170194298692 2.201821405335378
C 1.0334588173176484 1.3640100851047798 1.9215279860043841
C 0.6660339215686766 5.992064625348157 2.514185530235097
C 6.890384148783906 6.889038079740791 2.737775473391833
C 6.2365143989296685 4.7042453848905135 0.4147870079157744
