38
Energy = -296.68871816 eV
C 1.891657066378049 5.978655590368402 5.401548030524026
C 6.327265478958151 1.8870693528138487 4.76730048786008
C 0.9202653553361834 5.074558670091893 4.848799200395686
C 0.5749351022947062 6.444388206930921 4.4202995724896486
C 1.9846920320328199 0.3467994391731819 4.450778372198697
C 5.020085981958948 0.10897362883000809 5.800012510922359
C 0.4121809955376056 3.2376753232973505 6.491621267490636
C 4.214353078074291 1.5766008099420552 1.0886862065581506
C 5.555605522455217 4.504284440696318 5.640413117677073
C 1.5381765519615866 2.7533208185420484 5.621396317181174
C 2.207331629672234 1.4012984676242022 5.5763412421856895
C 3.0097996807191727 0.1634244667390673 0.9777565566530558
C 1.9909277068882734 0.24948756803953295 6.588728457709222
C 0.12354582676525222 2.8709858989004053 5.6413770702158175
C 6.100679460338382 0.5234791087054899 4.877571856520343
C 6.119795889787714 3.1036354153482404 0.15927481692402293
C 0.12010452153426684 4.051543938234543 5.369872394841425
C 4.377277666599019 1.1952041194281173 6.4448497374328255
C 2.6859047662226536 2.5916094687134676 6.351834951905759
C 0.18658739867826724 1.3016512528567838 1.5355818906859795
C 5.486370682893919 5.419654813461549 1.2012949903995338
C 5.100280320318728 5.477894874960292 6.456484697729744
C 1.5683612043504886 3.23767532329735 1.5323393349199754
C 4.546529480529487 0.9132770736678975 2.278344063935352
C 4.8399276364599 2.463718950702754 0.20932267021760642
C 3.1559749100223717 1.374990174771731 1.7871585409886979
C 0.8347710931719153 0.2837735482956945 0.879689982883865
C 2.4385210067840055 6.120231166819272 2.084551930769498
C 0.32883219716370954 2.7701394869599087 1.2532964646625757
C 0.4699252957691316 3.489124748573239 1.0150585587469112
C 5.144646473783633 6.3960992546197835 2.1126109130665993
C 2.592648579417172 0.5854157724143056 2.963296258611529
C 0.10462113773676786 4.772549000216917 1.512261764532741
C 2.747488580118506 2.5557938930463564 1.1326881356400746
C 0.22867375636209072 0.8625558328022835 3.823979851179125
C 6.015793640706003 0.822344598935465 2.6815808142103283
C 1.0772857451389273 5.730541930503812 1.6798943011264553
C 1.4897335629492712 0.8911305865424174 3.7445451121818594
