38
Energy = -301.03363421 eV
C 7.862582873445624 2.505380290691924 8.33296848246049
C 7.100186186078147 2.890008695361965 4.775672298564106
C 7.806397448307532 7.205694419601901 5.02997029632779
C 4.192664644418368 1.3981932681490394 4.6394410908348105
C 6.356288542871245 6.603748137022018 7.018389979799241
C 7.5314354673549 5.179312375521846 3.727000398577327
C 2.8873866155648753 6.573340575462376 6.4139468942459805
C 2.4326206348559865 5.041740010280816 2.5269044864535353
C 6.397928665344946 7.478504755820998 3.267192102219228
C 5.519943426709047 5.682205815332692 7.077698958758304
C 3.777442953653861 9.155332116451902 4.2343305689511155
C 7.279947244106293 3.2638662495352886 7.23152003118837
C 7.589557590269981 3.9929336238838866 4.073869299658969
C 3.33008618930806 5.278462709594107 6.19674919962545
C 4.068624406150738 2.683158171782179 5.427010019163556
C 3.076637953687689 6.901957445023572 3.662070597171316
C 5.011615414436122 9.26160553438488 4.201462791365241
C 3.336597854022654 5.7674047642478765 1.6644787574392208
C 4.586901290118109 4.736822570031521 6.642352881522635
C 7.113925328296892 8.420669649476729 5.248892973190386
C 3.9955141166559764 6.779746092117536 2.4520820468600317
C 6.260259482455758 8.672959948582626 4.150391568749352
C 7.170996165422893 7.402955913524574 6.269175827784525
C 5.029478494667242 3.448897314059783 6.1229367872386256
C 2.7257465739324225 4.711797089019075 4.9936496552795715
C 7.392197619047507 6.56162070592212 3.8227944503483244
C 6.486694568149055 3.1828539582576028 6.135433067630393
C 2.429927081894704 4.84509482393308 1.1256231164344745
C 2.3758141590097592 2.3737210357310596 3.9187739076071697
C 6.611751370195735 1.6973082316066064 4.341428091374059
C 8.163388089934612 3.820188283448455 8.17487367964227
C 5.319010374211883 7.053174544380374 2.4908838852731026
C 2.563991833413363 7.609010701344177 5.806782697649057
C 2.4973092631457003 5.558080343901511 3.8546252518498245
C 2.9668408811445266 1.2343642356011382 3.9149325641663015
C 2.874939168506363 3.3125536492938714 4.854644055169379
C 5.499659261777355 1.10604678781502 4.411859669554053
C 2.988350520305538 8.019750962326944 4.517529410387752
