39
Energy = -315.03026835 eV
C 4.853540003730643 4.207570597548681 1.7718693347808723
C 3.6984517739621254 3.3335851469311355 2.220722801399781
C 3.250856957539462 5.534427273018998 2.7331927124320146
C 4.524157376508967 5.574426577003255 2.002859748587205
C 6.185931938573174 3.833586769366574 2.1282599442121475
C 2.6090639542115763 4.196474635345824 2.6774092565035374
C 6.417279490142282 2.478580895501872 2.504680463967453
C 4.004761060653238 2.042688504609967 2.938769600304727
C 5.261880520154845 6.621361572837361 2.6641815614813584
C 1.5933296961028778 4.031797286087302 3.777145516017483
C 2.9153250132395834 6.835736594124193 3.41383328585359
C 7.271637698652118 3.861782338952383 4.193994920067071
C 5.350641920605061 1.7503958249365958 3.159510851660873
C 3.9886704890957825 5.103350326390639 4.030056432787774
C 3.252991811964629 3.01515156986268 4.788630978248589
C 7.137391799407129 2.504063313881596 3.7469147289099394
C 6.389436586082098 6.027672720079588 3.4228712252275093
C 6.8831351364839675 4.735830597356842 3.0928388758440564
C 4.314389409349169 7.286438985825925 3.578578495372798
C 3.0779448846013855 1.7804670014000856 4.108602938473964
C 6.210039924998382 1.7679014998503935 4.519418248376964
C 6.1072997618145 6.23741823107831 4.823563672893505
C 1.8192120151718192 2.6970257232545802 4.4904600894889235
C 3.495223435244219 1.896652058187164 5.74744371385949
C 2.1110423373636964 6.490836642283371 4.527695576309151
C 4.80117298827333 6.8736404463088485 4.893571927076802
C 5.942335445069086 2.6237787717372485 5.681309747179937
C 3.971003142218439 4.165882504254118 4.9001035689625265
C 1.431781873277508 5.137617827674778 4.649283099653585
C 6.671823509682163 3.962622047287264 5.4883505100749534
C 6.119966856003082 5.232347297057902 5.852740555471146
C 2.2529998124900374 2.7287665547052846 5.962344072985361
C 4.707099545625572 2.6677219124499616 6.315371486024904
C 4.055818888933294 6.4586957881853095 6.080714994987045
C 2.61513587358383 6.39092394580412 5.899036881451686
C 2.530192398409133 4.005881916473868 6.661383424625989
C 4.852638162162756 5.375762824598524 6.628043093718615
C 1.916006982393829 5.119971389888318 6.085067563449003
C 4.096162888404121 4.098937450038353 6.526947463455636
