39
Energy = -318.19345449 eV
C 4.634657143164725 6.407755210547517 1.7241373103973625
C 4.658169629454931 7.530090397405509 2.61551407363726
C 4.4615535869923555 3.6506621895527545 2.181615092497206
C 4.30083547407026 2.153719248446894 2.3992763346372783
C 3.008551817451284 2.282979634379362 3.1738902977325574
C 5.783245863077349 4.295741092877498 2.1187610642679986
C 2.2676383999974155 3.60647889362719 3.068890086455453
C 5.883293079250607 7.501487272802666 3.2872989893550315
C 3.4154482660787915 5.858956350709461 2.225034491024047
C 3.156857305115785 4.474043960520385 2.302440897472579
C 4.303643647406984 3.0686012708196713 3.6632535996540625
C 6.695398983865497 3.9440143442965496 3.2011372836703496
C 5.320803559209346 1.883109120620024 3.553090597611591
C 6.750963478129216 5.254160763127514 3.928442353496559
C 6.563809269270329 6.328635781781935 2.9990637519411134
C 2.591179937850073 1.5120463395443604 4.345891867325241
C 6.544529550481751 2.734089375184919 3.8571331811870024
C 1.5349574770301861 3.6806356335080403 4.3220463526656525
C 5.855266207776627 5.666145507125555 1.858649081847308
C 2.6862979203269046 4.159974705575982 6.287876824806842
C 1.76054649509051 2.444734806747495 5.0404830429507115
C 3.367201486884377 7.059002982032041 3.253989541539682
C 4.982809195898178 1.0903160086598538 4.788141710998092
C 4.016842331802968 4.6662988491442 6.4309003861947245
C 1.834269586092801 4.747760164936617 5.2861451593608955
C 3.5429750728368195 6.357868613601524 4.696795631402489
C 5.958054140515831 5.168184556947682 5.1351660402235355
C 2.122109914422974 6.0498583668966 4.890735641596223
C 6.590607635753499 2.733780762046623 5.296864226093696
C 3.6196968356173196 1.0142745079384328 5.1988501381138095
C 5.755328055452726 1.7068949092022967 5.823918888107171
C 4.547664886017105 5.640708525005873 5.4187688091729935
C 6.158129592461078 3.975487318984468 5.898189841997865
C 3.5128955975779883 1.8036046535017813 6.464213166326969
C 1.9611856869436455 7.7405672167841155 3.2565640020615967
C 2.452430298611173 2.7336181119094554 6.283807834927731
C 1.4169194366768156 6.917266443835025 4.034289935762517
C 4.799115392103553 2.2959754814042745 6.775516366076344
C 5.034674990515174 3.7110278552442395 6.763773332686353
