39
Energy = -315.87771796 eV
C 3.4293689459022345 3.811264737826349 2.1815698789633418
C 4.875856204442596 3.769514590643188 1.9133620029730045
C 5.754309284456506 4.843616912229975 2.1588914521390223
C 5.303428314066895 6.2148308947710404 2.5037436406737843
C 5.468839832007398 2.623651562078898 2.636909829663791
C 2.8699960490941616 5.036154658829785 2.770950331582226
C 6.890521362646169 4.477586717461948 3.0182036776024908
C 3.1394560051743463 2.535851610202619 2.8780872203255443
C 3.95090508268825 6.037572604745298 3.1790187521410527
C 6.553477220317944 3.14437420443498 3.5476787892212
C 6.287499565762704 6.762915124553903 3.3234707578652145
C 4.45250944537855 1.9516567438052794 3.2790521879983694
C 4.509245422100395 4.9183782993408185 4.0726847203031085
C 7.285841372135433 5.657091729826902 3.6780113317675993
C 1.9871383736293486 4.981416123371901 3.946704508470882
C 2.1461995398190754 2.465035200986558 3.837070270523946
C 1.4930262844380988 3.6985055381139142 4.335267991158678
C 3.561917035947574 6.765611891565536 4.4837842102810646
C 5.996223940917507 7.487121993176638 4.558373454112273
C 7.008747198546979 7.16153067863813 5.4669931045937945
C 4.982493861928516 4.70309573940094 5.380572517878842
C 7.633736682784512 5.88546672911759 5.0399564795159115
C 4.67422651192117 7.274752202838889 5.227813400961822
C 2.362258273795261 1.992502311680251 5.2357953176155885
C 4.723543675058751 2.2769779446076166 4.7598539511855895
C 2.5069823622322214 5.889336302182723 5.021957841613593
C 1.662122955458388 3.221005243461969 5.674852392496553
C 4.3274027497354535 3.7167345981409112 4.578632378359877
C 6.198381570561025 2.8500423309094294 4.893728925831846
C 3.6536565048545078 2.0398374165740303 5.825992716676201
C 6.39684155477184 6.481625544110761 6.588830622511743
C 4.989719467825939 6.634231740470561 6.538693678208517
C 6.118695204820381 4.017087786936384 6.024616358529231
C 2.472117964374418 3.935837020255755 6.577378068067976
C 7.051982507704218 5.197424779640134 6.193116103590786
C 2.809330035230466 5.283848414673319 6.305134538380883
C 3.691567920368437 3.120467922272609 6.858467534256315
C 4.236274986455998 5.392062317855767 6.708094523815098
C 4.799565240677656 3.9993883482983694 7.0520910481739065
