39
Energy = -313.53141002 eV
C 4.880092897812162 4.569722099144351 2.5381930626409983
C 2.510188651442283 5.209458755819467 2.781494271052517
C 4.460675078635749 3.0595978652392324 2.144205395708297
C 3.1762593481466173 2.638238920912058 2.654414883455598
C 2.191455353099337 3.7352660054224667 2.935721559117856
C 5.6189471925765275 2.31527994093983 2.4977206936147582
C 3.907393081656447 5.717397856407953 2.3847417316146315
C 6.388039260868894 4.597900669006551 2.777972870541658
C 6.649227953347602 3.2449737275935884 2.933187420398947
C 1.7055654323711933 6.422938398590782 3.2021099017293415
C 4.071523176244226 6.926589528628606 3.1241274316461474
C 7.004156584962512 5.453205584662558 3.800081202914223
C 4.44813695990536 4.2475015369582305 4.033170403869207
C 1.676073214399033 3.5228233180157074 4.360897915473751
C 6.51411680941821 2.7528191674754106 4.356931642894785
C 2.728009754556942 7.344296251624013 3.4512682816659623
C 6.388852709553562 6.620859922547329 4.301493984914489
C 3.2077699024268056 1.7811269952719209 3.849124162312883
C 5.667031869820526 1.5599618271898006 3.7560647527182223
C 7.545783929457168 4.796693792362811 4.99095267132038
C 5.055495793278128 7.113901358952854 4.167406186034795
C 7.269953842961694 3.464071112748675 5.438812945489137
C 2.0425612549604386 6.904529324745648 4.583947997669267
C 4.485053565608303 1.434460745573172 4.4943245717724105
C 5.080328058323013 3.2959616553062068 4.737682845172987
C 3.0346820501882306 4.519445592064981 4.0841427348837955
C 2.3114155139269035 2.3227642694194537 4.833753823320578
C 6.25479781036215 6.501595058925757 5.77813173143377
C 4.838621550728566 6.824040569710463 5.640612532092225
C 3.078571852018192 2.644030781781662 6.011240220842326
C 6.507963646773665 4.051765957844332 6.591837197019643
C 6.959916282959444 5.409813208180426 6.201360866981235
C 3.7951547327360022 6.065019901106661 6.264631363161729
C 2.441115864891646 6.106061995577058 5.6241508907763835
C 4.5018788308390905 2.4353886816103105 5.837803807701559
C 5.174114089061054 3.738300032967098 6.85770434238824
C 2.1484228074530587 4.644963631268454 5.365591536954627
C 2.8767500872000262 3.944029140160649 6.424130218124668
C 4.033390041872042 4.692691655086092 6.818346785418788
