39
Energy = -302.6506381 eV
C 3.1967873741284225 4.943500221113191 3.3712412936266003
C 4.3485478763499295 4.279888649544628 3.730290979745912
C 4.642661046375395 5.890599338911391 6.479080219696401
C 5.766582023330482 3.5570410323562767 6.182793894857481
C 3.6898763012993663 4.959773466691591 6.66410108386396
C 5.584761594007957 5.111138859440332 4.184156193012965
C 4.454751769232387 3.0915678936940907 5.768542487201273
C 4.353541642831644 2.796345816020654 4.267943552234566
C 5.616996808850577 4.983949202374749 5.858151754101093
C 3.2762873493550866 3.6802786091275057 6.381028934033436
C 6.880575584159577 4.608580335430032 3.561626904259679
C 6.721818436212534 1.9085058325884838 4.59531075051506
C 6.9905820788011 3.541505556942721 2.533058688407563
C 6.8386189963373 2.814029924449446 5.771663251319327
C 8.301611011716432 3.1068255785169914 3.058157733808687
C 8.07747592619179 4.124721441229152 4.1599764009426
C 8.085550003873443 2.227008473060889 4.170299693956513
C 5.885301854047098 2.7182304503459624 2.376714777187296
C 8.184302396435603 3.232387801331685 5.304345572046587
C 5.655329176092627 2.1900140086744537 3.718823249757043
C 1.9080530197577072 4.317638974289655 3.1410884688924905
C 2.0524821356955214 2.0608242012507874 5.006185071549624
C 1.5594934884581588 3.0340309896263986 2.553539327680123
C 1.9970575988384847 3.282269087322736 5.840574076627469
C 0.3619962045629495 2.9217695458118937 3.4569635781481276
C 0.8371012922915398 4.1772983166736335 4.112369209156885
C 1.061268604077955 1.81712011273476 3.954370070517137
C 2.1832694534349777 1.7630012462504288 2.879383486016585
C 1.0491751841224064 4.276870990215927 5.514474418698137
C 3.086191039629746 2.0433997106648434 4.053042997897924
C 3.4656910756170394 7.974196480537423 5.2599919956213
C 4.428809576816354 8.625029861976131 4.252943767735485
C 4.412630492635566 8.615608782328975 2.8654450266211504
C 3.2130854358670398 6.42331310106588 3.4874349631293238
C 2.6948754444938436 7.038043851039246 4.581273383764125
C 4.541877529670834 7.222359055604711 5.941885765628645
C 5.382452466219376 7.587594574475992 4.8542572624303775
C 4.469333224133772 7.1704318931536415 2.937294430029244
C 5.431661174011778 6.5717716187900495 3.858640569502717
