39
Energy = -306.3178556 eV
C 0.9729665178085287 5.308311423836888 6.512938424282012
C 5.767302328560372 2.827321828912157 4.5573842993997395
C 5.638270188287846 3.4068346819630495 7.946949953340729
C 5.387034651494882 3.9283024641169844 5.576212267437841
C 6.228379097875053 3.5923785295765476 2.1730068446941533
C 6.31200233948516 6.23374493299646 5.850268256966351
C 2.5761954986756157 9.199799849674323 4.738215242568044
C 7.876255843985187 4.275763550087984 5.2952552437703035
C 3.947021797741062 7.3483479911148555 5.102560979361548
C 7.960620391035616 3.307418432966991 7.774685915424318
C 7.838137818374297 3.50509010940308 4.1510349417356895
C 4.671693317783992 3.2251810798028724 6.795887315404926
C 3.219438175251513 3.5809668925784823 6.676243564345717
C 6.598069980121838 1.65951929419412 6.543049142756948
C 6.864718772328794 4.089255503243766 7.58392739997591
C 2.541755282217079 7.015316608525872 5.327511742045421
C 4.9570560690628644 6.341520583323635 5.312889431614858
C 5.294521128652359 4.265634098688725 8.78823632403267
C 2.045024673617328 3.319525255740662 7.353815089529161
C 7.370878783387208 10.592031580059938 4.295027169979437
C 5.777148769060226 3.911498280428683 1.0054365044562343
C 7.201853104975462 7.2058076481307385 6.15688693835409
C 1.8360702005961904 8.252179590632428 5.0985015450396425
C 2.1347642874891135 5.750504951251657 5.821539860098772
C 5.522259004454481 2.127577973905688 7.408145357493297
C 1.0944853854202434 4.209855977092959 7.170046015415562
C 6.1623811012658845 10.075895163147296 4.122657915836171
C 4.44051662972139 5.02963222942438 5.335822476054939
C 6.60394759226313 3.266168726904481 3.384192439636395
C 8.234528430818644 10.011698382212243 5.0656107542603905
C 3.9834381306588855 8.778829229956145 4.665666271917783
C 5.069350031545901 9.466204950078248 4.268908286596281
C 7.9430710507485625 2.343395118995766 6.676246473994877
C 3.1682577524112947 4.743510682483795 5.806967590210748
C 8.785901950831763 9.223187118249545 5.94412631370867
C 6.685110792115566 4.754503202612695 6.0891845607125274
C 6.267957882933187 1.7590953201514579 5.221012269896485
C 8.055102472934728 8.126399713125073 6.189356693611531
C 8.337046578462608 2.9598636194694077 5.460322284757871
