40
Energy = -318.58784283 eV
C 0.6455571141808311 2.854524925092673 1.8064924969578589
C 1.661767947659594 1.972262407419772 2.3493781709971278
C 4.206543388325391 4.755984082898966 1.7780462509740909
C 5.566753651616175 3.9969864408647995 1.735651901044812
C 5.676473602475187 2.579949528839602 2.166529891212069
C 2.9812972310947594 4.039754176029644 1.9480313108343223
C 4.43723773122165 6.112599099861217 2.502464824407436
C 0.8570961441810367 2.523271162843528 3.438892144619704
C 0.5057314721195243 4.276240333792364 2.1600040964554372
C 7.097235809228969 3.1251284816362497 2.765968820457904
C 5.745151140331107 5.974336425124311 3.226534863198122
C 6.44516080100122 4.778389399222273 2.721099782120181
C 4.523395557827911 1.8289647757518788 2.6096219892752424
C 3.4864131702047962 6.563866315844825 3.4827942012125948
C 4.908501160899273 4.576109566830348 3.132468283640927
C 1.8517424798015605 4.6424577053007985 2.8599028006231566
C 6.69975691457838 2.516773995735986 3.2287383521869435
C 7.097235809228967 3.8520442085174107 3.6348044803175066
C 3.109221264644906 2.5021133149997614 2.4892008549244555
C 2.2821750894994652 5.853195714070823 3.678454660743019
C 3.1134530668550244 2.9675599214908206 3.920064854086687
C 4.82614802158503 1.3134389113196092 3.9422540302794546
C 4.204785283739267 6.6664547003594645 4.795014804334398
C 1.7621053779108076 3.5470914434782412 4.107085380921254
C 5.579249256818826 6.250724736466474 4.681655020875405
C 4.245934172288427 3.937169261537458 4.135452562688081
C 6.212579559997544 1.7568070453309261 4.3305902279513875
C 3.8354796169477727 1.9943953401487007 4.905616037544623
C 4.868971585450306 3.1346843969210427 5.047918295093338
C 2.14290662671323 5.638687518305933 5.105693075004507
C 6.844892770397225 4.0803131125679375 5.014405972581085
C 6.246532788647138 2.7940262348412537 5.4908359840729535
C 6.095431108281802 5.215138996130721 5.5905751616199035
C 3.3480727094237053 6.109815669769424 5.78962083063322
C 1.911817492895957 4.289359337871526 5.421800263256699
C 3.81481419621261 5.049820253139141 6.619334483541775
C 2.9263734035672946 3.873444157963687 6.410836319551501
C 3.794943874345485 2.71041549918363 6.277280282848497
C 5.198246778872953 4.682994877499925 6.624949110588576
C 5.236354506681975 3.192593465493406 6.603824066820609
