40
Energy = -312.74696487 eV
C 3.889796174632231 3.2674475027818017 1.3766175589786747
C 5.304305071496541 3.0967875058131735 1.647764147613625
C 4.085055794023724 4.761782660539485 1.1450921004431933
C 5.506176791331917 4.572024609581912 1.4206804750630755
C 3.0722825357375925 5.492403617898928 1.9393574708019619
C 2.8358564985781203 2.9969576578665635 2.306183907028545
C 6.224132864317399 4.949852775313914 2.576484386695203
C 6.091246667439977 2.5500589088953665 2.716797592088152
C 2.2414987594557547 4.338567529129205 2.654879402498436
C 4.603359962221827 4.4442459932788605 3.7593496369113937
C 6.857076438692686 3.736824787904087 3.216311134959681
C 3.201209666466813 6.367628625193867 3.407138088140744
C 5.55052222167383 5.559302660264752 3.813967512417468
C 2.772230717229359 2.0386941758832617 3.338507473077245
C 5.437352967086033 1.9571855036237464 3.9360584651121524
C 1.5545386343258738 4.644061699609608 3.9504295266963436
C 4.010087153048233 1.5406561976566127 4.137596434393759
C 5.484031431149509 7.577926467874793 5.052558906817419
C 3.480826013820786 4.916316600154165 3.255513519098508
C 2.0655158818191004 5.936855851036838 4.396716387424286
C 4.576943401132751 6.671358454462376 4.192653424936392
C 4.74077348002175 3.307258524860209 4.492816600659124
C 4.334888102700699 3.3842505349975482 5.812004762953215
C 6.955710983208072 3.8848085263547096 4.6069352395831045
C 2.2042598156418127 2.3323796748838936 4.641744882399032
C 2.648406881780648 5.718635650659422 5.675182555243085
C 6.735075721037245 6.8773953205481035 5.434633710856755
C 3.2107387426486484 1.5122360098448044 5.385494045142751
C 6.383543431743299 5.321927152025194 5.04716471265731
C 2.317823596209051 4.388438979966503 6.137554413008669
C 6.084216708623774 2.7640451613137387 5.1270750192892045
C 4.674754284225631 7.688312867341555 6.327955451386957
C 1.7188933887258302 3.6498416958156117 4.994815404277896
C 4.037050504517816 6.266826621511712 5.704307446651424
C 5.822713820577727 6.813964966728896 6.555413345686723
C 4.857358647680002 4.158037243405666 6.932041186022314
C 5.305927361668356 5.411585674330465 6.245845618195353
C 3.8378013903932935 2.2224969034598767 6.562835447991791
C 3.34881507178716 3.6656455995797006 6.894354867835659
C 5.402383466962204 2.6801541534434814 6.6463487847976275
