40
Energy = -322.39740154 eV
C 1.7568322780643966 2.981615784792005 2.9915300058560654
C 3.109519259808088 4.869430547792817 2.0705896612627632
C 4.451022382233675 1.3832673978929757 3.1459272767515025
C 6.2789713889926215 2.8601822560284718 3.4182609163641375
C 1.120971907018282 4.329704198490701 4.747533820755719
C 4.974554232733382 4.8272356067362985 4.162142673245948
C 5.6339765802816455 4.796736248640174 2.015014934763303
C 6.997991666868253 4.902639542319474 4.515642464855719
C 3.0704245073109178 3.3435428279237724 2.301829131537352
C 5.748424866279489 1.49614700482691 3.7961779009637344
C 1.7953085407723384 3.1397963305435512 5.307007831834447
C 4.361223462781922 2.5157153355769966 2.071825520190266
C 3.402630620084035 1.6269778133023816 4.318744566652558
C 2.0080362253922597 2.174783437626035 4.283042172043041
C 3.8838886216334845 2.920639191854111 3.5241678407446124
C 5.600371047270526 1.6562720774073774 5.212702599022219
C 1.957946663886517 5.369796057431483 2.8112950272052246
C 5.468048952987791 5.098950611136152 6.503646682577548
C 5.66056064574205 3.3895400112619067 2.0947792327832944
C 4.328331340444132 5.573245478077939 2.0113841071522405
C 2.1219766836535765 6.299263790670499 3.8804728272989055
C 6.409493070126578 5.766081046599637 5.5665168400971226
C 4.9770212285206075 3.5508058128476643 4.010607675063632
C 7.08291643563379 3.493654895401273 4.594675528684328
C 2.943969874557433 5.111384887812852 5.916283057502634
C 2.8773173179662765 3.6179270599698636 6.150243187241271
C 3.962015356985889 5.487821486053354 4.829811307681015
C 6.335538311404958 2.8541726456563046 5.707998574721337
C 1.1894633784313202 4.21363790394518 3.3013662870081553
C 4.233788987985891 1.6863013007632635 5.5933524776124175
C 4.073581574104994 2.918933183337233 6.365962665701457
C 5.395728909019296 3.643005795298889 6.493258632097306
C 1.7081585607016767 5.527374384231346 5.125531883038116
C 5.733995749143927 6.802725176213458 3.4935740634850507
C 4.446892467907887 6.812733315972351 2.871951190449889
C 6.235220877006905 5.433561082277476 3.2830582365876615
C 3.482085322314198 6.846837042863076 4.015976400055653
C 4.37421984775689 6.9822979530658245 5.329083665094286
C 4.174205942935153 5.878820079791806 6.366873553031959
C 5.761203027476144 6.944271511785866 4.927986492334245
