40
Energy = -311.30726292 eV
C 3.4532603664525845 4.782042609792208 3.406451428288367
C 4.903184227550773 4.58646495292003 3.524358645194936
C 4.316404653509791 5.577959681134836 6.361820679350248
C 5.823187814605499 3.7126228462052784 5.922444429573798
C 3.472488017360978 4.587401065683466 6.854715536884931
C 5.785787748665833 5.638992284530042 4.232034603840119
C 4.65711117625975 2.8153991796971667 5.830113904841173
C 4.6128943405205 2.1248578037423567 4.532387980606823
C 5.491823690289767 5.109880071093397 5.705786600640109
C 3.4317081283838626 3.2595073062222726 6.487235670772418
C 5.313174204407427 6.990801684232615 3.7954474010721966
C 2.6571576090371893 6.923927478209612 5.054205769410373
C 4.152834716121724 7.160249421099205 2.9392364313580033
C 3.712115866387 6.846066487416202 6.003545336953849
C 3.8445564133047543 8.480899948406101 3.559812847607873
C 4.977905576271009 8.203032957117713 4.514183270476221
C 3.0433054388273053 8.325684101433259 4.704934929830224
C 3.11986563692499 6.130233163473422 2.639263223537084
C 4.181991010606997 8.225802986606842 5.7160356747771965
C 2.737871467592674 5.997350207366551 3.9854968790632403
C 7.144820333214295 5.267966155081256 3.6806444408520016
C 7.00902576978623 2.1959947491090994 4.451310666105561
C 7.041712713105127 4.188452575522755 2.7390886328818436
C 7.039337640818002 3.129685208413063 5.544673299734422
C 8.369922785997202 3.658637255312298 3.025135028295619
C 8.365411303003254 4.6847740962185735 4.17309596391142
C 8.313841608653881 2.663694110321161 4.0124250540565525
C 5.744289132644054 3.5553334781120753 3.0044551120539875
C 8.40305794614424 3.6452581872537344 5.164416780975194
C 5.752727423074213 2.2373451637478214 3.713956000300793
C 2.630758661566867 3.500230199566688 3.416625687760035
C 2.3276505027991274 1.6048924351224803 5.052545129967229
C 1.6757035988663591 2.688771726903325 2.517595830407269
C 2.170735377248946 2.6201485241412183 6.05936158173872
C 0.3827965330154476 3.187775482396185 2.8872000380463874
C 1.1421277134410877 3.625167850286184 4.0400889339032595
C 1.7130530454079365 0.783240020397424 4.128381209659849
C 2.276659583949042 1.4437115447355642 2.9740871689041217
C 1.2118227911748463 3.290526612172795 5.353769580305873
C 3.2571018083920524 2.2104035613152657 3.9528165928780816
