40
Energy = -309.96342357 eV
C 5.270990499865221 4.7407683467746 1.2068711043474938
C 4.842564416956962 3.379087290729372 1.5602518566769268
C 3.086344262468038 4.912836307266857 1.857542985728732
C 5.565241359873125 2.7977347310031155 2.7013043138977553
C 4.156065075987041 5.680234695579218 1.346779264720322
C 3.453084983530514 3.455067647719701 1.9196250835126099
C 5.846363112921354 5.155162276074878 2.4106101188240654
C 6.152333521742281 3.956532260282368 3.2226791701556534
C 3.793284634635114 4.72678146192692 4.206673438027715
C 3.2757858014177494 5.536390518161556 3.1727700247523076
C 4.71710251747991 6.2956648692762 2.800650779713706
C 4.623320004830708 2.2005098522743713 3.6617625170624084
C 3.3150923174286397 2.765052183727191 3.163416482418369
C 6.522228320202886 6.827889526854431 4.444619440539302
C 2.365161621393232 5.053202555291501 4.516693105452276
C 7.876122662940829 5.081543029973824 5.58249370632051
C 2.8252915208333307 3.540628298561575 4.353764121191337
C 5.209546303784438 7.17274525936875 3.9433846916010418
C 7.233975630443683 5.526005313065403 4.332237962885574
C 4.901930552912173 4.875630861902228 5.165743754799116
C 6.2241114166361475 4.39091137813843 4.608026707703524
C 4.404250237041242 7.607079693573916 5.141331892958784
C 4.740084921250205 2.202139685523528 5.098615214613112
C 3.442872749363925 2.839907948153415 5.545303374964056
C 2.573379458482241 5.676961571840975 5.86115385010256
C 6.501447466355434 6.965559656865752 5.898356559114727
C 3.3609034082283946 6.817134333808913 5.961867190052902
C 5.4417688728656275 5.850978843709362 6.208820226596241
C 4.168289501689748 4.006860407939726 6.139994208134814
C 6.705600803917609 3.7718254647759895 5.950135210595225
C 5.2753574138503145 7.720911480187759 6.323972837913949
C 7.425689782631593 5.922186493785175 6.637671294117027
C 5.73445911295853 2.558749338682351 6.186644657148186
C 6.3455046128332055 4.89637226803771 7.037183084455813
C 3.2791936089513687 3.113886092899451 7.055750986610763
C 3.114055083247264 4.727811519359749 6.986925918580695
C 4.3879227862454115 6.60733986128816 7.033395352146362
C 4.839291545898746 3.2074967911526895 7.269041293737208
C 4.140358257522764 5.381644879750026 7.873540182197674
C 5.253533962958943 4.444679129288268 8.002300160203886
