40
Energy = -314.79195846 eV
C 3.0099082692957695 6.363406233632146 2.1440890767863485
C 2.3522782203741017 2.852413942214222 3.2770847535958536
C 4.551463030699333 3.611408092477878 0.7720917661201507
C 3.6375059301292105 4.377354022620334 1.0998089690529802
C 5.408566916760754 0.891271657077133 3.006284447402604
C 3.4065740335021526 7.473579665691794 2.5275035431112367
C 7.419215937750177 7.863499187023019 4.238387722234613
C 6.082326258415395 1.345950640474487 2.8261492757664355
C 6.013695740346363 1.9322139502196272 1.6944825159330301
C 1.5246955230299908 4.881306927091795 4.211064709697262
C 5.530563463552604 2.7660928391039117 0.8237337367958705
C 4.33191369000162 8.13099642641262 3.2278255804798244
C 2.9617821284830264 4.981760648031635 2.056782042073582
C 6.2167416584677575 0.06233051818174093 3.8115236108525496
C 2.571036409941567 4.218324359163553 3.408336459626429
C 1.6272917495751127 6.228926185622593 4.60711917630913
C 5.219395929184271 1.4404576922335073 3.865777957502803
C 5.383747967240072 2.37767020423343 4.953666569075948
C 3.1092823794515816 1.8544947601183899 3.4083364596264296
C 7.921994895533829 6.944977836680356 4.946164137655114
C 6.52631840957715 2.8795643082226237 5.51944398022251
C 3.8982906921710505 4.381714878476402 4.3951895856589696
C 4.965412666986172 7.715467214351933 4.3580055059921605
C 4.517651213772996 5.510914672977983 4.631210693049524
C 0.8574980463163593 4.041067327897111 5.152523018231757
C 3.960955895687148 0.891271657077133 3.534998057341953
C 7.259092520728785 3.7172870076237037 6.110608653221013
C 4.319224396612621 3.3123135943190873 5.341849326942779
C 2.3773990002411844 6.66621564686542 5.502436017342573
C 7.381340690605398 6.252178949692204 5.989885977188761
C 7.195278849006362 4.93444392260037 6.5943296669224285
C 3.9724723087349396 3.730505937649159 6.7117546458230715
C 2.6748577604720674 4.1936120408328765 6.957254477339381
C 5.966486772233856 6.449202950275665 6.36932636872061
C 4.671096628621279 4.724909694702772 7.423060411746813
C 1.6036491542215523 3.963193157558334 6.187586197787807
C 3.4332940093427107 6.598116412698488 6.335267268738993
C 3.4263486171477946 5.458941338963201 7.20410044174249
C 5.901737916012897 5.330762367191353 7.234637565674344
C 4.760362752609325 6.717657664309907 5.48906806344974
