40
Energy = -315.95027917 eV
C 3.3591579620492458 5.922077502528368 1.0351324768392058
C 4.728424985297444 3.9127953139253226 1.2766359363778998
C 2.418202892016378 4.800756333662768 0.7590746237726859
C 4.586893877549006 5.3695403575956 1.6453695569229299
C 5.434551856985748 2.9146909979357054 2.0729065442967434
C 3.212101341674599 3.5874590668316686 1.1550100625250423
C 3.041426535772998 2.2875561101479778 1.879135519980643
C 4.390737603821438 1.9680396968172058 2.40465298379094
C 1.5144594542947762 5.437769114399137 1.7725027468651977
C 3.760139346229937 4.316084785022581 2.400916728442805
C 2.478723547793256 6.559117400783043 1.9573656417941367
C 6.09729803081021 3.4156655288443956 3.2650005188067617
C 5.248823062946468 5.86044984216201 2.8781961408821166
C 1.2606540585211243 4.873984973978083 3.0440472341809173
C 2.115160159232952 2.3181375320282127 2.9788977065171203
C 6.010065765660451 4.819228212191554 3.632050570366919
C 3.7841696260882425 3.782883733735346 3.68235490886985
C 1.2205901818195593 3.4215333361928897 3.475832738739299
C 4.2484016996778715 2.197747684705808 3.876325861618983
C 2.902764176320656 6.634886576004317 3.3303989643501897
C 2.8268570750914996 1.8102812623453015 4.236731509249749
C 5.589150743797039 2.6043923033809384 4.520780008868629
C 3.4736524484516944 4.338075941380351 4.841866611959349
C 4.3509739116616215 6.543590939186294 3.7676423373097983
C 1.908706677299339 5.828655130377914 4.017067482253423
C 1.1093443977843598 3.154046527616478 4.880440708606982
C 5.783884384144826 5.040591497668267 5.030981448633145
C 6.551939239291783 1.7206151454979126 5.3419962199933275
C 2.1405622382886627 2.1869269015675776 5.362190572415267
C 5.451429408440712 3.685995988994231 5.7362359396611975
C 3.958666921091892 3.91827172620585 6.168061129485095
C 4.7267006283826065 6.008203712825117 5.098132999764799
C 7.713389698706711 2.2809553528191926 6.00604996680417
C 3.6443032373081663 5.444454482403298 5.893438655342649
C 6.343125248174683 1.3711018998500566 6.736146256193968
C 2.638361586791814 3.1479278915622153 6.415925023340329
C 1.6193856155573034 4.077927076446835 5.840636673571783
C 2.2598171098621367 5.287405605560687 5.311420197669754
C 6.436305607728678 2.8874746552187163 6.592546434180432
C 7.486663318609109 2.0886675206279595 7.505868019782746
