40
Energy = -326.79977842 eV
C 3.716278114650894 5.706400515093588 2.1186246663207844
C 5.249241127352626 3.7630252423183235 1.7558025722719495
C 4.197793484797309 2.83595128270133 2.134807771260373
C 6.486351680299341 3.413662025591922 2.470602892514423
C 4.986104628815514 5.144230948638924 1.9093924288251787
C 2.5976501131774863 4.876690387836115 2.4424976107093834
C 1.8606427412443032 5.645824737427659 3.516447110319484
C 2.853688725804548 3.351143815497439 2.447288592759973
C 6.201289180655037 2.3032944271807443 3.3122092162712313
C 4.828234510173302 1.8885900633346655 3.060267931102744
C 2.7091989904294613 6.763718976043971 3.9351039088858037
C 5.956472292838354 5.781083590707455 2.8631331157761304
C 5.76523021605405 5.019588233081624 4.194505022090063
C 6.999455786260543 4.612427989418953 3.116277968676685
C 2.237467084751128 2.665900800478533 3.5446013073565807
C 5.182306119203629 7.010941878582927 3.5781150676875404
C 4.572394009259438 4.440059841345784 4.411901377142868
C 3.8534876406959184 6.818280504501291 3.089567137363971
C 4.251820157594863 1.5043183828522284 4.330327976198114
C 1.5456403976341206 4.981970318666712 4.755808912839502
C 6.424049765332849 2.2705669133048914 4.762453803597831
C 2.887590708506449 6.735618282404731 5.372914057999855
C 7.036213466160267 4.55598519369562 4.582132243108085
C 2.88688751940983 1.7784767363667997 4.535459053882879
C 2.0066554458235806 3.607219994116882 4.681284518207035
C 5.323427331291219 7.2144770684222586 5.036762608332904
C 3.4033220506542183 4.122844581788505 4.505704423938279
C 6.467172505309002 6.9948984889539 5.835628890641781
C 5.179943103588101 1.853144645238557 5.387518170975907
C 6.863856499799957 3.4347429071638995 5.461274398110073
C 6.643993526686756 6.143770448959411 6.732737593250383
C 4.189353038516089 6.800849240784205 5.8989222514333
C 2.2148104473540173 5.5724340701757935 5.905117532844975
C 4.829280386914545 2.8013966356775017 6.459523574662104
C 3.4334184200155096 3.286840099883502 6.60102251414868
C 2.5290400522467364 2.632995481865733 5.696576939234159
C 5.708677601997027 5.090616951519921 6.971852168487892
C 3.2088569376530582 4.788138753747472 6.724557034691494
C 4.363598184816892 5.642092049384079 6.8407823045448275
C 5.923639950062487 3.7203214390761206 6.595027275365401
