40
Energy = -312.35419137 eV
C 7.17367254201054 6.3583037672869835 7.383757349250796
C 9.18545324252861 7.520118199125078 10.682994918274469
C 8.632768039734088 10.35460270250056 9.067003625388212
C 5.65505733470998 6.261518289957185 9.774959810588555
C 11.778917813422831 6.100581764125509 8.796239088472543
C 9.992305888406595 6.454896484805579 9.967099359284395
C 9.754275268106861 8.805012937192172 6.068877566272829
C 7.928427157285482 7.454017450170918 6.705231405457666
C 5.888057868690741 9.985689528081949 8.67277112423916
C 8.678294135119794 10.944432158139207 10.561791833424579
C 6.537032660666847 9.809617510920985 9.951557159388171
C 7.3619844518661965 8.687115866193997 6.066678091956808
C 8.494933317862154 9.502426447615422 5.773359605881856
C 11.358038409812501 6.168835505952809 10.041072908035332
C 11.521007808140034 6.372474136006711 7.557447824214167
C 10.526442147343976 9.826958484448856 6.780729929316949
C 7.885144127312372 6.217797125638466 8.682424228671511
C 9.283849424256397 6.268154880727132 8.656250199810446
C 11.4272343487986 10.156352380944487 7.846731672460352
C 7.6951872568768085 7.541366983126672 10.660346877785841
C 7.115037709896555 10.883900660121853 7.107253311768818
C 9.666244045572615 10.98254077257036 7.078063343290613
C 8.404753660780313 10.827441058237758 6.475161578757559
C 7.279782496534395 8.92690708298635 10.85283608252022
C 7.728534171950971 8.57940804051345 7.771086054751451
C 9.610481388243286 8.87429934322629 11.239259301205303
C 6.6189778155098775 9.464313649636422 7.2479503211016425
C 8.457944593533199 9.680740784805316 11.34003798449916
C 8.703772377997687 9.021380200479802 8.635269943315084
C 5.384300347203038 6.02137374234324 8.538913827111594
C 9.431489010797431 7.464328018766186 6.536684299520666
C 6.601668542089945 11.245808191266896 8.36625882128573
C 10.518124767092969 11.15911781729299 8.378859143326396
C 7.445667550026637 11.032301600048669 9.62966615003033
C 9.972200534225511 10.784043160683794 9.716177815584421
C 7.047631730215112 6.540044025298085 9.878538386811169
C 5.8073166156986975 6.115005164433398 7.291545607361514
C 10.527188477251363 9.431953966903672 10.174164632481572
C 10.117211901292478 6.582728405987234 7.4307001021095935
C 9.694181986494842 8.476338922757636 9.51005506142232
