40
Energy = -324.29759244 eV
C 5.825523262053225 4.590791666942245 2.3570651369167095
C 4.639153825539502 3.779311512370377 2.3711420086696413
C 3.386995061394869 5.920745168397556 2.7303825811505424
C 5.876938310493554 6.076750441045649 2.703049606686451
C 3.3720201862453916 4.476756071467158 2.3436730974185145
C 6.797889940729879 3.2774368743583966 4.067634900346377
C 4.479348373691783 2.6963381423796142 3.3796574442558387
C 7.056547922364092 4.058221057183053 2.9078908948339985
C 4.621902109987151 6.694468779319259 3.161123136501356
C 2.414992810607082 3.828759138114064 3.1820452456493404
C 5.614974708033759 2.494618507824916 4.274216360654231
C 7.986213630654585 5.140772019573611 3.1994101528165206
C 7.154513842340746 6.3211675781487875 3.3200625473555103
C 2.42571553064879 6.072203586149675 3.875737502616439
C 3.0645293009081063 2.746455689412878 3.8851783371462068
C 1.8343064268888312 4.7609057246752124 4.155459864310458
C 7.543962355898365 6.678867876685318 4.780390117538407
C 3.911333054360357 5.472392275795582 4.074074166236972
C 4.590134926707204 4.7591962154075915 4.885395389686434
C 7.999080132729173 5.315660559976316 4.621006522493651
C 2.0711980463883832 4.266225692945489 5.473936591699932
C 5.82360815974994 5.096785065301863 5.296929540862803
C 2.8899302550942285 6.592596525446485 6.168784374344177
C 2.673510218395268 2.923266705531988 5.291892587860546
C 7.160825930032629 4.208523431529176 5.196575008566361
C 4.264444377747936 7.476464577027328 4.4167134573844615
C 2.8578246650367594 7.09640802582019 4.824673382523753
C 4.246856902929891 1.2071251839668586 5.783530135092318
C 5.388959292154964 2.0267314960115033 5.643885718025504
C 5.071653899481421 7.353095991988128 5.623616744155594
C 6.3311531386734385 6.553630387392869 5.673888414676939
C 2.6499464672668145 5.176921766800624 6.441822861930537
C 4.226910776032192 6.88915594010312 6.668461096138675
C 5.6481527915141605 3.0651542892335737 6.7673311631286515
C 3.517018805629994 2.353722943944329 6.27753239487187
C 4.281809714297197 3.368918529692635 7.07829759120294
C 6.12915708115162 5.552969288977059 6.897993653548457
C 6.547370786677748 4.138525922937884 6.555142429454199
C 4.778094217950086 5.776447575302152 7.374087568938462
C 3.8203261054476725 4.690339118747878 7.245137616238956
