40
Energy = -332.45821394 eV
C 4.240493916802867 5.2702022056630575 1.7792768130942518
C 3.4315965177917076 4.078570226532363 1.4864465891728422
C 2.103841203467368 4.213707425496765 1.9113659964976948
C 4.197863672798979 2.9367233200805876 1.928994934174255
C 3.4172632974652024 6.038604429182367 2.6782127990051032
C 5.628352373233619 4.821131418071313 1.8974186446269572
C 6.791027179455116 5.16509591919345 2.5907034412279866
C 2.0936509813474666 5.399222974835912 2.7510811972018967
C 3.8287873378362756 2.417085513106733 5.531023697500321
C 5.531713558288529 3.3555587699905147 2.0256283236278345
C 2.2261367082072665 1.886036402306577 2.9663337577426128
C 7.377952948724061 3.8888087124418846 3.175159337546793
C 1.5220619256986392 3.1454859889832316 2.6282411070877556
C 3.65287154397818 2.01043635430954 2.909952279413794
C 3.7744756301482907 6.752570514811741 3.8648761337770994
C 6.425320298247565 2.865817519660657 3.0370775147309073
C 7.098561005332817 5.838382784516773 3.8317719484841244
C 4.9047556359484705 2.9572090395433075 6.297273253193284
C 1.5413310345593518 5.016586578208366 4.013260854392124
C 1.0975545760591492 3.6510073218741432 3.8987391045468476
C 7.599841523960887 4.534185399077931 4.397434950193609
C 2.508430396608957 2.9847977024407397 5.697474819608966
C 6.3777874607529945 6.695330395293596 4.693876429977713
C 1.722980389874983 1.3522941869885143 4.180340978856167
C 4.97979422095236 7.0835086622460794 4.604007668208951
C 6.107170160612637 2.957567453184859 5.494160198642626
C 1.4631361911989014 2.5849562269280675 4.837546615586842
C 3.0827538143989406 6.486608713778556 5.139987977306745
C 7.077579000558363 4.019244010823454 5.6322969062857515
C 5.790073236933053 2.322279718721349 4.213169595254111
C 2.138826519085993 5.45548011226987 5.2532441318680245
C 4.621445259116247 4.033128315891543 7.239608818200793
C 6.530858208183331 6.394175395818703 6.0821245955448
C 4.312717041065284 6.901063272383532 5.894100749611576
C 2.476898041087188 4.382342660860195 6.20985491149071
C 4.397183459025113 1.9794035377417216 4.179889636064699
C 6.762282857782033 5.044537691461293 6.564162316540585
C 3.3050271003844487 4.539241513833251 7.267171822697637
C 5.2479944377647225 6.430170450982527 6.804472727746085
C 5.566383335363488 5.066215160566274 7.367010423369629
