40
Energy = -317.7700771 eV
C 3.936922897956806 4.6902829224767295 0.9653455421354066
C 3.2854114769673637 5.89341858721868 1.3436299794451478
C 3.4614129933496907 3.433385178993305 1.3530777989149794
C 2.3303291376225137 2.996168808926191 2.143250674010427
C 5.3735606189879705 4.831234257374221 1.3373888860130074
C 4.256735143200469 6.764872421077719 2.0719943720327336
C 2.2892217898642526 6.098333481353358 2.344048667322444
C 5.937266800702721 3.629950249763239 1.8068248842747663
C 5.437099567184991 6.02026059693948 2.2223117439862294
C 4.6723471655718525 2.718868277479348 1.8686651181825267
C 4.4755138397870935 5.165234794999229 4.228479735853558
C 3.1779604034589495 7.033829468658744 3.054778177049303
C 1.5577868433004556 3.771681688534854 3.172857955323406
C 1.6590004458944756 5.182965346782101 3.3112827185153106
C 2.7352397152244263 1.7821324132316894 2.7630153975185623
C 4.230299452540123 1.6491028640262393 2.86623378152776
C 4.717958269378973 3.14818918970941 3.3194090761879287
C 5.7714244453191075 5.435219047863014 3.598600924599452
C 6.140810095431617 3.7222328185819555 3.353765004196298
C 1.5336963698157193 2.948071174466376 4.4075021592491295
C 4.0675272851716535 3.885114669556776 4.351424001265678
C 2.206044340259002 1.7022343188374156 4.065328420791682
C 6.58590904891724 3.0292503462278324 4.705744127843322
C 4.526506838326423 1.3086305860208467 4.315726488902444
C 3.091311019150528 6.689427194617304 4.409973948574768
C 3.222897654098652 1.3940268046147433 4.949340143705627
C 2.0141764411423395 5.687406336406429 4.627164466979807
C 4.33658650558802 3.240904656021273 5.697217342006169
C 5.688050549001319 5.982228826106804 5.098896062432507
C 2.0035989728348302 3.4069633456134936 5.679362823623891
C 4.17780178570753 6.243291461073883 5.308814818890554
C 3.1846744950355874 2.3498506379165627 6.1208579284687215
C 6.86153182234484 3.9319300881497647 5.657270345039198
C 5.998998691027759 4.969640883724941 6.079276121124768
C 5.476016435243199 2.05162386467867 5.306229236027462
C 3.625949278976013 5.302664319907407 6.312825995219639
C 5.233465976514972 1.5028052406274128 6.687624812776364
C 2.3392758393649635 4.828307194424117 5.749628776155713
C 4.0492487163402675 1.5317860830984629 7.129524944222421
C 4.701935934737446 4.417984655262898 6.586811700954127
