40
Energy = -321.11545156 eV
C 4.202950215137392 5.962923553210768 1.9410077500321237
C 3.7940912872713835 3.475308501467859 2.2480284788585565
C 4.6365555498485085 4.6532020561202145 1.8839739276032728
C 5.89645706233782 4.380061079387726 2.6718448798728116
C 4.682897379044827 2.421653819159756 2.796107510933612
C 4.882271050009901 7.007401166990627 2.756425956179277
C 2.5663730743899253 3.822680233630387 2.9113891223262667
C 2.9655208200525713 6.304136680192852 2.6282654291972944
C 6.0782429607547925 2.880087796394283 2.631544304573899
C 2.145735725590912 5.274772374371033 3.1142364546988737
C 6.521744052154869 5.443754233964805 3.8024352230145193
C 3.6557656748454037 7.458997454841225 3.340617614120909
C 5.198828968593494 4.618344758106819 3.951930177213407
C 3.181370955877694 2.2861302817119302 4.763604992688111
C 4.158609782516546 4.766198008834727 4.600032445953782
C 5.870610064639988 6.760235866930728 3.7910230200567736
C 4.455346584856335 1.8974865012473172 4.158183559114969
C 2.1799296088626843 3.034327096939552 4.075286081459449
C 7.663910730621026 2.4752617395125385 4.427573396269256
C 3.0089881374485095 4.876786805417562 5.249171723400182
C 3.9108701138989614 7.576869625155716 4.758712401183133
C 7.765218075804354 3.664894622682745 5.333376556928901
C 1.639639985775083 3.9610376454612006 5.05676360080713
C 5.260167669693418 7.137922112755517 5.038530526043206
C 1.6543184865669347 5.3628070330062645 4.54385176808984
C 6.826481138364374 1.8681133013247555 5.494151431737594
C 5.39641553277595 1.8696457843587206 5.292265964909882
C 7.188873064496793 2.3881375868002714 3.183737293269313
C 7.035872139900661 4.9136621642412335 5.133134603369995
C 2.0579533686263463 6.24034610794897 5.6994996945528325
C 7.074212504418839 2.9901085989633835 6.39384416633111
C 3.108196117482742 7.22934134243987 5.869734889060974
C 5.200084279806655 6.232491950317933 6.244066276881915
C 2.477547783364344 3.88046945601888 6.34454852079396
C 6.111314369093516 5.116936201224506 6.275125499730822
C 3.3884697529447285 2.7644267837687604 6.134480747079705
C 2.7554649753497356 5.327302516904488 6.7032241067535345
C 4.800805006327525 2.7436600682377503 6.3426366267697
C 5.881334027658976 3.678769411166875 6.739231677550673
C 3.8742775905847098 6.4070233465794555 6.830117268377637
