40
Energy = -325.41807869 eV
C 3.2054242238335036 3.913133656250177 2.519603085217144
C 5.113982268296922 4.145364882540042 1.6851330325388498
C 4.005726545905552 7.182639658829588 3.9008233538415293
C 4.254964005342584 3.0676042324622097 2.104394556382012
C 6.324986807347 2.432817583910984 2.9164260010077943
C 6.411340713320209 3.7529390703395626 2.2276431416507
C 2.215264442670224 6.281177701684529 3.4764429063282085
C 7.195716429014079 4.536553839463845 3.1141176773065964
C 4.960482565044626 2.127223712811628 2.973548172708775
C 5.379229663167834 7.470271393422679 4.728993315220475
C 2.590119929057671 7.245046123841359 4.443160864012769
C 2.526417969512299 3.8699806077829573 3.832975255883733
C 3.8995336122384954 5.14715073460706 2.0262533543494903
C 4.596010025250378 2.3250521451607997 4.402516291839478
C 6.657283178358194 6.688272566820144 4.495752178505249
C 3.481806107305694 6.303625735529993 2.6961469247372856
C 6.90037507674879 2.5796676183833314 4.265079599268605
C 4.626836821739496 3.81424592816126 4.427462360379019
C 1.8785803082396624 5.043793986639793 4.246962295253201
C 7.615295644663169 3.8316379654072277 4.402796260074062
C 6.352976097564747 5.566291517804079 3.5946883398694505
C 5.1547807401171175 5.030578981697547 4.189465465954942
C 5.866908830487378 2.297661689611403 5.24745613706107
C 7.156774281523373 6.0395595623402025 5.653545054056363
C 3.359330367512987 3.1140881493255965 4.895585989315641
C 7.503730892654789 4.571314420102367 5.625031180407021
C 2.4278334623925706 6.733040495764465 5.783172144379412
C 1.943784563623673 5.399361206695662 5.665305167705746
C 4.936719752006808 6.914401447466166 6.1470570314886075
C 5.824448688797285 2.9195440546277416 6.522025641703559
C 4.579609571677402 6.190847097146361 4.820768258138179
C 6.737143058990037 4.0018764933553665 6.722958035478708
C 6.157507971229232 6.245353912440333 6.698754262609637
C 2.5512503825829205 4.594619649623213 6.6876684971752285
C 3.5692444358549222 6.660144521844237 6.731533813840798
C 4.519410976342265 3.3359776680621906 7.099266716941397
C 3.273881561365236 3.4149233132634134 6.346813509946757
C 5.9867584178280335 5.057993054468368 7.423217604237557
C 3.4899144730287435 5.430456258372357 7.448683376322669
C 4.660706781573206 4.615859006149177 7.702864791070514
