40
Energy = -309.66484562 eV
C 5.659555941182279 4.346866120949555 2.158500641814932
C 4.544010714290674 6.385428634752183 2.6284438910952184
C 3.5100134809990875 5.337889254111853 2.133717371235045
C 4.247595603882461 4.066360507614714 1.9777491089441006
C 5.881407005301482 5.780238754816556 2.4491683121598107
C 6.526183862992737 3.413715503283311 2.951922407802575
C 6.918714737977303 6.24441272185829 3.3531514995673626
C 7.935282353262358 5.342544146271921 3.597879165523687
C 4.3027763674978186 4.233817353049543 4.149315394235165
C 3.726869507533207 3.238418578796808 3.231050679830197
C 3.881022435262364 5.477058721268437 3.6609457150340354
C 2.358267173216505 5.295045554734341 3.157094099460064
C 4.0412421514380705 7.337343803006835 3.792513513483334
C 7.7432528674892325 3.965617458836895 3.345022883460513
C 5.932568571560769 2.62181559835035 4.034304059254039
C 2.2007995656359456 3.8822278085808226 3.712891292453954
C 4.522392344850815 2.153543446863602 4.031041426462638
C 6.292515672323854 6.787712750069844 4.592318583592351
C 2.8035542780245426 6.422584692408065 4.215696251636436
C 5.028555426136596 7.625241873673541 4.796733254857227
C 4.117980341758942 2.084261989259431 5.386598154378611
C 8.054027312713096 4.362884569764792 4.685670918045196
C 3.9844397896581762 4.133815478207227 5.457388696121258
C 4.132491442225991 5.525974614193358 5.865578012042294
C 1.8588555482388822 3.5446833383771406 5.002205545551551
C 2.8675145661053882 6.20574783226814 5.650743569202326
C 5.589666560076089 5.748747165960675 5.400245857695241
C 6.36150175450134 2.874276366379271 5.4298459123596885
C 5.2047017856391395 7.170514074270685 6.332571850045639
C 2.9907902704449723 2.999224938857122 5.831440048156537
C 5.206263182045347 2.649874264346265 6.232768528803952
C 6.603244359171827 6.650538599820986 6.158684655937889
C 7.215402173008821 4.025853363058237 5.738603426007816
C 3.158920874082649 3.5103509042959087 7.251096160258384
C 4.3799863301190936 6.007011172148294 7.279982577976191
C 2.2558633558807224 4.599825789659547 7.292790750987433
C 5.377706734112997 4.818705831450783 7.54228580010398
C 2.820894514442631 5.875167153694997 7.065665663738779
C 6.474913845310713 5.0986520232935675 6.522815354115049
C 4.707087232734392 3.5748392805263327 7.322390999698663
