40
Energy = -319.67780043 eV
C 3.775895993885111 2.6317477675011296 2.515885357490142
C 6.720228145841157 6.198730571258055 2.750592380774672
C 5.6771218739054365 5.288271250913843 2.460479246099652
C 4.3933776019463044 5.762478119926393 2.077571839163877
C 3.161205779611173 5.021425974397765 2.3121791028526157
C 3.788002634436225 6.95912365494515 2.8498487873199845
C 2.9521582535259956 3.76071128713039 2.8088536982102417
C 2.633432703076156 6.151720218576109 3.0586004787392396
C 6.656644058196556 7.490082621408391 3.3520472336417657
C 5.171343761711935 2.791005331442919 2.5404722270148623
C 3.5595249458007117 1.5778592765101338 3.4839214006942965
C 5.623218984174926 4.04717848200901 3.2777560797696434
C 7.539882555429815 6.4268116941435025 3.9119475830079953
C 5.969269094958836 1.640794043646201 3.0476187735545923
C 4.9375170554640455 0.983176267748863 3.787033495899021
C 4.257785246229012 7.45279276919471 4.116787746073104
C 2.7116785266040067 3.6280777423456843 4.299736952277926
C 4.429422269399079 5.7834541163498665 4.979614925782442
C 2.2403947767275545 5.975280511510291 4.410361390875891
C 5.697968799964203 7.8622993696358385 4.352927952030538
C 5.9583909975833915 3.885661691583802 4.765558483718337
C 6.254156715414924 7.223250477035583 5.501591531511288
C 3.250032931520818 6.748917637102203 5.165042649108301
C 5.138048579209309 1.4345173672133167 5.099735062452146
C 3.0330389172695096 2.187588298122643 4.626820865075889
C 6.000232043310136 2.5735598306511616 5.482369074942883
C 7.289038437895436 6.238455210029418 5.276198921192491
C 2.134787396727993 4.715764138159503 5.109278504688845
C 5.42240340148439 6.171664675217237 6.065515971812573
C 6.483220669893306 5.039478961745341 5.9412278064525985
C 4.527110992626854 4.4233114537933105 4.524016813074245
C 3.906180947616255 1.8894366073450357 5.735382462240951
C 3.183701643331012 6.2041065626722425 6.582777175483043
C 2.635645129019221 4.856542719109816 6.493485944799777
C 5.671942696706827 2.9542458988080025 6.830547917637917
C 4.181988102523364 2.6993103203145625 6.8661843183251055
C 6.002317404804719 4.220595325815892 7.217095019926003
C 4.478967703751499 6.079918722032774 7.216864630925577
C 4.705150351005425 4.79784711550773 7.666128785408761
C 3.6041031796690635 3.9793372193973098 7.196472712201887
