41
Energy = -333.41364065 eV
C 7.253926391687184 9.397598459233002 5.623351888898872
C 9.633905187588045 9.028411647507472 5.373965221448939
C 7.55792855809977 7.563070421922433 10.474849269018867
C 7.582953625435817 6.027123924214188 10.887293244388424
C 4.40350834330087 6.313605691226533 8.645565865343043
C 4.423372663017177 6.243107045925142 6.329784278115976
C 5.0914360293845 7.0542213680990375 9.601161363192986
C 4.599769946142772 7.6829839676995375 6.294081309904483
C 6.337562622344974 10.017543706904778 6.465467158541913
C 9.414334425111374 7.596734606981929 5.233750606213545
C 6.981740839123412 8.045065255326843 5.105453594567408
C 7.534200692213573 9.10142226946659 10.881143513317172
C 8.65748193848294 8.240918888174834 9.851215865503889
C 8.13211525862065 7.059849128584188 5.10713590444416
C 4.5826382666046115 8.500525098549412 7.466437350830657
C 6.529843518259642 5.355838568572462 5.98935790329375
C 7.227004534003367 4.883692438477112 8.405707188072574
C 6.15274224959238 5.025056910617426 7.381221832933661
C 7.859834548561553 5.709426457398246 5.630471101111758
C 5.4800553759457 6.077235900479132 5.380718128562837
C 6.608933779668691 10.334314334005434 7.804444023114016
C 10.691140277370403 8.866624391938709 6.323251943067018
C 10.71196899409351 8.805002166075164 8.639397740080897
C 9.728292396075675 5.456189161127133 7.430726473551218
C 10.307306993819207 9.58383126350201 7.540547448313236
C 8.77686807823749 5.092807234353671 6.474748622257577
C 5.386066732803441 9.657898731413333 7.423396941733474
C 8.506043671207115 4.781180970663833 7.814524677515858
C 10.850534393891486 7.399390210508616 8.644658218481243
C 7.958609001344424 9.51980463787419 9.633388175770753
C 7.157491356140737 5.603217118951202 9.64066969784773
C 4.26504383293633 7.719911019535136 8.645375099162878
C 5.699667233361028 7.508312082876957 5.234812295230772
C 10.024590428838513 8.068872962333893 9.597662965617168
C 7.888187584348321 10.234466964468671 8.39452948931694
C 4.807569628080846 5.530893630059643 7.550256211698086
C 10.532268835559512 6.613642212234511 7.46898972299635
C 8.584236705841715 9.752297839797933 5.980338924604983
C 6.4589994233504004 6.883258812801579 9.855335667968157
C 8.96186707011346 10.088549909955852 7.3706014582258845
C 10.514682500232972 7.426522994326765 6.29338655036166
