41
Energy = -314.11063969 eV
C 3.313538462374576 3.5035001736206315 1.8966115466496019
C 4.717249507255306 2.91732563099141 1.6911428614190702
C 4.673472804368198 5.449619963130355 1.822973110168939
C 5.58055849360495 4.1787286770624155 1.7238742613476414
C 3.3021609583051577 5.100884486278334 1.7699811779804075
C 2.3786946981111887 2.963257040453728 3.2266351285025894
C 5.114742335295966 1.9429896590405364 2.6873934502913697
C 3.773038689135008 3.673945640322265 3.247582032940375
C 6.718377914891697 3.925888622855029 2.651519147218847
C 2.3826378180496683 5.5592837417382075 2.9871473533709807
C 4.315041407397526 1.4402062584995208 3.912723657146444
C 5.028917678048779 6.40938715266731 3.078782825822394
C 6.185652122686597 2.726265419165363 3.402371342926771
C 1.581085228751551 4.363772959346183 3.7575066732836455
C 3.041191486478814 4.618883466814466 3.9052982285765414
C 5.202828293191959 5.306888532445007 4.008956205461682
C 7.24671006962545 4.836519557577993 3.6263083024923946
C 5.050795998416027 3.765485229257653 3.9296053259163273
C 6.428363552506588 6.082645752733362 3.899886255388915
C 2.55628710054817 6.685126044322745 3.9900574774655193
C 6.4539237048534295 2.25600243235473 4.844223792881356
C 7.215994480423036 4.609201310071559 5.144137555068752
C 3.564269768449669 4.573183943000281 5.235692164563679
C 3.8871032079771775 7.169676810556599 4.121416647472238
C 6.719375291304859 5.937892136183332 5.49503285049731
C 2.950838166240663 1.9926457929631023 4.306012263919281
C 1.9591699600063308 6.235722853488962 5.293719993342207
C 4.509812722448606 5.635724787690349 5.202017828144373
C 4.601623511580839 3.578171664692716 5.2941360566572735
C 6.67936423685508 3.3759685355194655 5.732222444298262
C 5.172099265211551 1.5762398873329868 5.070099297026739
C 1.456952728896156 4.860498092438315 5.211149145651522
C 4.166732676336738 6.984583504740016 5.721479951840868
C 2.9209391508665616 2.4737898836815746 5.698983801423575
C 5.396279639294534 6.066172387368005 6.3057497270689975
C 2.918570060650562 6.437755650101774 6.379600837287986
C 2.4728595805424556 4.096680342655766 6.130892087169282
C 5.3260703995310745 3.585303718780097 6.581538172609067
C 4.402583938360256 2.3523279546722757 6.096191172095849
C 4.7353754807914825 4.963938922005593 7.191904641219821
C 3.279748399142842 5.168946370186888 7.108474194197207
