41
Energy = -320.08696988 eV
C 6.96590852330271 2.8409315052133195 0.901002102036374
C 3.445354086751607 2.662457924973934 0.30367729100346014
C 2.048702808185757 2.432798812156803 0.03065045401733809
C 0.7686394642662382 2.8830993965558 0.05496837329727343
C 5.607292983201346 3.4876419767630074 0.7155180750330966
C 2.3989668790512693 1.670124701014393 1.2246417013605921
C 6.654600168365373 2.4952013005150286 2.176219653068964
C 4.43074985050257 1.4733499481570618 0.4543065948204549
C 3.7585161222314354 5.134442180377083 1.282715543818985
C 4.142807605540846 3.746170373589971 1.1913730918583276
C 6.376789428903482 4.4287346454760765 0.23852881755910724
C 3.473330694344331 0.6172919779599351 1.165755399391451
C 5.609818495504505 2.0106358787903647 1.0184824697028654
C 6.815962268896038 4.710857803941686 3.3365514710055293
C 3.4827105100545506 6.192911491310099 1.8399756520267483
C 5.925851729083669 1.8147289666052504 2.4326734717898018
C 0.4985278053349342 1.4288533864092567 2.9184445895497255
C 1.7748991498475184 2.1149046463969636 2.5270806852312844
C 3.0466874427203177 5.860506216531532 4.310999022309398
C 0.5148867882088964 5.605229125903433 3.4915583528329472
C 4.603044255017487 1.9723784018539285 3.0977700184043035
C 1.1715958988163464 0.043873292551282854 3.3909545070347633
C 3.8458834986423107 3.0348016808265705 2.5489302832691694
C 5.917236393094275 3.5514253204080934 4.420215671458802
C 2.561820129222714 6.918215077848309 3.2266943778588297
C 3.3473553491255417 6.82591320738933 2.1080601837580546
C 6.376789428903481 3.3766488098021386 3.3325456795827924
C 2.9099240422697505 6.517187518526309 3.0714805165012673
C 2.5157605118001922 3.023830090865585 3.2042124693760283
C 0.12258720878982737 1.6111069351077791 4.390293125327295
C 4.0745689581692295 1.4007947251240433 4.39120726785754
C 0.9848343255585493 0.5338164574244704 4.779525360410129
C 3.166919787971873 0.3633838344204324 4.517977926505348
C 6.208731851236805 2.74163174959307 3.4384769032518827
C 4.727330634792309 3.81832704343848 5.070226811491579
C 1.7314328509615675 6.191442014825261 3.730363489137749
C 3.5708293547142445 4.695149133275318 4.84265545856677
C 3.8140671700861595 2.5883009472148113 5.222124254028493
C 6.520839053606676 2.734995812376826 4.589235248068465
C 2.150903255764292 0.47067367578169594 5.550205295628146
C 2.8311198815827985 3.4319349990392434 4.626509555043505
