41
Energy = -337.72900001 eV
C 3.5021353799711576 4.105113273076149 1.9932010727403935
C 5.608622785432855 5.293076370675163 2.330522138991462
C 6.66121238710868 4.195876127804065 2.572788963642534
C 6.072435853995296 2.8200414043296242 2.4367710190270375
C 4.543112728935813 3.034967923582413 2.3353016752517988
C 2.4470190819676847 3.857946512228575 2.9526121374084835
C 1.8248462730578585 4.99804824309573 3.557971438551969
C 5.90517760499044 6.384834453686803 3.2673730631083364
C 4.716800656874514 7.077507328960054 3.5568582378174343
C 4.132154341408568 5.404117334578391 1.9302312844746516
C 3.917123620822242 2.0105750496952868 3.19215714951745
C 2.3213048967512435 6.337384046082059 3.3036897079078953
C 6.250758004163319 1.8530100985617797 3.4949917548760334
C 5.25508973862749 4.077682702110739 3.2820591155954757
C 7.379109878641563 4.614968465213936 3.810336192233843
C 2.741148966019619 2.5920336170662144 3.7230311357460706
C 6.787098075317205 5.890497487544503 4.262410154819797
C 4.933863334381242 1.359364096825367 3.921522749977762
C 5.011220323462142 4.194388581082351 4.64648279450378
C 1.5301889911297468 4.960768352747152 5.024808258294802
C 2.0573275843909817 7.107976991108709 4.485697932766361
C 3.8307865208716065 4.395503324562944 5.184023838970816
C 6.926408847697966 2.2934972969542105 4.719217952867808
C 7.304198375414689 3.666608002584419 4.848809215538066
C 4.4726376019389225 7.397331784837483 4.936807560841046
C 2.458749345583564 4.01362245686825 5.660943771992675
C 4.848167311077935 1.3893214792645774 5.36599461088716
C 6.214015380355449 5.777913111860091 5.613367765762095
C 3.118656270616227 7.598433549889612 5.29192354625984
C 2.7130887741466045 2.6127299849482406 5.1977556423316305
C 3.6195955101704667 6.488290013664567 2.702557200026131
C 6.066157375905498 1.9779491000267708 5.833410989235023
C 3.7527974959826174 2.063724882817289 6.003714090479456
C 3.5953250989271472 4.405870849437013 6.67425955241518
C 5.069794603713541 6.520980823312286 5.96945372653465
C 6.294449183896785 4.25337935495987 5.806165345818526
C 1.5617611915173464 6.234397810768929 5.560661050099324
C 5.737862970047289 3.1403569898846415 6.66716881475175
C 3.86190475520348 5.918461588814484 6.730558217149701
C 2.746986452542281 6.685010801706027 6.379536874197549
C 4.348317780241247 3.135849686083537 6.912263609888354
