41
Energy = -323.148832 eV
C 4.023186842798755 6.510424964438189 4.416788087301309
C 1.2762179216194716 4.461333874531433 4.369880535433622
C 3.1150544463095797 5.9912303806763765 5.075457070072809
C 2.344258701660277 4.8414770328204115 5.315556256805316
C 4.408319185767803 3.790337266919366 6.293653807368781
C 1.433843059663731 4.657870953903864 2.8863185315911073
C 0.6321285292387907 3.2412316921615045 4.694874590942456
C 0.8579945378393794 3.8160797032644354 1.8097671662755068
C 0.9452957338998804 2.3598662465096316 3.6087679076838954
C 4.803262986076703 6.186417241538875 3.286542661691144
C 3.004908475747608 3.7492449425823557 5.996521910547888
C 1.2371641262786977 2.0945170993167728 5.3817479360041816
C 6.293166881552697 4.871060792167037 4.725437305359207
C 1.2666494386183433 3.53989739155149 0.405092134602483
C 2.757074661044435 5.009564058275701 2.331575759379226
C 5.876036851272772 5.184188235685556 3.437131446630681
C 3.493773136569561 3.9071525185753404 1.921267308753109
C 0.8309293704059766 2.487884503774533 1.2138082949383286
C 2.5977081896852323 2.348289620822569 5.780228421554515
C 4.017665534491536 5.756050552271501 2.203346271200713
C 0.513817009356151 1.1007435190007777 3.0739798259249254
C 2.1673486982023316 3.8804581685110917 6.293653807368781
C 3.26526596607417 2.5884057170941666 2.2968116491057065
C 4.734068840907064 4.615626685356738 1.4018747205391933
C 1.2144616223232714 0.8828273546917861 4.36295755354825
C 5.6876214995636305 4.177149411001575 5.675795172391103
C 5.852915275402561 4.199130325361724 2.3675760990987764
C 2.436822734756881 2.308278926269148 3.3437059096673782
C 5.285693948751416 2.8219518552787464 5.832344038553497
C 3.542091736284703 1.4821914295010534 5.047511080121261
C 3.3705991297320335 4.359948094602913 6.3901096256391305
C 1.1298513737094034 1.1361592631905266 1.762071082939484
C 4.600063254643529 4.595934777082297 6.767814391425418
C 3.827520357297791 1.2801909881256992 1.8765707855086304
C 2.483236431828049 0.43976589541622013 1.569424613332769
C 5.937366850151264 2.815423221363854 2.618410170333908
C 5.264827116998064 1.6006714073711255 2.2687134586222464
C 2.706845126031741 0.860130789339396 3.9974698285141654
C 5.601108156644207 1.799266935677626 3.6100307515254344
C 3.159099497231965 0.22280439828058515 2.749376515905046
C 4.94257810616328 1.7919461653104396 4.899320993835106
