41
Energy = -327.52746421 eV
C 1.478087724993166 5.701485426291924 1.9830082981621895
C 0.8609653428572769 0.9706881402427779 2.3192975570373333
C 5.225131442352199 2.329980444622469 4.63614202411863
C 6.224688517671348 4.376237519402948 3.3093759780341676
C 3.7340679020899885 6.112897019988827 3.2770523935920126
C 2.9655206936764005 1.091581757424321 5.204314738264752
C 3.401582865443602 0.0040396467877087516 1.8418792246980151
C 5.90054123248855 2.0869500951807294 3.2758754677640636
C 4.840857629371282 5.147409251264268 3.1098647172408844
C 0.21177964233144578 3.216616015574669 5.476476649998979
C 4.0807205716859105 1.518225193164759 0.6021099063118937
C 6.187655576528387 3.140351539634345 2.3437473571322864
C 0.3148046985118598 4.786231126589299 2.1669378079878
C 4.241255985168155 2.1411176257002675 3.437266264601967
C 4.560980929534795 0.2355379387432055 3.728988709821015
C 1.7837302380824978 5.115637191115354 0.7152702054133193
C 2.5366243700972078 2.284425725244062 5.922219182344023
C 4.703028607965508 4.886608273385312 4.570326208487887
C 5.385233526606507 0.8268611254529713 2.7117401619228594
C 3.805865403726523 6.000731399889867 4.7637302289122845
C 4.727141627325413 0.5242219484918151 1.4617118473416315
C 2.9143688945365813 4.844068745449391 6.496873218450504
C 0.7607645874543405 4.050801969108593 0.9679637519937853
C 5.55634313774737 4.417202394676577 2.212232616673115
C 3.2946643506126683 6.273420168554546 3.245882940903128
C 2.6055713702846335 6.273381130196954 5.551695528467142
C 1.015995256306017 2.768258620631121 0.6576806181823068
C 4.378270274616639 1.1269726058691116 4.834155166256958
C 2.306973805673713 0.3029517780833074 4.184877500383027
C 1.129033761443833 0.6206060929577402 3.47771072676729
C 2.739054136132613 0.9499176926452744 0.9158901359986509
C 5.550306949499089 3.4214954866784386 1.1625789716911379
C 3.4753229676527595 3.3432899008288497 5.939129098421043
C 4.508639488058148 2.854605380624898 0.3304902885756555
C 2.3050110938009363 6.166158251618788 3.030919726723009
C 1.4538749749401505 1.5388926391528956 1.145242001176289
C 6.187655576528387 3.8740901616106957 4.457813902034024
C 3.637682756567876 3.8317856280979843 6.381760735990801
C 4.626830467290936 3.597257887892461 5.212858628188374
C 1.9605082456123488 6.134576713861165 4.4270775954180905
C 1.2073055211059278 2.670460771055115 5.999482790871716
