41
Energy = -323.16496086 eV
C 3.312179102803304 5.433871752330572 6.8444359615020165
C 4.419542110342378 6.328639081557473 7.042334000739941
C 5.622121601022201 5.513948109457269 7.390976900988061
C 4.781160756615349 6.994136205862593 5.681417985192376
C 4.031340079000429 7.629498495624872 4.549499935445713
C 2.6669260438177544 5.710831353699941 5.413017850133941
C 4.101793617367155 4.04027332612803 6.82944103388901
C 5.344222497334438 4.150219438253061 7.702115824458314
C 6.156746725582866 6.595121719108723 5.220307417327294
C 4.9608901707698045 4.626276184863038 5.57369432686948
C 6.361466300574461 5.34013353297667 6.079055689326055
C 2.0117183745783507 4.6639116984764755 4.475606942959154
C 5.351710947817577 2.158296014763284 6.320400947771153
C 4.782317183452892 7.383106595003333 3.3583228427653453
C 4.11899352097706 5.652687890086236 4.95911819537456
C 3.9540816232468514 2.5906454659502383 6.308311729489623
C 6.043101471493181 6.614599905994901 3.8319594697540973
C 6.184443632598163 3.2118073705683754 6.945254747998586
C 2.64756257478148 7.082655471607798 4.535134583553088
C 6.957845127498696 3.879872548743434 5.949775079491122
C 2.7533255718764296 3.1604980217007275 2.6207868120926476
C 4.217732722280092 2.970518930614799 2.283082077880547
C 5.339152999087539 2.0334430579215823 2.7436410858224454
C 4.73607610878318 4.1465746608687875 1.5443087725668347
C 3.6571242454803334 5.137048875799311 1.55359922175044
C 2.4439996118285405 4.467527698889484 2.1086639590520075
C 2.722195693048256 3.3469627421421952 4.217187723823254
C 5.025728963785114 1.3280445412292248 3.986274356454132
C 6.052292532915953 4.229124157026004 2.2157152580475303
C 4.100063641382285 3.8288899109517334 3.6694652284278813
C 6.44033029223644 2.939643075502269 2.8652889831170354
C 1.874033197317016 5.260012820747573 3.2121492406809047
C 3.662238758288001 1.2149714292331573 4.331956300823089
C 3.771960334346492 6.398670124533997 2.561680358720942
C 4.3080155534743785 5.3403095718178895 3.5368361885707187
C 3.169698077882648 2.227834135365955 5.17220318646893
C 5.825868569460096 5.182989298691322 3.3719818701850626
C 5.861122664206853 1.8061884542972495 5.035149224961313
C 2.421008802513993 6.597220047542272 3.2515123390239706
C 6.581133703119446 3.0297980001185816 4.536953426198876
C 5.442837748185132 3.9693015371211966 4.387486173474326
