41
Energy = -344.77337034 eV
C 2.976628662825043 4.487540690066679 1.1566233990247814
C 3.4880803867034094 5.773510167013756 1.5657034854309508
C 3.7590564378671334 3.294241242061179 1.4487573908058484
C 5.1449173565158794 3.4030725223010396 1.764040246017062
C 5.719463840037823 4.718998428413896 1.982324524378288
C 1.6452216186257347 4.296352476822319 1.653929333767826
C 1.4036276016128617 5.352779613231146 2.5965453246106898
C 4.846228550135526 5.888888985250046 1.9572823582755459
C 2.4210374691775534 6.389784295420628 2.402149026115962
C 2.9261287696189435 2.437481826693167 2.258650854033983
C 1.6169764218930582 3.0419893023281204 2.3274381290380735
C 6.6280172017256564 4.877040580152504 3.0896820680749024
C 5.6019131582358455 2.3663287935581434 2.604819669205151
C 6.594740045285217 2.5606537240333362 3.6133272323482406
C 1.4511718439585684 3.3108929819943325 3.711057876421422
C 2.7813044338048716 7.152771983615004 3.491485189685056
C 1.2751134457089628 4.764262620481933 3.8945501499521487
C 5.1910949158299715 6.6974456009660415 3.139212016431796
C 2.6313789435138917 4.499750707110532 5.907033314391093
C 3.348635499518781 1.9091921289845415 3.560091912916808
C 7.028461279806088 3.836439107718132 3.964385234240249
C 4.19712852705752 7.325005132917084 3.857329375591225
C 6.19359439895964 5.994590721830451 3.88757197063073
C 2.5633653943402344 3.031802471054834 5.844189748003865
C 4.74558098844489 1.6481920911574368 3.602162539294194
C 2.5344046017231614 6.63926168273467 4.843727092329426
C 1.94078948224632 5.372643866872423 5.013494064219487
C 5.902582578424166 1.7033227119814707 4.556691712385087
C 2.3416586370786763 2.5299089027885784 4.526048117984711
C 4.360896141843074 3.6490261445234045 7.154402305192328
C 6.763947283153032 4.267566572192103 5.354974624461472
C 3.942896636183483 6.842514837999919 5.202871668991195
C 6.04462812405065 5.558706192909307 5.247697772704463
C 4.732141032533867 5.865305341213704 5.862936609569042
C 4.0340135408436915 1.2216769417506854 6.954159228907748
C 6.218046924627889 1.8433222047471305 5.904716851344811
C 6.574847321143363 3.253505787559926 6.2796831899492735
C 3.463916323367802 2.5129707393274714 6.826253103263831
C 3.9248694938632753 4.831605485164059 6.4878548253281565
C 5.337616153975821 1.6682527536019418 7.036441486906977
C 5.63072074841854 3.1082438541366817 7.39454719245594
