41
Energy = -330.5376414 eV
C 4.1837130960358 4.497367600088295 2.1403582791797677
C 3.636594612749789 6.839528671130666 2.74920710910483
C 4.756440147016347 5.983370638497285 2.2503891189949243
C 4.647471464141709 3.1000240292004873 1.914986055055224
C 2.7204113499529052 4.663743408187593 2.5898727664544428
C 2.4834856950581496 6.01137065485044 2.9276801187692882
C 6.152560894483673 5.892793849777308 2.985884504905692
C 5.918995434361794 2.5802379313853576 2.570673699292849
C 6.931395437748734 3.381341899082952 3.0065772377478255
C 3.8605454367950993 2.166028396808601 2.731497331337074
C 4.953637757627477 4.957375309077474 3.355405805059003
C 5.062526051556326 1.6873059121769636 3.371381654097268
C 3.849141222464912 7.4982305375415415 4.00116329481289
C 4.594007018466593 4.6686882905460605 4.656521341131668
C 7.510356216140855 4.126803739208468 4.119071825542066
C 7.13285251805379 4.809035006078138 2.9482865762089636
C 6.281557525948921 6.7226493017542825 4.22988484940879
C 2.8392143010454953 2.54881185395051 3.7131030079600174
C 2.184194800335494 3.7932719315677796 3.6019317341592076
C 4.907198067934444 1.9007237440442235 4.823437454535478
C 5.125724422245452 7.456149852159926 4.631473215865632
C 3.368740168460939 2.1589919788667205 5.052601781299545
C 4.372542750422194 3.3184012888446075 5.00065246816073
C 1.966405395839006 6.0725056149234 4.310649141701863
C 6.896135461947878 6.077142771822551 5.423361856574591
C 5.899964048473455 1.8868726925057218 5.890064671910804
C 7.2050255469198365 4.636763800488648 5.444631974536615
C 1.9382320934622428 4.684264386182076 4.803796227460301
C 3.387859803108134 3.11149156366716 6.208978287407643
C 2.78455458501757 7.039185319515477 4.951883565232169
C 4.340073040355815 5.597175975743445 5.6609022841102306
C 4.903328239297274 6.992467428970671 6.016167100833959
C 2.515179600192958 4.329315474019915 6.070638377219662
C 6.642089083424102 4.078679660688364 6.700201312347584
C 6.105135303173109 6.351588111166622 6.597028754173779
C 5.852513186852837 2.8497828018317666 6.854640976583641
C 3.3926415492836703 5.3304937090082305 6.805308461220151
C 3.429953647449883 6.743745823264893 6.235709170502209
C 5.901675569671677 5.138947624566909 7.329167741179123
C 4.450431944856904 3.2689977870022457 7.318497523206052
C 4.504909941811519 4.637748059991973 7.595745774902218
