41
Energy = -325.78939158 eV
C 3.2297665511098685 3.8106984257939525 1.7805353693947124
C 4.739928542460338 3.404002660633802 1.7756815562706272
C 4.460375945819592 5.7931208385550255 1.983808226156083
C 5.534562170675571 4.732511689196995 1.8096536306828668
C 3.0525004190093896 5.3122335607581626 1.7848504908504743
C 2.2247269965185597 3.2422595542111234 2.744358337854705
C 6.622009719088183 5.0185433346836765 2.7370845677138114
C 5.13671201304703 2.329566310523345 2.734843094375451
C 4.290318472759884 4.389611269696023 2.817574888381614
C 4.919218517041277 6.725084663914652 3.0102164643465814
C 2.0396689821801743 5.655538224714022 2.7205185508528134
C 3.998023123612856 4.397682322436346 4.173887248873714
C 6.153010318851003 6.191203236874316 3.4646700183331283
C 4.115266726804282 1.844311550587939 3.5322000353163476
C 1.5459255525037099 4.375753085049202 3.3178291210245447
C 6.326734599642279 2.49230518687809 3.594303333901145
C 2.7258393642080607 2.2221092872001824 3.6231132194515694
C 6.818219900486967 3.8810842246846895 3.760279024855925
C 3.3425718456329108 5.512707097075677 4.4897640929116625
C 5.844052032715083 4.437513196015448 4.8988342261668025
C 2.471572837678041 6.553225842926527 3.9211365102916624
C 4.538350530305142 2.0673620732291447 4.932557358815029
C 3.985037999557231 6.952225339147029 4.154199714614071
C 6.099004660705783 1.9755558370927104 4.941886280396781
C 4.657207014815509 3.652852601874705 5.265011207545928
C 6.041098123568794 6.05270216179142 4.96774901015534
C 1.4248681109310095 4.435249156084724 4.750979942788748
C 2.570260616001657 2.2271142386454255 5.0412587745733575
C 4.757750593204281 6.740609780799231 5.437796486009402
C 2.029949642440022 5.738773202587562 5.192346930395088
C 7.362476122363058 3.932272545537541 5.200247826443289
C 2.7717796740463125 5.518922076262111 6.469313681199939
C 6.791763985282437 2.7579791500614528 5.942559748160061
C 4.301050738013472 3.8412126917838187 6.802821773787672
C 6.880009855434677 5.161115967218705 5.90900557267352
C 2.781736821564187 4.108170496080636 6.681577272334318
C 2.044331349703116 3.430689953183958 5.611833986262739
C 4.16418444880895 6.111357858724766 6.607861896645766
C 4.914320362548138 5.11951440684677 7.245526918446667
C 6.133690557994716 3.2571886074102463 7.1307352294486055
C 6.262583542810503 4.700525675172138 7.1420477632413215
