41
Energy = -316.62186191 eV
C 4.442382015410746 3.752765841393952 1.6249292138563838
C 4.906830804524486 5.0961054243032295 2.116889789704819
C 5.531574254386776 2.7370891225681073 1.8920860929364425
C 4.668561560032737 6.778418235543361 2.10906804890023
C 6.576881245384591 3.2788532036512423 2.7401863183649264
C 3.1718488970483407 6.705009923316331 2.4954922699061797
C 3.2040716727259624 3.412042786390014 2.258683685217719
C 5.980675655692328 4.656973575806562 3.135723802935535
C 4.846297068911866 1.6314614525600362 2.616953513008399
C 3.4647294690144204 2.132877379791384 2.914839367237598
C 2.615167577747035 4.498586376230035 3.2183695434048203
C 1.9179460610439822 5.962854847739019 2.8775620341750936
C 3.8115845661617103 5.435111859080005 3.0480503048154857
C 5.402823222959404 7.230247352881194 3.259121103041852
C 6.034207263810111 5.942635711247023 3.9845453796140404
C 4.406308646144489 2.489680786938606 3.898617676273646
C 2.339969555890096 7.052880805382987 3.7085295698849365
C 5.392710821330285 3.6028692591355838 4.189091820373193
C 6.53618467969855 2.4935630611541977 4.107340304687493
C 5.467075048541956 1.415547775897735 3.982351652769376
C 4.5202100249814325 7.349410974450903 4.589890481687037
C 3.041743365187066 7.3187446233449105 4.933819476210306
C 2.6890431283883487 4.124012674315211 4.844408465634363
C 5.3481055393445125 1.4656032320134358 5.532202573652513
C 6.618817240240606 2.2745398719680145 5.641719062049161
C 4.479302408922453 5.817402615487426 4.280586600945683
C 2.907739266081003 2.9214347570419474 6.0773379577559465
C 4.255184576588174 2.191056817506329 6.2012400593750066
C 3.950154522073899 4.818309564028911 5.205427065833799
C 5.1685713525252 4.133865712468369 5.57661511064666
C 5.346334216719768 7.0633731543702165 5.820858743724924
C 6.414459706113832 6.169202356559776 5.4676064003006335
C 3.053220061285643 6.600471392936876 6.195548303499478
C 2.675107198968092 5.143460279416798 6.064674030645943
C 4.431847587652211 6.599327743080773 6.823564508923385
C 6.1561279543624465 4.979885407544389 6.3850256226739
C 6.437706086730751 3.370585759292924 6.585655696021887
C 2.962675974938827 4.030449001310557 7.007708512890803
C 5.022550636677603 3.166376007536833 6.98421065207002
C 4.257563231348274 4.206177359525259 7.663117635700108
C 4.991310798961859 5.3963408793407615 7.385956513201169
