41
Energy = -333.94006506 eV
C 4.271039342048188 4.275005973508844 1.2934419318606973
C 5.120286407812492 3.1492549159242325 1.3149326101003824
C 6.353394033891073 3.4888369332398335 1.979026512458221
C 4.523949184856526 2.016549135592301 1.9968327638325665
C 3.231776998527994 2.3577315330929642 2.4015043334101507
C 5.047147928963876 5.44355420374666 1.7928021833867989
C 2.9829161753302933 3.822301088134504 2.0443236756207526
C 7.172313686497553 5.393308161715609 3.175366206846738
C 5.463490535870797 1.5373878941617485 2.960275183799788
C 2.1631014980307834 6.836763693771143 4.12024436681291
C 6.356620273613961 4.973770308754089 2.116529911981538
C 3.595117365194467 4.638371796627475 3.2855737040026756
C 2.0410357008333837 4.36126206531668 3.1696222953207527
C 6.617014551310399 2.5139203079953703 3.003838249461867
C 2.794297285522187 2.1183462292828024 3.747378670967428
C 1.4934992786172225 5.550969947447049 3.939956218411543
C 4.40032316777345 4.005957141742126 4.125694453930229
C 4.2454062012019005 6.008934059529118 2.9442107921811074
C 7.578008143163801 5.123131937742882 4.323974714163024
C 5.064490804993677 1.2595163014833781 4.280633947009363
C 1.9175504170282354 3.1611054362523423 4.12272486239587
C 3.431202140963237 7.0965689569850285 3.516684141695235
C 4.578480367944776 6.776776510734617 4.23637575009114
C 6.926823411697064 2.6909067596825835 4.4141169918295144
C 6.887259788773378 4.040657343939885 5.032046467409225
C 5.356938036696576 4.308389777042011 4.911715527500663
C 3.746641013576071 1.6437007729894257 4.7330484839403715
C 6.025097429567256 1.869540133509826 5.178864190229211
C 1.8221651963587142 3.6876636401544824 5.4142786851464315
C 2.176879118446376 7.113662104714673 5.527416108242368
C 3.8821581335530753 2.3777006842813204 5.995346555879191
C 4.620256051245311 6.496447821680184 5.666941870177366
C 1.264536451146222 5.025697861063436 5.293489888199609
C 5.345169092669179 2.562815584579839 6.221251067086747
C 5.928874346979373 3.954432522588185 6.286570993892452
C 1.5362398786753735 5.992970186357351 6.263671577221643
C 4.891934922752489 5.092890253737864 6.301127629952677
C 3.4010826963958443 6.922940618489939 6.260810064442017
C 2.9797100127851177 3.4257685487671163 6.31364928794666
C 3.5609307106439188 4.658029727391304 6.873965894118225
C 2.7728891457983496 5.794508054000049 6.9877881647953135
