42
Energy = -341.51502342 eV
C 2.739230038819992 3.029446862842689 1.2709405220676087
C 5.015077257563605 3.554573912832936 2.0696713259218895
C 5.303547666917782 5.917683975732396 2.349530895918565
C 2.4795257887388167 4.441495495723018 1.026287118503204
C 4.554476352156284 7.127688063497891 2.438303996193394
C 3.967725373060041 2.6060455111698757 1.9085657987764781
C 3.298237534562658 6.599895754564591 1.8951280493067821
C 4.847627480374388 4.8622148658740985 1.517670503452841
C 1.6903868339984407 2.979851371347825 2.2909540411875904
C 1.4264431095432242 4.399934591319964 2.113973330077599
C 3.5098986984822345 5.36203611532637 1.0974759875012903
C 4.380426191357344 7.0352839853362665 4.07417544361582
C 2.3261589861646543 6.484291286653011 2.9308564072117513
C 3.633845151048806 2.0106332066703825 3.191661738717526
C 2.4388749003576353 3.5281983534718533 4.557931698211627
C 5.2127930260375726 5.726602759037857 3.7978151440803494
C 2.3150702104194347 2.5743243476098066 3.4974715123591835
C 4.655648654390529 2.298247714086857 4.25164834303938
C 1.527920654448699 5.297257017190521 3.167576722125949
C 4.805641703485442 4.384052712565833 4.408669508252395
C 5.534145893688278 3.4127420236742756 3.5418527206159793
C 1.9191498067536696 4.842816971325178 4.564743487831782
C 6.3580464526906155 5.474225984704845 4.726011298715264
C 2.953792426530363 6.782034797360814 4.157398991707763
C 6.622084036906183 4.016815759379316 4.488461359798192
C 5.372222690683671 1.5716003548559283 5.355472475877587
C 3.8019357060231913 3.373949137939204 5.140614676304101
C 4.82104122670084 6.944044055345512 5.530900093879745
C 2.671518641780897 5.928574497370309 5.24804510164186
C 6.137968271830421 6.336503779625196 5.855611156897496
C 3.8319344889974616 6.098494732411052 6.161582689828167
C 6.653888932154509 2.0605700469615815 5.968274513454411
C 7.723421052140929 4.152986726529589 6.530638187347752
C 7.320314757665018 3.2403674803120666 5.527947129497034
C 4.752665937607277 1.8253136036699262 6.605832075926935
C 3.9564029295545273 2.997755399222277 6.595077366695684
C 5.990311538551715 5.638727114691048 7.112272935812473
C 6.034006455010408 2.184521098572428 7.290951753529569
C 4.5657343345657555 5.3230011237302834 7.184969474829822
C 6.791868281072047 4.5095519389445355 7.498506301194647
C 5.8784568700183435 3.4440449591505686 7.873891764560192
C 4.501685666260498 3.9427525204835137 7.50578836664597
