42
Energy = -329.76564972 eV
C 5.64648420546621 5.090631707968604 1.4656025479127615
C 5.016855983723079 3.7078530760553265 1.2906579527221471
C 3.828319809773235 6.8675929581108575 1.9736819131911711
C 5.15869016424113 6.414557879814119 1.8306078157803918
C 2.6806356499418413 5.956156895552962 2.1228502718839186
C 3.645893429879434 3.5557020844941616 1.6283270986304332
C 2.6040407393570035 3.248414699489436 2.587498271079188
C 6.824799382961014 4.875880295653326 2.205071229345313
C 5.842509248823964 2.6855265105375667 1.8513584303936534
C 3.7170406359111494 7.682117132383999 3.147118359950758
C 6.80691728979699 3.4736640513088974 2.587434624557838
C 5.901162628993166 6.896947978633543 3.0285312517108385
C 3.1581173470403185 4.602839891528487 2.515686827758687
C 1.6497534980034683 6.399202084890869 2.9540280029933044
C 3.7324600715777683 0.9968378428389506 4.555486986779853
C 5.025601457808595 3.3590110818774774 3.994927768853345
C 2.1619466983550586 2.7802239686554753 3.8345868716941145
C 4.921902220208426 7.5331878746303405 3.9042114118116324
C 6.813856143332332 5.84952801429157 3.3509119889721557
C 2.4928463622846735 7.14714709099209 3.842432865140805
C 6.458696411372883 3.731901358978314 3.937946595969407
C 6.784766160220136 5.03920428879412 4.524392786204843
C 4.235381850779599 0.6709955226876443 5.911902605989756
C 4.8512552069999435 1.9836469409263884 4.439260341237163
C 4.473278446956909 6.9692772984508435 5.161240953623047
C 2.409138478699611 1.5294385690909402 4.54995645749847
C 5.363089744784332 1.6338969796724125 5.756525720364349
C 2.221615635091794 3.853190898193718 4.99771562240157
C 4.062106990098548 4.530007503672678 3.8004254485035136
C 6.153606734736859 5.184362646475191 5.799263856980709
C 3.410998739270726 1.2619118826021838 6.873280082045555
C 3.110456524222222 3.030232723940884 5.792847030225728
C 2.2778054018354457 1.832495424378738 6.076411072373191
C 3.22355439883096 5.028192711864398 5.017687342899701
C 5.46443434504287 4.067653128310958 6.385651976537212
C 3.0455807360460994 6.537131726768926 4.962565815456164
C 5.394661491332845 2.665497356884243 6.7628073792818855
C 4.12741247535399 2.4557134491028108 7.453440707652162
C 1.8121231122534733 3.288532660007265 6.492841382985143
C 5.0585602366643645 6.103136100596189 6.054812405579783
C 4.152181198401052 4.784214383787778 6.429090089220939
C 3.2588440256778735 3.675724637257061 7.128303147960322
