42
Energy = -347.64016114 eV
C 2.4991522618213655 3.672134070215158 0.693561002864909
C 3.7821872749322987 1.5406523079777463 1.237303432514986
C 2.82833245714496 4.975420208826864 1.2003013233134474
C 3.74208853997601 2.868183250476118 0.6873335475398176
C 1.2833000817994862 3.0784086262144936 1.122178397889997
C 4.851438675521895 3.7770659167711047 0.8738139596255547
C 2.6434940760332966 1.0523151306770258 2.0476351536840656
C 0.29532307183831236 3.8691588021512873 1.731468195287816
C 4.262889920090215 5.05234042705 1.2083527745533456
C 2.379716220765877 2.6916992244626976 3.18944394395349
C 2.914078506126484 0.1803075534410591 3.1342755439974286
C 6.053440549256366 2.188230903886602 2.129807106370625
C 0.7268823515445394 5.080939305294226 2.41362084941513
C 5.032722551901579 1.252331580604997 1.8339235458413354
C 5.955763446407812 3.548241396416721 1.790338232323721
C 6.435623287290122 3.270002374752319 2.989010571927177
C 4.947290025582602 5.5550566119987295 2.3053660943209096
C 4.2280217433788785 6.001090155375836 3.4928816028867957
C 0.5565806080648725 2.0956745567741484 3.2332810696608947
C 2.049873978883196 5.5430151399602865 2.3009134067528247
C 5.531074115857624 1.3579975649760194 3.1470986880899274
C 0.24898417615908094 4.467323524942722 3.674152804714972
C 1.47646798338668 1.9613145176955706 2.070072991172511
C 6.184643298990424 4.731208011168194 4.094860280457333
C 5.23766928500109 1.4250116710359988 4.526322580697229
C 5.049098014475932 5.6314045420506424 4.57054127961291
C 6.056984487578805 4.6893366730106125 2.67465435439612
C 5.953535271589418 2.347128721040337 5.315073889919911
C 2.7962691053830504 5.857995629140742 3.5609175223124185
C 2.673716495293726 0.9911156079512048 4.305015618653017
C 1.5239094890615068 2.0443154712399685 4.361662001151218
C 1.106226835474576 4.44021399270711 4.749523459230117
C 2.712043102600754 3.3759666523992142 6.078523302633621
C 6.435623287290122 3.7971937998099956 5.124764121529061
C 3.822395746999221 1.3341593158248324 5.101531858434326
C 5.075183969604218 2.7701808404769643 6.389826178039577
C 4.517515159933022 5.110774644816216 5.782947871542837
C 2.2679202010530903 5.3134349270663 4.797328934766365
C 1.5459676899065014 3.1662541730532405 5.338049610296491
C 5.453352576159019 4.102025038597481 6.164914644267451
C 3.7378721071990246 2.3601032290587174 6.100528033427825
C 3.1429656851813466 4.795786336039354 5.819392647357915
