42
Energy = -338.3541447 eV
C 3.4240397004186014 5.306898016530529 1.5748023464211753
C 5.1150304311444295 3.7398206417583904 2.525251615578818
C 3.9582182354191167 3.8922589805316368 1.4395997745276345
C 4.251050499200746 6.293304421573673 2.2512990816161667
C 6.117441910377213 4.847025995490274 2.525481899906123
C 5.67179907972888 6.114254021935144 2.142581427577266
C 3.152169784030074 2.709243367806865 1.4180163181698544
C 1.6681976998425876 2.3547355815844733 1.6116858293974679
C 2.130993079713134 5.102827063065597 2.260845574679798
C 3.4965182778199013 1.5557738111557455 2.2879585885007434
C 5.541961690915902 2.460097064319411 3.248070827342816
C 6.392312408387707 6.695867672543936 3.3006896945368545
C 0.9826309518321057 4.473269822091485 2.201079790894664
C 2.754255570307598 4.683723097694984 3.5268541509475226
C 4.021899300032403 4.036308746845979 3.654700727807032
C 4.0795844897709985 6.963601576557049 3.5599744072264756
C 2.116589436375242 1.4608119879345256 2.6418426225514455
C 0.6370459412482864 3.1487849771572747 2.2604233607910067
C 6.960663513684591 5.413455893642686 3.6733555784004586
C 4.42292636432553 1.5229834682326004 3.309643864917601
C 3.890808536145381 1.4303971917260903 4.6766822000181465
C 5.421747481694755 7.240445468361921 4.143935604016058
C 2.5428396696610407 1.6872390111703 5.079677598880784
C 3.2784265077263957 6.518422402492024 4.73878042070863
C 2.5539563162099337 5.288139159533646 4.7923409982692275
C 4.150449562667918 3.640470385674423 4.95121092370288
C 0.5301428426699324 2.6460997265238686 3.617888272213069
C 1.577944650826239 1.7544262078820714 3.9550154834350164
C 6.079299182059059 2.647444726048628 4.582566657783668
C 6.987404510501332 4.998080529857374 5.015430693716482
C 4.872290637884831 2.309922137105257 5.370561553884273
C 4.147569790465622 6.525650190939794 5.9099259417950565
C 5.467596429728142 6.919063476525082 5.540156623377729
C 6.6927758050137 3.620662023792892 5.427829987390323
C 3.244554392722816 4.34963036551861 5.832591379883898
C 2.6384892104215023 2.5661506120127555 6.322303754248714
C 6.323887988394559 5.860633989035777 5.9937663503380945
C 4.978574463520878 2.5835099066954568 6.832954117206632
C 4.164019979789752 5.271099117588948 6.637637627054462
C 6.00099648094734 3.609865327346473 6.753950872306227
C 3.65677369132681 2.4470159640155655 7.182366174805537
C 5.553540468752274 4.960002835405096 6.877686246877522
