42
Energy = -334.33708524 eV
C 4.50191059732183 6.216516694168879 1.5475464724636112
C 5.465215247545571 3.936425656297677 1.7910792180774926
C 4.224050183210712 4.7314483517147705 1.4981844845442573
C 2.956050078938642 3.8414483733036846 1.7097724565501522
C 3.4976658148056785 2.5284848316679547 1.9559556259485815
C 3.4035525285431873 7.02202990017366 2.2211986072058845
C 2.03863169191223 4.582875690177688 2.741114879657925
C 5.010162516970029 2.6492134803855167 2.046778321055308
C 6.222343589806624 4.528890803800131 3.073142604579381
C 5.810225583023735 6.767923425573707 1.9894548590944559
C 4.062556780044652 5.425581845318117 2.8416532117425928
C 4.843857172710708 4.712525488724417 3.872740245417011
C 2.6274814098813772 5.9789838584970045 3.028646403554293
C 6.555299862691418 5.984588407529589 3.014060444050755
C 5.4750652517524285 7.804014707054972 2.928093389687364
C 3.150606575846226 2.9941278649232723 4.001979399449906
C 4.074492943882174 7.9059322058353905 3.1469486460522322
C 5.492224213811711 2.327997787676354 3.430926085401022
C 3.0112840426439367 1.7834739011872254 3.19062393644245
C 2.21117145029594 4.036521716245418 4.2274081564716965
C 6.568054056553527 3.3040308945642405 3.955151241556602
C 4.433762057907761 3.3253559341173258 3.962544511488342
C 2.7747295801737764 6.410014125884601 4.477179696606298
C 6.075645107693156 6.985454118077868 4.0283899990301855
C 3.6805967714249945 0.9866397357396357 4.303145217175493
C 5.127977091142187 1.267420649529498 4.431211594731556
C 3.035280629108459 5.1534982166329275 5.243772063835588
C 4.65593183510763 3.402746531132245 7.049918423560616
C 3.828346565016526 7.33477896105264 4.487134802876428
C 4.748838006600591 5.235337759271983 5.295817945739562
C 1.6139898781627737 3.4436208393886707 5.529525021387089
C 5.0816472874997105 6.72722708421778 4.993527158947826
C 4.889488878332886 1.9501833104801396 6.8051474668535334
C 6.250478600280071 3.1858084466828323 5.348717805129512
C 2.922664091086262 1.0936349194843147 5.538287283565901
C 2.451060383852963 4.325939282977725 6.33811482794015
C 5.4504658391304694 4.156409386610146 6.144060716158289
C 5.685812908657684 1.8363485570211937 5.637772962102968
C 3.211118342515104 3.5791234197403723 7.290956770239426
C 1.878243751055855 2.1132605491410867 6.005812260290022
C 2.5958275399808524 2.2649977920824695 7.287054958073915
C 3.613579698236148 1.366550931072719 6.796836260423189
