42
Energy = -335.2051773 eV
C 3.953753204773095 4.573852617651483 1.1833250232042833
C 4.545459441097108 5.847721479474847 1.0695576739709798
C 5.078686892299323 3.6670492588671557 1.5050747045102213
C 5.979858657586224 5.7299694746812015 1.5206997441635974
C 3.813389043543829 6.7516739245781805 1.9562912917239714
C 2.6737068800528894 4.657335675138281 1.9831844689974882
C 6.325983716892515 4.327384217134912 1.675102471710691
C 2.6599703756173088 5.9730741649013295 2.487223276065448
C 4.773143451970089 7.18968727051673 2.8829643804557317
C 5.05814848603921 4.494734624566483 3.571248957616284
C 6.1698928696949125 6.564075624387678 2.629218821391724
C 4.923389165373049 3.1892813563004943 2.9136580044951224
C 6.402748118878143 3.96702527022015 3.1820741937154837
C 2.8402965459551917 5.402216799120232 3.8983596001812373
C 4.325775942719979 5.48693549255883 3.9962867621315463
C 3.0036389249267668 1.5229324823363537 3.5305715417234325
C 1.8504211283150804 1.7905112170027033 4.442559229491251
C 6.767424244430149 6.194276881606498 3.9475805318764383
C 3.6018955101236276 2.7212736076922655 3.295148836190823
C 3.513712776789992 0.42521188000509536 4.3994880229937126
C 2.419349173388083 3.6095721118645328 5.981605537047047
C 4.637349866912464 7.023720661123761 4.350815198511173
C 2.5646081868190795 3.904954859640645 3.464935762486195
C 6.9752341039535715 4.741436086308996 4.347820495605205
C 4.857504200427223 0.31819277294721104 4.857967293037984
C 2.2975632174349743 0.7667481965766508 5.310210695469895
C 6.0329988443188975 6.944944468888826 4.931360469522353
C 4.741576708490094 2.38401359449834 6.437628714813383
C 1.8110333793123716 3.182899217075308 4.707344194459962
C 5.622675814429126 3.4415435573688318 6.400978591913484
C 4.4900284513479845 0.9723086975270994 6.036369566898841
C 3.6327468213857013 7.010415072342399 5.494527109665621
C 2.6328172736914306 5.970789530557581 5.298060711562157
C 3.228879708889278 2.550200835538086 6.6411379449210335
C 6.718893028309863 4.362780574261357 5.729632465655297
C 2.7964306472936347 4.9632011055424785 6.273810432383578
C 2.9978737587824336 1.1885318709645345 6.4378671430098855
C 5.870742488413329 6.654583369603664 6.273943214070857
C 4.413054212413645 6.674490256747109 6.620420009179411
C 6.358652223756381 5.392370243977962 6.67222949358094
C 5.18932836702092 4.6349869821152385 7.108658503745724
C 3.9887949250441554 5.370523394700112 7.092489694764177
