42
Energy = -341.91461224 eV
C 3.6230304685794286 1.9622217781193692 1.3508213902304986
C 4.848577142969993 1.3234578267144008 1.7604854041011502
C 4.128343974778476 6.901910300733127 2.0505903419991096
C 5.870124628763871 1.9981990466599109 2.455077078992351
C 3.3511607441084847 3.372326934085411 1.8606104372670307
C 2.604259976753639 1.0201842872904756 1.632665064158984
C 1.8860337553590358 3.771986858621204 2.260592182365885
C 2.7617168934939387 7.359127724311449 2.580269967820295
C 4.582428608900604 4.221874964455799 2.2551584560862477
C 4.737418072105501 5.6604840223352895 2.5781930675048077
C 5.732913119537482 3.402027488849604 2.7599207648658615
C 5.054412486539886 0.37146618253095887 3.89987830362376
C 4.485647686105647 0.1108491625854201 2.610629866601066
C 2.1462271476524015 6.413351375863001 3.4856780660065683
C 3.1340327598937927 8.496698692757377 2.4755990782700317
C 4.662121452817569 7.969735670258654 2.853398336060442
C 1.8114919965549727 4.944002499146129 3.3374761848900127
C 1.5836285959101244 1.315533335965493 2.5490056775712997
C 1.2372401540136497 2.625237943163899 2.901523864411235
C 6.097069013896037 1.331227763829823 3.724387886251062
C 3.3373889233287204 8.496698692757375 3.3085898806514717
C 2.991749849679678 4.444984047387976 4.062651180912846
C 6.15447616412346 3.6519374446938584 4.140072090774629
C 2.236922474588253 0.3512120040113659 3.511411457523818
C 3.7200551628378378 3.4344378445509416 3.352831073194801
C 4.186290170520491 0.8726056486682029 4.961612849165483
C 6.036845155015062 2.332490485151283 4.733014918338224
C 5.322223629813194 5.941155099691342 3.8264074501063328
C 1.1039305033333788 2.8138434059450277 4.331544687361499
C 1.254382959676786 4.202797286440373 4.572707249774839
C 5.082128543625839 7.386136705182605 4.086210501603392
C 3.6963717898859447 7.788437981247743 4.542327666533696
C 2.8853961407514412 6.622491989239026 4.70738080401165
C 4.88359775696012 2.0598750377660044 5.54917999868615
C 5.592943005867303 4.809605313762705 4.743527512158211
C 2.7483287865271038 0.9039220544557851 4.743152567826067
C 2.2083502355229294 4.332209845774908 5.656509610415111
C 2.0237229108774324 2.077657505774283 5.226092884542816
C 4.5851511808084515 4.551669472515938 5.7151094446277595
C 2.7060655253463852 3.0500927378793032 6.044188365463979
C 3.295734501413097 5.278133220240358 5.301507669561995
C 4.159590229858482 3.1747471220646806 6.051532996782922
