42
Energy = -328.89711741 eV
C 4.435955111611755 5.245556166438779 1.3783211229671222
C 3.1562012089176843 5.884735284615291 1.7699169138395083
C 4.849159976273729 3.766807275267791 1.5229229628479164
C 5.410546220266327 6.240430648767128 1.9263838590448752
C 6.1845893701814 3.8587771640008044 2.6740588816664896
C 3.319268286385458 7.108182249900012 2.5765839344079193
C 4.738393546513396 7.422826744853418 2.655474875181182
C 2.5094312453277077 3.8614267468120635 3.0808143188925845
C 3.8443125944347556 3.2078391301665485 2.7048640872554213
C 6.450487686475353 5.6598017018859945 2.8547928455500147
C 2.3847372243603213 5.188587424940515 2.734818512391104
C 4.880363585876365 4.121075939885606 3.3495934979846047
C 6.667318116175991 6.718773059784487 3.942132929068078
C 4.0086269773264425 2.052535347178287 3.731065155353737
C 4.967915588640517 5.508774371852131 3.1864594688009897
C 6.5322683593767765 2.8560734707880604 3.761141542497846
C 5.515575813992432 7.645615278325497 3.8637286203785535
C 2.7436364331191143 6.194633316455523 3.842076197803732
C 2.1223701444520207 3.481629600315454 4.427262806835606
C 2.9794638952318437 2.357177782391971 4.8368771206442025
C 5.392532099031416 1.960544829960757 4.331143946566193
C 4.3595290144328 3.0390066433748095 5.087732728250453
C 4.22240146047265 5.813677894243009 4.362068758270663
C 2.125892785493921 5.890681777766552 5.186875040720915
C 5.812804999604857 1.4264888531342592 5.680681318434658
C 1.8326859519457939 4.48733486512814 5.393995660980733
C 6.271397862015144 4.667417389877047 5.352609456170233
C 6.958768001979551 3.4073458561984205 5.050689072891241
C 6.349454147644041 6.210946390130599 5.303348927289191
C 4.798581144173657 4.374877577877746 4.824624231165985
C 4.937373250630521 6.823210291229429 5.223706019302321
C 3.6380605956885335 2.354184644769882 6.234827324968353
C 6.6513244109336656 2.54388091967715 6.172650897713514
C 4.85900021494081 1.618876735231472 6.734487884811598
C 2.892854404187244 5.9429529679073285 6.4617341015589815
C 6.476334965837952 5.475584622291475 6.583243090250788
C 2.5279738369202196 4.529257662452688 6.719481403396569
C 3.443064751854238 3.5897226166128378 7.110719951834317
C 5.177811885022524 5.401924451132616 7.180055294090326
C 4.815712744364454 3.983407111380931 7.488907579455525
C 4.22564863526673 6.36732260524973 6.59600020964248
C 5.654865511432207 2.834788648560111 7.22582150763576
