42
Energy = -340.49996427 eV
C 3.1017841717607832 4.187829268062324 1.12579500344891
C 4.30351324796112 0.13088077827918632 1.8841817248489918
C 4.02752746687095 5.247798236950597 1.4731056646138052
C 5.34638340231326 4.845282185832989 1.6083601729885817
C 3.417834298758519 2.7752464518765283 1.1354551555646493
C 1.9006310980520629 4.420941123107446 1.808231625075424
C 5.773068896178278 3.4431106723690763 1.614886710820395
C 2.013417607610193 5.625028868144647 2.5494152581836147
C 4.989978246371513 1.032344087447959 1.3853442720331572
C 3.428648848244288 6.118844733003287 2.4926910307692918
C 4.869170134968495 2.418751290417844 1.1677228093851675
C 3.5201904514279247 0.19578044766155017 3.09214786106898
C 1.4515473103827534 3.132494683550367 2.352759471406863
C 6.117537613693981 5.186319739919686 2.7442802105301003
C 2.437776056421401 1.0908668649460405 3.0021598701040273
C 2.29946786617465 2.0648187934329694 1.8457691552240012
C 1.954117988022777 4.231302866997663 4.440473074857425
C 6.558724781967539 3.8144314003691435 2.9323665601873277
C 1.3575662957935062 5.494797689488339 3.817129973363595
C 5.526928158076436 5.741650213675147 3.8831085652300796
C 4.174414031575742 2.8423010454434294 3.569983980460293
C 4.344679388786436 0.41918679014840876 4.249436842118438
C 5.00702247436783 1.726558152961442 3.9871650345832466
C 5.7867658065313385 4.759851932890036 4.963051076769321
C 1.3713082707304518 3.0016201778109504 3.769681107805808
C 6.429990213961353 3.5708573282329654 4.356540280947379
C 1.95762498441533 1.7508993902761925 4.230403279955861
C 2.4331672145983347 4.339067189813649 5.89755058764694
C 4.2213551397243645 6.3496410340127145 3.7400511270860277
C 1.169575046946857 6.615680587321383 4.572198456591742
C 3.400474603830589 3.785347650416454 3.833683139575371
C 6.003768523675671 2.293442119689459 4.873647795964247
C 3.5505226731267645 6.495108955808417 5.040865840330909
C 2.694184312849351 1.778552381062208 5.481694398282535
C 3.9481445506267296 1.0731556966970819 5.438205942435705
C 3.5761762005132267 5.2981120599138345 5.888350870279461
C 4.783453244365133 4.541526297204691 5.967019264202966
C 1.1288320330912678 7.8125273279500576 5.274905074751939
C 5.0691000817325405 2.06501820803788 5.928882279311041
C 2.362457320490853 7.200875136197624 5.137824849360865
C 4.3973418871531225 3.2013202051694676 6.404561901686135
C 2.9708351508109954 3.0578370323636834 6.2159197951035585
