42
Energy = -346.08300096 eV
C 2.303062319284112 0.4328655482441979 4.973014720883444
C 0.18259393311898126 5.769714238406456 4.334758902461583
C 0.12429762196760533 1.6570951466650259 4.828605633522992
C 1.560549251376093 1.675955853940038 4.956014092111041
C 1.6401766508603242 5.824536725886497 4.499465829952518
C 4.7943752445108405 6.416874627804874 5.7789984410722095
C 4.706566156815062 3.4773499228037865 4.605219526584769
C 5.882645014940744 0.3534859542737332 4.793415237319141
C 3.0676063339511153 0.36355297334393266 6.209250424800362
C 0.13891256723416687 6.069811339795795 1.1744510675310398
C 5.973815388119345 2.8914404961834768 5.249791680755915
C 1.5884047255144191 4.603807198312647 5.237903400635629
C 4.338746904939554 2.7209956497745433 5.5793498389899066
C 1.4061542494829828 3.347008145178552 0.3144354893916512
C 5.570755910189401 3.9858780433793237 5.610935064765293
C 0.15012973710295419 4.401714538474081 4.864728640999097
C 2.1789138330999656 2.5443391072231245 5.901586215557319
C 4.568436497030357 0.781310645570188 0.495018950624968
C 3.1105579753147015 1.721868932160772 0.1951296269981115
C 4.622269513611724 5.0405386515539945 6.01014315600511
C 2.1584090606187463 4.533302536972024 0.05621080231649621
C 5.5942810255949444 3.4773499228037856 0.5109304634184045
C 0.01876879215537241 3.440237826341704 0.06380227990140723
C 5.1759742783476534 0.24424678089808877 1.7441312390157273
C 0.2869286699586648 3.597689592565575 1.299764409563586
C 5.599201432074929 2.9575589441067933 1.0845579673622785
C 1.6234730737157061 3.520452134124133 0.8813403522517982
C 1.9165199604752754 3.0753266827185377 1.642830352729279
C 4.605596085117337 4.461314523425983 0.8918395051889096
C 2.801517914486098 5.754853349353054 0.6165882009197322
C 2.4365659512922804 6.130453709106996 1.990003788481149
C 1.5444410668028807 1.459553951466117 3.250530721108531
C 4.538614988216196 2.155041479741489 0.3725620669037387
C 0.049218527616000395 4.739711116446057 2.1999241217018355
C 5.174113849706105 5.274501203991975 1.9165110873187154
C 6.112828491594183 2.4900329995107544 2.316028442120185
C 1.0122432294423789 5.821773697536223 2.505969449935377
C 2.9809512219048986 2.0350913604254757 1.5452501539863166
C 2.666876011175807 0.9752315902932078 2.458028560003303
C 0.5358138874808704 0.5197049581941008 3.2846314180481695
C 5.817478239346643 1.1326705532340149 2.7054171028507086
C 1.0324503954489574 2.6916812703804194 2.642167554948623
