42
Energy = -335.36206135 eV
C 2.5090847709821253 3.971781598620131 1.8768104138417554
C 4.970493398203515 3.8560853406657976 2.1121490158381864
C 3.691466374029809 3.175567391499176 1.7371007853974063
C 3.5528498046434946 1.979479952839303 2.5494178803032552
C 3.8592293873376913 6.054897448866817 2.212627462553241
C 5.1092408560411355 5.3420775973844785 2.082196080188236
C 2.6033687538517163 5.369230509948246 2.237082135465338
C 1.6364116545153757 3.284533091919736 2.8607110127345794
C 2.302472183130885 2.076365241676114 3.288499033402885
C 5.627635100549381 2.8987477894251112 3.184906803947273
C 4.6283100136577175 3.9787615092240416 3.5766621864979657
C 1.7878006756865996 5.553548679351346 3.4043290598162015
C 5.820302247633821 6.214281559816474 3.073738681051894
C 4.662411606659787 1.7743699852932464 3.4416839723004276
C 4.440572635709817 6.7050472943747055 3.4155357148936205
C 2.1935263021909717 2.9850439634769863 5.555624257699032
C 1.1658276471473044 4.264568400588007 3.7742291807518966
C 6.583307608392287 3.2596303200917887 4.215099168078065
C 8.153550836317923 5.248665862407561 3.9859344284859715
C 7.011782998713212 6.222245023505928 3.7406238483966994
C 3.910899877465605 4.088381284505034 4.59862249504588
C 7.78293177687051 3.943036238566647 4.437791741708131
C 2.360067528047309 6.137697954178069 4.6059170946886665
C 3.771628337079472 6.576813437816118 4.63512757844112
C 3.47336273056465 3.6758404775896056 5.966628381631655
C 2.6584303849368602 1.962404759035231 4.678883128424782
C 6.671094710082921 6.0920194429193835 6.372941345847861
C 4.153671278245404 1.7662559562758668 4.805772953064209
C 5.609302436888392 5.086712329630135 5.900516557259898
C 1.3729007886365465 4.099576636257461 5.183669433777784
C 8.463746298651428 5.943627743264864 5.274896061774946
C 7.30876677095807 6.742145163730592 5.135936344643734
C 6.021607793123165 3.5610896661476894 5.6493255588566935
C 1.97729247102179 5.342916658833148 5.716490577073885
C 4.392597022003639 5.939669412265187 5.891180979720048
C 7.616546121281053 3.9513836171650345 5.9317477627720585
C 5.395412743321083 6.101075761827732 7.0866229567722625
C 4.679080480252947 2.7690899350323646 5.759964069165007
C 7.938091845957684 5.207543466746509 6.436607988590659
C 3.196571360682688 5.077469749773839 6.586411041266178
C 4.702156866575176 5.686246801169525 8.305984735638875
C 3.5329587741230584 5.332838198457358 8.01276334435451
