43
Energy = -343.5598498 eV
C 5.4238690906570906 4.818261698569228 1.279599531302846
C 4.015052075646762 4.6856226963659315 1.0462725205931696
C 3.7727865653115975 5.975075472903378 1.6478990403351192
C 3.535897615977418 3.461550143535995 1.6137544810662183
C 5.296551435009597 6.204796301861774 1.7976404010780191
C 5.832425870110153 3.6191111378355028 2.0803994000362938
C 4.620474911228614 2.5453333670255502 1.9211336485784305
C 2.865559269827767 6.040770631077419 2.700397114284322
C 5.298221042626052 4.081440628262032 3.408169015869488
C 2.6553865951213043 3.5385039238578635 2.725105002368071
C 5.888706529685931 6.603226999718438 2.99511880741163
C 6.768477891335415 4.130840083337195 3.3821784648652193
C 2.127894324295346 4.79959304542504 3.1269769389940745
C 4.198815959576945 1.6335852630898045 2.9369327274778563
C 6.928927309167511 5.689768027801436 3.550567369052287
C 3.1917447687094365 2.5585939760792784 3.7821589043331483
C 3.1542802008619937 6.840588689056623 3.915197116297163
C 4.709595797298717 5.289531811285178 4.0148632181893475
C 4.770232543096656 6.783452343056366 4.155736580659808
C 4.514407627175588 3.260782765171977 4.396596327127946
C 5.029638541978097 0.8997019762670637 3.772270152074338
C 7.074005187092727 4.008504840614482 4.92290373850835
C 1.8026283801974463 4.968554362112207 4.497294301609968
C 4.24092938686454 4.5565587886540735 4.986351158631983
C 5.206601570961807 6.888211602131748 5.642863550814141
C 2.6535973624547333 2.6780282599967706 5.252933365195743
C 7.145271464606777 5.48465787044469 4.932608831128657
C 5.377610446481692 1.0007854191223666 4.969058260690555
C 6.288672328467639 3.3320220034747723 5.950519740032934
C 2.348557473662199 6.282738971992045 4.95015517719603
C 1.9541770497802915 3.9314894902501574 5.500212919498922
C 4.228460664273028 6.417723222210302 6.705128139805498
C 6.408370235833569 6.205785697284598 5.975199578331928
C 3.7503965744088954 5.1033669822749985 6.113874057210631
C 2.7216399803777778 6.158571404653089 6.396318381055036
C 2.507685210757726 4.550262983203704 6.746111636497414
C 3.698466311815713 2.5218077741417386 6.284685824604755
C 5.106257321526722 2.3682670043277243 5.5346546622174495
C 6.2749492543921255 5.524166354406465 7.2337810089622145
C 4.9859346908724165 5.693799599183686 7.79272928981324
C 3.60358824649537 3.554597782019495 7.278811332089807
C 6.092210694459978 4.032733513024294 7.168848595150015
C 4.807980371696789 4.154171265070895 7.792925861136685
