43
Energy = -353.45165116 eV
C 4.6537840189131465 3.507089629949364 0.6350991612400759
C 5.894930126222727 3.5952907742046625 1.481248658324713
C 5.800968471029987 2.3305699916054192 2.202275596760991
C 4.305000902047601 2.164038505049585 0.16703906512288533
C 3.4484993868947655 4.18187590175317 1.0915029973783732
C 4.461376895344571 1.8795828561862142 1.5091798606261158
C 3.224084067103449 5.491759652280889 1.6802321360787866
C 6.334989595078327 4.806517578524794 1.971706636281905
C 2.585009048202714 3.2456731295463936 1.845193419872598
C 6.011836783885275 1.7772889492860964 3.3969211054888926
C 1.7674446314202565 3.9989182531472958 2.690055156212283
C 4.282496677481204 6.385332509264153 2.092415665493648
C 5.677936278135855 6.101098067318987 1.9704213464399918
C 3.371997569103585 2.1705148128959033 2.432579136904505
C 2.080172311077212 5.394570943757237 2.5426398498300533
C 1.6447131171363267 3.706943295981986 4.080695727827717
C 6.8626533652119885 5.121814589641292 3.337640043283328
C 4.968899439548596 1.9990808818168944 4.471635822607159
C 6.4616941734246724 4.372749780879692 4.448144221863211
C 5.317392870676442 7.01420646112374 4.170479765174493
C 3.512280609342053 2.1182828931662963 3.8235328306825136
C 1.9905464008969518 5.9982705187160406 3.8466112393579124
C 2.4419523439358524 2.6558832762454694 4.6391637940410595
C 4.09912624093916 7.112923358880009 3.3525063342517902
C 2.976773288318535 6.9479592924637155 4.217053868665473
C 1.5847729414005445 4.974061993810135 4.804567537068898
C 5.797955105410155 4.567938623884331 5.68235410986721
C 5.594002045828437 3.392859450368561 4.886434248714351
C 6.262024399327737 6.405635351255618 3.3137621215032644
C 4.934450489273583 6.751872947355527 5.52411403562945
C 4.914101551686051 1.4180605359257814 5.89164494542164
C 3.492907896379629 6.877445632019916 5.573329228998142
C 5.25807952426299 5.62454082212523 6.437109675571287
C 5.91977266062686 1.8077627865003247 6.847033899050158
C 2.6763254349145096 2.65831602103292 6.03868341206435
C 2.0200028305839135 5.0107066199188335 6.163773063583455
C 2.4328459470436754 3.803719949271709 6.797780305809696
C 3.815168886046824 1.9826712790027043 6.615352535888099
C 2.9869110848183364 5.997485515891574 6.54123965649327
C 4.086795618099518 5.31209750390787 7.23340442484066
C 4.387505064098528 2.777864286350388 7.735219386116438
C 3.684058289096768 4.000294352666495 7.617970741743755
C 5.770248224589993 2.352917029884628 7.994739836683454
