43
Energy = -345.96594209 eV
C 3.8908033333812866 5.029840078913387 0.9888560405340616
C 4.327968939020591 2.5717992891503836 1.3160468554186406
C 4.789804590505221 3.89567556840786 1.1670378887056394
C 2.506774161114646 4.800761614580592 1.1948605611829044
C 4.249483950809845 6.13520066803668 1.8539038328872868
C 2.9033205638195243 2.267672275539249 1.640605556157848
C 5.612271090021528 4.309865567388372 2.354400474756509
C 2.2609531190776235 3.5667173189460626 2.0345511284903073
C 5.516034358402601 5.893907138809895 2.479467678051506
C 4.708200768330023 1.7269264315139126 2.4826444711654276
C 3.083752624997928 3.9003095590598553 3.328082006453959
C 3.272994737707465 1.3116660030938567 2.673053788149385
C 1.982941514413758 5.680138437659456 2.19409397851361
C 4.4449328330578455 4.153688123679258 3.4149622543316367
C 3.063657306713473 6.521699970626054 2.6783598646764784
C 6.470687998544822 3.3379119910092014 3.1943173644237186
C 5.594948704803492 2.12282427552927 3.49856735716051
C 1.5112298751632274 4.5186391534089845 3.032375879305078
C 2.665396122671247 5.585276828767917 5.156045399877804
C 2.636704582353751 1.396162474401847 3.8615846748408966
C 5.809721943771176 6.411409009314223 3.727381010790139
C 6.341216744050812 5.310946514518862 4.66536851862678
C 5.420653206945728 2.080991547762267 5.013480778593741
C 6.886972195509236 3.8883079019462445 4.400804779465892
C 4.643543291510193 7.026904200813351 4.559893236001372
C 2.1154113502475904 4.301872070520862 4.419314569646657
C 2.8464752132467206 1.975273803183113 5.077745560443461
C 3.2514206224050852 6.794000789128855 4.07014729198442
C 4.117342460003572 5.537447243381493 5.148447885462711
C 6.409959771110839 3.0210666820242795 5.553170640418933
C 6.222126633615831 5.861258206716681 6.0423667438106055
C 2.13646224893142 3.1969739413164153 5.468684374934937
C 4.168101758091232 2.047187502993738 5.743514587046755
C 4.928624692184866 4.595005143900455 4.614756756570017
C 4.851043378936626 6.49866644859747 6.031179757400312
C 2.7683515520315862 3.747439727641881 6.638460804788568
C 2.8225724373810293 5.180988694084205 6.7138110363517525
C 3.9583652658436095 2.9255247304837684 6.900208570625349
C 6.314332716831504 3.5323612181310375 6.862970659604972
C 6.299533869419235 5.005357904888373 7.096382108939303
C 4.0480458164595365 5.792400447849878 7.226152790347551
C 5.016674008934267 4.954131297983126 7.820654256700034
C 5.031741159710673 3.489355716380595 7.562839738445622
