43
Energy = -331.44306721 eV
C 7.955489494160479 6.618151340048736 7.907995195285426
C 7.974389388938626 10.070841832716189 5.389385557882869
C 6.290640951425648 9.556682743621879 7.446280254549938
C 7.197748088646337 5.470461629709686 9.497536163910539
C 10.086689492684968 7.651158210971303 9.723048523063591
C 9.103098262157712 9.366625451116787 4.9688112163714875
C 7.959901594910507 7.664664207934186 6.921002929755499
C 7.955892263131687 7.235493441669473 5.317592208154537
C 6.67925328274774 6.498349495463983 5.597394404953711
C 7.9684800103296975 10.510772825576682 11.117179853485752
C 9.160453883319075 6.628337661372121 10.238402187926532
C 5.826704380101076 7.66646710091037 9.72321707768599
C 6.743563600406918 6.637382927575885 10.24007959579367
C 8.718253859110428 5.365364099481701 6.349950271540685
C 10.344628874294672 7.4684105942082715 8.269252084906439
C 6.0506714599763125 9.113803020741617 10.031607992509134
C 10.05918614862581 8.916049477122456 5.884916188810441
C 10.989954630729901 7.08806301182843 7.1739959250222185
C 9.225869097460697 6.48571081746538 5.597105573655054
C 5.592028162329724 7.465459028165891 5.979712703509705
C 7.200121354315148 5.320021766738796 7.931881089412141
C 8.92678658401544 9.398313826735855 11.047343104156433
C 6.828930156994559 8.24402337482411 7.796267296367384
C 7.000416211914558 9.406523272755253 11.045026823546666
C 7.960528591165833 8.468634722719203 4.498879834117653
C 4.920846459075868 7.11546188975008 7.173570937025927
C 7.176361811756523 5.3740504959954984 6.3512160219054286
C 9.636805258373048 9.54703349663065 7.449612606140192
C 7.959638270045342 8.381833952390366 11.474524436474741
C 5.872570392867689 8.941529936381892 5.892495963748831
C 10.32421270366485 7.441856332103126 5.976131054445293
C 8.673168998691763 10.504811633595686 8.160234846282227
C 9.09179195280361 8.235940891003935 7.791437378280266
C 9.875502489215277 9.099196527858172 10.033215528929311
C 5.568454427019086 7.486804300985794 8.270997081183824
C 6.097572201020101 10.040776629881808 8.858190927829483
C 8.695410230235138 5.311323714139871 7.931362600666314
C 7.961281538439639 7.909173403687221 8.677835902950761
C 7.954085769025094 7.11662603706091 10.96866834962836
C 6.833093386775414 9.37999224808546 4.975148586167854
C 8.698079798231442 5.4625580898752695 9.498520505652765
C 7.259089869069647 10.507934022524436 8.160293048034307
C 9.83203714711793 10.028855155797624 8.859462722681862
