43
Energy = -351.24511985 eV
C 0.9098706194531264 2.9983678279568866 5.3715495275158816
C 0.20386900109331882 0.725580275587898 3.9535777256276776
C 1.9052789065244708 6.031093518255603 4.769531651806566
C 1.9554184587045222 2.023856249329628 5.177085116255913
C 4.792595375248923 0.5403025649082945 5.529659813877801
C 6.118654175764028 2.5141487063142196 5.260252469119169
C 0.9691460252807227 4.971502465320473 5.169748468491873
C 2.429148813770693 3.4058777998787413 0.5243412442107755
C 1.1442755555946826 1.6041492861926583 1.4922897739923169
C 1.518647784341393 0.8175672109568378 4.468159220568129
C 2.9197575887122387 5.54421526149974 5.696472018161555
C 5.706987019882343 1.3118072187285994 4.599783008321633
C 1.1799327354188085 3.8485088660718643 6.534196465785922
C 2.042181779197802 4.482342884835944 6.099717849045896
C 4.45084507594704 1.3784763850256025 0.14729669116133046
C 5.1417323745802035 5.833674325149373 6.077039037701703
C 5.670438585801255 2.0926405885481354 0.017811925788397562
C 2.8872452292661466 2.1950048328241087 6.356481897592909
C 0.10578595581432851 4.483569929134975 0.6938941521835275
C 0.20462907980399073 1.5200200378159572 0.7155469332690055
C 6.297672606806284 4.973863171562563 5.898555105547189
C 3.523931197679114 6.268751723003098 0.15667535432884788
C 4.5026621194903385 0.6410223564429309 1.3986811967987722
C 1.52731587369011 4.3760565814104275 0.839712048207155
C 3.3004551422504713 5.883077244301189 1.5605855852038983
C 5.838223110144848 5.089515651309214 1.6772118368319855
C 4.866618960288844 5.883822042815687 0.9839737114018989
C 3.5136084273793236 1.116054555069966 0.5033951013725376
C 0.14308832780731084 4.147602980665701 0.9239774896409365
C 6.416468376990495 5.603786807223608 2.861678909627949
C 5.116579401291816 1.210603492091894 2.603213151646844
C 5.960917395141793 3.620209013083214 1.8097167984777607
C 1.8220373422661373 2.3237338979409246 2.6208477356409343
C 2.504004666967812 3.447559388032433 1.9352854507671828
C 2.1753441550991877 5.069135571387714 1.9542469282847472
C 5.790170633189145 2.560942607326053 2.7493575489168958
C 1.7087952935239823 0.2400417706324292 3.66468870234205
C 5.916364541717341 0.2748888922253119 3.4010035212582492
C 3.483109598552886 0.6688684850831446 2.0146953576088884
C 1.341079138569136 5.576507137147178 3.0045343523920485
C 2.6615634364189753 1.1206271379712553 3.039551073508922
C 0.5001584014009185 2.27702861065671 3.4522116804566476
C 0.4952030695022464 0.9654060046499942 3.953577725627678
