43
Energy = -339.27001583 eV
C 5.039957648921215 3.7139287592105146 1.3423558774595834
C 2.4625723178290664 3.9196434413783416 1.7087551787890845
C 3.6993389727436012 3.146130780026274 1.3460737083256074
C 2.547638117378363 5.379721109046526 1.9068154994784348
C 5.10320532491591 5.152221087400048 1.6581412653225485
C 3.890119233577158 5.924119143717899 1.948699955233871
C 5.871071023591835 2.852314162752269 2.1725004979488984
C 1.139083108275032 3.3282272016907037 2.206177598308054
C 6.237565284168537 5.18497945445338 2.678212614818412
C 3.682573259705099 2.0012168056731734 2.335807236630501
C 0.6941265413174978 0.5377246320228635 2.0787058591007552
C 1.1933246274569915 1.900866891257911 2.190985662371175
C 6.690413903120224 3.785904073176434 2.9330262678317385
C 1.212448289626593 4.206655406764608 4.58364037710329
C 5.05457324727089 1.8904667035533285 2.938069972985511
C 3.3550393782009453 3.3977099737599974 2.870266834957322
C 1.540566177569119 5.561707126880767 2.9595004087975507
C 0.7905973407330869 4.306148217585135 3.162211100419546
C 5.550318426915934 4.417964535081773 3.8218450858926984
C 4.084952175896526 6.544784438726895 3.263070875886428
C 2.423078747853153 1.2609603041412338 2.4948830849432886
C 3.8760937464277556 2.8329993270510263 4.810479078535486
C 6.498083548668005 5.51621831798607 4.184861756770045
C 6.9818703956894606 4.035726095939039 4.390451802846701
C 3.4883542254988185 5.494058065465174 4.224934063810438
C 5.019790898913782 7.179958900451424 3.989371177555125
C 4.103759990768649 4.111065126641482 3.954983471498599
C 5.739252852004102 6.547246626741888 4.996582061570161
C 1.9716112717344287 5.535389367577478 4.48764246101143
C 1.630169998814556 0.32979031268410297 3.229381932386487
C 1.7311469482562398 3.3807041565761295 5.506249205046019
C 4.933145352765338 1.9135328570821704 4.387283292200881
C 2.9393947377826124 5.994330552666932 5.457035669761304
C 6.8375304540539865 3.2019206214154865 5.548395624432109
C 5.7862434539408 2.1456334955589744 5.534210306060852
C 5.275648455500369 6.130105513384782 6.286837013601932
C 3.7993647484399675 5.870405023949237 6.559420055965117
C 2.9423566646087322 3.0057733802102127 5.945427494300507
C 6.272763430761437 3.7469761739966074 6.774517643689627
C 5.62020941338796 4.96653104275669 7.047686570375957
C 5.2481793598371524 2.71383374155197 6.789558938886829
C 4.172523375860207 4.680517591354903 7.325387484033812
C 3.920843334859098 3.304789266298407 7.020457738695997
