43
Energy = -339.30085274 eV
C 2.977117248543443 3.434146227829094 0.8467273088963834
C 3.0938776757742894 4.718736599842046 0.392033933253489
C 5.301878220009906 5.0952397965633365 1.3925889509066143
C 1.8274916259726004 2.8464135346452677 1.4316306924441076
C 4.164289662794401 2.9613167000663334 1.5789937460657573
C 3.9353459271706677 5.504900024407066 1.2631462898472627
C 5.481961342839747 3.636982552717001 1.1564952003021496
C 1.2904982894483241 3.6429170974704714 2.498045194453621
C 4.1555978689168604 3.42214277787155 3.048702859284995
C 3.669017277590704 1.931392969303871 2.758434778432089
C 2.124389625125394 2.06708957761123 2.654140472177264
C 6.201794363566367 5.434775573259194 2.539677312320261
C 6.432848913967836 3.2367888251521046 2.116757333144785
C 3.2103993556483172 5.92597573569081 2.4175910310529143
C 2.0764628834864305 4.9056101548665945 3.0105306435142
C 7.08088783879836 4.3403612727148415 2.763292346009963
C 3.138840481015021 4.114482214218519 3.7844612865982645
C 3.6017249064483052 6.622783232511065 3.6364075583884405
C 5.650868054168003 3.016012576291579 3.3911040654213296
C 4.679917090745382 2.0133502425760876 3.924761231700118
C 4.719449906488827 6.251578376734616 4.525815438860138
C 4.133673294790096 6.0502364715468175 5.926788117029224
C 1.0087024428500455 2.5809550833496373 3.501515219511628
C 5.811337424789054 5.546096479282351 3.946333492474181
C 1.7965305468932038 4.844707142764026 5.526719545242538
C 1.5554581814404094 5.615949967537785 4.19872181533055
C 2.451164421848479 6.615826724673533 4.509445875956088
C 6.497494431938377 4.102443572327527 4.184417276002441
C 2.9428592700680745 3.952554769848071 5.118964771614548
C 4.690975386847634 2.215773217446939 5.35894227896658
C 6.984621846750222 3.3543544073405718 5.3679115963759445
C 0.7468136878724115 2.8956751262904397 4.811335035327712
C 0.7158016168470249 3.7901242842043446 5.715868457478541
C 6.060573275825042 2.3738800933141126 5.883658544075918
C 2.7283237712560426 6.176883888823366 5.851548577893461
C 4.614720794435568 5.266705371344652 7.041063481719232
C 3.755071484707277 3.152534071438593 6.00421806471628
C 7.416035938265885 3.8244003891081975 6.684084964587258
C 7.161878851202917 5.119770480819314 7.088364070817097
C 4.181606657944854 3.838480620917085 7.16043911065715
C 6.392242220568274 2.7919428602513094 7.227107244032808
C 5.868071194911421 4.978084678223072 7.675765373297024
C 5.436329458615317 3.5545689959915263 7.850394173006762
