43
Energy = -343.90723145 eV
C 3.4189979234887837 3.276006501872396 1.4625125072850564
C 3.7592486448633315 1.9327122158964722 1.4327972888494713
C 4.980009289617488 5.332254870016453 1.2709028046972746
C 6.420122057898365 5.286252874149096 1.2502938124396323
C 1.150519639659505 3.737782932433116 2.510295444109888
C 3.0904445859292093 1.0624738211814464 2.325703624176572
C 6.934596894736763 6.305890250754842 2.2274640193427384
C 6.895742070925311 4.1678973733641 1.9808575096494476
C 0.633118963784201 4.3806098970241845 3.6844735170873686
C 2.497906595357428 4.004541372346602 2.2237851977934113
C 4.510767549611332 6.477367730820639 1.9449903869725393
C 1.0137788201573357 2.3349410912618525 3.0490710799986913
C 3.743035080425679 6.161562319964655 3.3957609853681126
C 5.074750135393059 1.8287022910434234 2.3139754993563773
C 1.9597498234305473 1.2712473801690733 3.155583483999433
C 5.744211393658907 6.946519591948339 2.6367719268592484
C 4.356751731447741 0.9645640429364071 3.163349697908732
C 3.6976972028066215 4.572260155443277 3.1321433587731833
C 7.336061913174267 5.149810318391789 3.0544542907311705
C 5.763959015898516 3.204857544517632 2.5491092158953172
C 4.558924945906045 4.071453139382692 1.9550155151861794
C 0.6168784971855981 3.0178145672512806 4.310279483178779
C 3.896701882096397 0.9416680923941163 4.5312336238806346
C 6.74985040151956 4.860399444046997 4.257737091782415
C 5.884437514675173 3.586945401411648 4.0953289820586365
C 2.4786076152704895 1.0339011052850902 4.544961550864253
C 5.1395539053205175 6.694312798654295 3.9033202103961195
C 4.473816211405488 4.062783907164171 4.40578977722506
C 1.417737593593909 5.198187991206498 4.590029280300306
C 2.5999483921623807 6.002418099273652 4.544901885102305
C 5.766988754858394 5.849758654299355 4.807412819547521
C 4.411549708003601 1.7280806262836101 5.60168880844168
C 0.8127953484625234 2.8466253552572796 5.816771479928843
C 2.02126840534026 3.174584360438937 4.928192023043203
C 5.250166602641829 2.885492878968396 5.300174880232748
C 2.1245400685175317 1.9318871989973365 5.739341439458058
C 3.344753672754744 5.612629048823837 5.7556858800178805
C 3.39199298886918 2.2020668804180885 6.480133212679311
C 1.5678693834324275 4.263555259644777 5.850773809248081
C 4.724955907703538 5.1357317838975325 5.540742288490468
C 4.937079494373255 3.9067905301578087 6.3628565927451275
C 2.754921178931109 4.63760053405044 6.5951364372624335
C 3.695088976708974 3.558954549154432 6.92009405963455
