43
Energy = -331.62117934 eV
C 1.6136424930952848 5.251240734415318 8.642653548620256
C 6.581200568793075 8.432074266790666 8.489427650248134
C 4.5474422490375614 3.964738845918319 1.347342706052963
C 2.1689882482928105 4.783150334541407 7.295521595871297
C 9.684331711454247 5.265750001900802 3.2480085312543454
C 0.5946365448635448 3.3843741545685515 8.08950730834506
C 8.882653739109806 4.251985749188182 4.078455706563488
C 2.442202528741618 6.114462896700824 6.888690074337304
C 1.7241303339500949 6.53009218149723 8.077747631583627
C 9.452744547738595 3.616953341248785 5.285340518934219
C 9.059439454315878 6.2978639341440195 2.842781301674873
C 7.148186925066072 6.327458826376373 4.132254209471405
C 4.881696020786905 8.309005486311982 3.5135674257863045
C 3.361207011135327 5.922109140959537 3.2760350154249074
C 7.92645529741091 6.9076753051389685 3.146160352935171
C 8.118412229915409 4.577959132039136 8.400814503647576
C 4.597605295131321 5.251583886622134 1.2982779838767002
C 6.734424883791912 4.844036221289289 8.129768333239623
C 4.237572909263784 2.790264132234252 1.7525203861435883
C 5.0788419897278825 7.789290313177736 4.828619400518005
C 4.005673006221066 7.678432942109336 5.703204275472738
C 3.5780221880211043 2.1562653720598774 2.6892432506617507
C 2.851991295702157 1.9596646505910258 3.7003478209095997
C 6.114671200902213 6.812103959232713 5.045513671106197
C 1.7177415670019713 2.7626291844717565 5.847098520406736
C 4.545362612602786 7.606284473429317 2.352826116911398
C 6.063057480239062 7.295918416088766 8.23405703829751
C 8.311177964971028 2.42451509437703 2.1375700709388767
C 8.41150719324474 3.267216950494549 3.0882773065001152
C 1.4532223645134994 3.5082181311515694 6.972902264794429
C 7.6354679834488834 5.022617606082648 4.630639840211495
C 6.135240948103456 6.068263860959836 7.617651106506867
C 6.943233468422159 4.773576519913521 5.809026212981823
C 2.998047565593384 6.062005521593453 4.448277917848018
C 2.2265053197750193 2.2596716607878484 4.816147503185657
C 7.082150298799707 3.9717310242646033 6.985051348503627
C 6.139057027645023 5.918091437586602 6.1572956237673075
C 0.766128561302545 4.252230018249988 9.055657862952886
C 9.254643743898953 3.2832067480464033 6.457921951056111
C 8.337116279536973 3.460340637787972 7.498045035039515
C 4.1623407821899745 6.238003161732252 2.142841745076958
C 3.051168190217026 6.695119018573527 5.725394067901471
C 4.587786692129681 9.03255748912103 2.345736707031078
