43
Energy = -348.15539897 eV
C 2.785063867078211 3.072307271729302 6.666429152180978
C 1.7692472647692177 3.094102533240275 5.623341328091739
C 2.197224663451527 5.569585972001078 5.242515324689442
C 3.1875539907340524 1.268546572072285 5.214548297512254
C 3.648685247269509 1.9190340754998199 6.3722298386266045
C 3.6542539968517542 4.252322853491414 6.761134059788598
C 2.020050208757173 1.9438369002500921 4.741459178520715
C 4.9877367196305595 2.4606980133546767 6.017120212637369
C 2.17031991625041 2.1353949581679794 3.305925921025157
C 3.252818031846405 5.623262294108699 6.229384034738295
C 4.426808632882954 3.7007767253275086 5.395323547739876
C 1.40483315714957 4.333585712414306 5.017391950928165
C 5.161680728225283 3.8641441366498377 6.729645533241619
C 4.221866270640328 4.3161882478427405 4.267753370438659
C 4.207492260645902 1.2955239907506004 4.167218331540258
C 1.0473718512270511 4.30609177467235 3.6471687411559306
C 3.5627682027173 1.8253178787665338 2.956338393158586
C 1.5921004597777988 3.2744649825124164 2.7634453798613587
C 5.426939957573773 1.8654546628223434 4.644060490217537
C 4.3291023257942385 7.428681117438073 4.81818277762976
C 5.708174201547126 6.239630458006501 6.321237126456747
C 7.562218904212335 6.0994167917282365 3.2513528459680017
C 4.580100009960595 6.227589489628727 2.7247371107805236
C 5.6743349898509345 7.796728706714079 4.649054358475522
C 6.09112351095075 4.27680198999468 1.9410788603770115
C 7.2099505131032915 4.714404338190422 2.872893220493874
C 7.436385231796211 6.099611097109834 4.726921175880473
C 4.810833080338913 5.044064960010569 1.8036965517276626
C 7.103798168773522 3.756174896345393 4.108275605806279
C 3.7187648479542013 4.041918960649768 1.7123953806775458
C 6.549985375661634 7.048775041691066 5.459039839655767
C 6.355637620382331 5.22102102726323 4.028989817753346
C 3.583932443635074 6.932983450902267 3.661967125683048
C 7.123707425015509 4.683105106993987 5.316281099716981
C 4.973451622015908 5.313353637253531 3.801334418956788
C 5.677070282984256 2.9764114835769466 2.420144028101081
C 1.7613849804087345 5.349537269726184 2.9516462938474333
C 4.275975895798125 2.7376422106168183 2.1483591544791474
C 2.3941223661204436 4.2956209400489564 2.0892447845530264
C 6.208129929764096 2.660615170304354 3.73510646503792
C 2.3908411485401446 6.20809644266037 3.918863358901489
C 4.295064698286855 6.560021881328358 6.0500122769446385
C 6.165139686211746 4.871198662726805 6.430797922588484
