43
Energy = -339.46779483 eV
C 1.0587888255095959 1.773222535372457 4.102156565047139
C 6.957003528833222 5.07905682340959 0.1394635121298837
C 3.976636488020276 5.280786224369784 6.6308226392266025
C 3.0608032616341734 2.5597995128315687 6.194191407584342
C 7.060535147338551 1.1905269691045968 4.118720907604427
C 0.1502122445489244 2.0784911940492035 5.142073309597981
C 7.146438363454105 2.7702843618767767 6.341074769723616
C 0.29540665868030613 6.349324846610237 0.3232491653823788
C 2.3238716798745824 3.4683471185827175 6.968532730034387
C 4.019250484942158 4.528368528260407 5.567892137089725
C 5.933240609551125 4.953050099379206 0.9234545799559155
C 4.095452090718117 1.3127600242203858 0.6720777386753287
C 6.042360516139524 2.4913153081645683 0.042197404565838585
C 3.8756108983913466 6.136468404402829 0.3490716119081144
C 5.651741150616599 1.1048931254774852 0.33308643915946373
C 3.845436814702153 1.6564741481450465 6.567205364181976
C 6.919690411705149 0.425840024538186 0.40944902354526563
C 0.24904507094228276 4.124561309635005 0.9543764385147188
C 0.8681400826896513 3.677376845932711 6.976526741200693
C 6.283207707623334 3.315439307921724 1.1860286230355865
C 1.29946654064407 6.780107920456765 1.2451739712686958
C 3.9185300435865456 7.2041543133924915 1.1928161958202719
C 3.7709889040148643 2.388261233248625 1.5443465900285418
C 2.439008173166088 4.182343986735551 2.120530419312817
C 3.1922277814100517 7.048171852330483 2.4347737511143412
C 5.322478906877618 5.316168267084951 2.0137811417471836
C 6.367764010457955 2.5308009041292214 2.3857622248050716
C 3.0574904796360056 3.5455372943541614 1.0086760884412305
C 0.5385000703217635 2.021683273808917 2.326657455751072
C 2.077660289320166 6.127869491084222 2.29754204502417
C 0.7503573629348737 0.966263087825034 1.3556719895732228
C 1.0391189096775593 4.355551132456715 2.0999466471808534
C 3.327124275943653 2.152768080090241 2.949075109583951
C 5.088217811488935 0.6806638530364113 1.6062824056856988
C 2.9019801008467763 0.835319381118839 3.363887260199436
C 1.3022731945229575 6.35756131585456 3.517486379389416
C 2.6040225829284496 3.2970904178784513 3.3344637112662747
C 1.2491419116108988 3.148286520088715 2.94248484976368
C 5.580944387847957 1.4604030473335357 2.730687340615637
C 5.392059917628518 6.631848455767917 2.3917783658880976
C 0.20995817371656506 7.189850224050084 3.819991559770369
C 1.6741526673785632 0.3387296674219655 4.10215656504714
C 6.122311865496244 0.20282996553929286 3.378064367253388
