44
Energy = -348.33485694 eV
C 1.624421836444001 0.6694804540544681 3.711318192829662
C 0.7523414577535903 2.4714754004312134 5.226869848370789
C 0.4213164087371017 4.68428967482153 5.410275840960664
C 6.703828118928459 6.271857909344009 3.7811973445166234
C 0.47923654287411954 7.0789398792788525 3.4140205427901424
C 2.7154821188332314 0.029973825790786963 4.468912572336483
C 1.826701008660574 1.8928039271573749 4.524201629219501
C 5.560948943600125 1.7520636441382669 5.261834876658425
C 0.817595023752138 2.680412984635963 6.616143641589802
C 2.5571884932082534 6.381989834335007 5.69004729110474
C 6.423983728388613 5.277269039827468 4.679644274892326
C 4.2484673072910555 7.1097355750696485 6.598810641757427
C 6.51187912237436 2.391783403110052 4.7900635519281165
C 2.901197370322817 1.2269840284111722 5.2717309218347195
C 4.642014868387489 5.649379103131901 6.559265424690624
C 5.53954419597815 4.882789221780057 5.834930488443535
C 6.661503971435946 4.0269574129183265 6.393189625339342
C 4.958486821106962 1.2023988965807577 6.3596412938854865
C 2.86629538440795 0.5233672102049836 6.51789750783503
C 3.6658009917379744 6.951226190773396 0.8324210683000389
C 1.10829951102677 3.909020268273195 1.2982728854355163
C 1.4251358472049367 5.608036816097757 5.995919321066995
C 4.232331433172645 5.636899518856291 0.9192822242401564
C 2.3678662530787045 0.9189412673366298 0.7140964526675851
C 6.884323669897912 6.938682324534019 0.4117652184371895
C 0.1471903109006122 3.771229852713274 0.49028198330386297
C 5.565741577633182 1.8691366774214244 0.6187856105961167
C 1.6538007098097638 2.192631608605422 0.6924220562893091
C 4.261162871732931 2.083446499229949 1.3541321469981544
C 0.640535658369045 6.300116296311312 6.921637376755111
C 3.0614391657822497 5.650137217750071 1.501097436808399
C 6.888015471416497 2.729827369447277 0.4895660024670888
C 5.9908493522138055 5.360516153301523 2.698739814930938
C 1.84391634410723 4.929540076399507 1.8639948958765753
C 3.62001798173428 1.019139306639684 1.590925609113151
C 4.953015964405804 5.188604376703532 2.027854227861822
C 0.7400680230597576 2.7970724183060884 1.644775452716504
C 6.238568835815382 0.6722330137926593 1.300225107364621
C 1.2327228459784938 6.12237995182831 2.4625218437210155
C 2.2697573967931968 6.880919041697426 1.6574484744923572
C 6.717869442959792 1.6888360701217806 3.414020542790143
C 7.051652132603817 6.282386628434044 2.9332446955263602
C 6.492791554168557 0.5157344674333897 2.6820021941035765
C 0.3960762668827735 2.550689520053585 2.9260021600121253
