44
Energy = -357.67161457 eV
C 6.575259711565556 2.260754227540478 1.1944746642669863
C 6.550342914079181 4.841602590878714 3.5882182210291074
C 0.31206404187676645 1.3707434578240898 3.4674660017766374
C 0.19198557298450544 1.3363086404352593 2.0415455013018384
C 5.9552681367035625 3.105030013034924 0.2622422133471544
C 0.21613103202065284 2.4707101694729663 4.373339928028952
C 0.373698474080478 2.955546547978169 0.21697189291990213
C 2.9333039533549337 3.384224929737298 6.80666792380662
C 1.714911561381776 2.6640335984245205 0.015493706886728163
C 2.1016001534322597 0.06884320408013433 2.6719763933168323
C 2.170197485279802 1.2456569159646944 4.874540650071413
C 1.5805694520125186 4.847506008730114 5.703245663209191
C 1.4678278662633653 0.6072026442395096 3.81871925396587
C 0.6310948317233093 5.805849676602335 3.6709491061093105
C 3.5195286149367067 1.1094293623463427 0.05313447422811485
C 6.579072040083417 3.665458653732437 3.986372549461661
C 2.569211238205614 5.610795128094732 2.134229465410513
C 1.3918877573349195 2.4196373479689233 5.274628286197253
C 1.4175585962859287 0.6823423540831786 1.511603638747533
C 2.1040192722339772 1.2908679852440916 0.4286308106558176
C 3.295412930865674 4.260987313710144 2.2582741609881567
C 4.005374101479178 2.433699570110138 6.712163681793826
C 2.1067441448526534 3.54883206642251 5.841133181249182
C 3.464085551623144 6.774840413523023 2.8358398212793796
C 4.536928019523777 6.952020911934683 1.8885293609271847
C 3.802498034598537 4.20834105140775 0.7906442560754052
C 4.226373391968779 0.389660183839312 3.9148610775238186
C 5.794624825105908 2.954833930365316 1.6207266864600343
C 1.1489798895822765 5.771725852147388 5.014073374094676
C 3.6163633567972173 1.1636625094707422 4.922673024545306
C 3.9351126641622347 5.560090642834787 1.5397761412699122
C 4.512749729913758 4.344069766108961 5.2010419384071565
C 4.898836562802924 3.163751647216915 0.5902589063387655
C 4.4640897180304675 0.24839525374736043 0.5625853282051074
C 3.512524765645917 3.4619584564520323 5.9053231052195025
C 1.5097466402194624 6.1077766251522 2.6812308514200547
C 4.265857071689447 2.3041647318584992 5.507625532103844
C 5.339589870083535 0.6762175975744341 2.9110318140008578
C 5.9520795914189835 2.9785273836780863 3.702216078130272
C 5.744387902430951 3.9486546985108815 2.671918628938784
C 4.351354784024338 5.262264482684033 4.23524783497946
C 5.9552681367035625 1.895786629896191 2.713920145547618
C 4.6209033203827765 4.907465761030679 2.8154267584408883
C 5.297057650263927 3.09658485242771 4.910341933354046
