44
Energy = -350.53688918 eV
C 2.2448914933734927 4.771080667846189 2.2956010258822674
C 3.8747237963854264 3.521763022610832 1.032236941591534
C 4.30318246231836 5.944488915926937 1.6192072596221034
C 2.781584365990039 1.1597755451905913 1.5492540980045857
C 1.8278555424385872 5.239971139526279 3.608926937039663
C 4.957124751464527 2.630878030681454 1.2910421417353424
C 0.41099336257300295 1.9650045469869577 2.076832650032538
C 5.409033522746012 5.680444503462413 2.5134126449405585
C 3.8503524909945255 0.14378768203674533 2.2735296724594103
C 3.3685463109714053 4.794298170606144 1.4149483833147667
C 6.654989589834413 5.600676012539409 3.124227006592768
C 0.004129551832726973 2.9266308320781387 3.1462317443547096
C 1.2967426824583268 4.076446474723682 3.0513351929953285
C 3.6812615718596926 2.123169580272867 1.050878319201651
C 3.1280209655595734 0.570238860353404 2.7847533609074686
C 1.4227375262711632 1.4928877349190746 1.5173667020647115
C 0.6992918033685507 2.758700628742544 3.2715536730404855
C 5.790714589333912 2.613843256193679 2.4620867571410296
C 3.7498918728736585 0.5138464777985274 3.484429285362134
C 6.236823431361838 5.016808863831727 4.551377212624086
C 0.87417762998403 2.1773528230376002 4.452990037088058
C 2.277336317949123 5.947255856104236 4.726478173643272
C 3.237129396462323 0.5365834270566633 4.010691058142295
C 1.622856080517208 1.7150575802594692 5.467462309180002
C 3.5389509642550627 6.663027073990835 4.593290718929516
C 6.14731438894286 2.4151050590548144 5.637160592912367
C 5.241638891812462 3.328172792931294 3.601141541515265
C 5.158580903503411 4.788947207951508 3.5839903549404912
C 6.401704619948425 3.328172792931293 4.555339311099832
C 5.7718974482706855 5.780426523330059 5.726706024782739
C 1.6195401097918152 2.36824365156413 6.773368674889456
C 3.82417507240087 1.5737036366698463 6.279376822258664
C 2.178956341000955 5.5212832816284285 6.104257716633706
C 5.432713082019189 5.091935601306588 1.032236941591534
C 2.9827062503691093 1.1209699687330454 5.24843075808981
C 3.5683925321548067 3.4942323832634457 0.8507519638411046
C 1.2357380471434727 4.733649053909514 6.699768504238631
C 3.0334734969809367 2.4176724574228143 0.2757455225292154
C 5.203780612608184 1.787235936456602 6.126045542251519
C 4.372531515089023 6.276557947659554 5.738132679224573
C 6.174436299275985 5.55658892524142 0.12293778434649742
C 0.9412249734053993 3.5411908661214735 0.02314242925843576
C 4.044655158314812 4.752562424733399 0.8070063801245656
C 3.5133643252850035 5.666979639111059 6.688571072274302
