44
Energy = -348.93509926 eV
C 8.098349759443627 0.8104239256383717 2.6279900079565643
C 3.4141820833637246 6.771689762947266 8.177383790938286
C 3.1952615049037467 4.637901367649242 9.688665236343565
C 2.616194642160528 3.4967717517495784 9.404386206702126
C 6.7457831782491295 7.488674778889102 6.063537616557935
C 1.272518971484066 3.889015685685859 2.572556897843513
C 3.815543593232707 6.337054065798956 1.0998186388907196
C 4.96317886391861 3.855442981739253 9.329012512147074
C 7.045557146173119 0.7432544603156762 1.754916731584789
C 3.6230819886137584 7.16892170800149 5.664948166700599
C 3.7839613046120393 7.030651504861451 3.5910187055987177
C 3.541588741150432 7.211837995731585 7.0091750780888376
C 6.398406526330091 1.627516538469178 6.69751822668238
C 3.634323684138689 5.635099754037134 0.00287132364080452
C 7.0798466120422825 7.302156809097999 3.878456481963389
C 4.657720373136949 7.494059309936437 4.673812844585469
C 7.816838483109243 7.2648323931196925 6.710121932063635
C 3.150322944625585 5.52407952896184 8.735296154446576
C 6.01718368198198 7.52760926662894 4.826806411713499
C 1.8929305037358224 3.0174754488918607 4.994322003008828
C 1.3968400122120876 1.5648677525725263 0.1806706017939941
C 8.884177291228267 6.891285041995265 5.992988965329952
C 3.3256140306162574 1.5283974191610745 3.894921826150582
C 6.800696263252897 0.8800579312454669 3.1219905748036267
C 5.880831833827818 1.046083613975162 4.208793168425768
C 4.095275663661195 4.74842992940783 9.404386206702126
C 1.9940021990891226 5.406194732436203 4.4292120201878165
C 6.222938796529149 2.2272366632401304 7.863337144941945
C 2.8239283700937325 6.540381061059999 4.592005871090893
C 9.367788160436055 6.7032570338634 4.818387803370378
C 0.7998864324264406 0.46546720959564697 0.8459446273337831
C 2.153352218727563 4.876386584535491 7.955209331200108
C 4.511738287247809 1.1952464384567223 3.9737968038793308
C 6.308539518801655 1.2619363376656845 5.507968747660271
C 1.7482672751880277 4.54596959110526 6.843842658968213
C 2.1052381354198597 2.219383506319741 3.9135066567432117
C 1.7724218649783154 4.279615239415125 5.456740274662207
C 1.3544844167530552 2.5043611925924423 2.6335956708898696
C 1.1439022127691711 1.6030711918274274 1.5884225505415446
C 1.9695419487517127 2.4495384902444646 9.673580536390087
C 3.881536660120604 6.80745128995713 2.2604958209825927
C 1.5755539993838281 4.929314078351438 3.19488682022424
C 8.285811576294492 6.976831006880098 4.033264867084834
C 5.764794612995707 2.956278237995533 8.773713474888966
