45
Energy = -347.95974346 eV
C 5.6323527387678025 9.329828440601949 4.451587590161061
C 4.56756395983731 8.501519089685253 4.9725805346098815
C 4.397993428909949 5.2667321756021 3.9558444399990598
C 4.893340722489655 9.398662681518775 8.125583418208153
C 8.211391691394594 8.528347886674899 8.67777651809533
C 6.108812153857089 10.208550916830854 3.4741327383934832
C 9.890128103559851 6.82717211918772 4.3733949411174695
C 5.996835641097009 6.507674358986057 5.402129988845267
C 4.367851026162224 7.516665684449816 3.9372968577065808
C 7.143767712275965 3.8742995092258896 8.591670707252666
C 9.222864331347397 7.746884539682807 3.8243806382067467
C 6.599781865527928 1.0320892986678 4.241847625879026
C 5.764169124475727 6.276480917346799 7.553228607636429
C 4.07154189465704 4.95601558662709 8.652958954211016
C 5.9382753997874795 3.596373585654882 7.8474127449386035
C 3.2358293529859283 6.024709162023885 8.169297647431142
C 7.239707259713156 3.588972897990284 7.232887442855371
C 7.012521141924326 9.272519607430786 3.984209873381544
C 6.943771055225964 7.053779187803755 7.327124120150226
C 9.073203601734578 5.018370561250861 6.013574019766418
C 7.840973396340513 4.634514386141109 6.372276015325638
C 7.555174413161611 0.20170117726989564 3.9947926511265357
C 8.212469643126477 8.600046508468937 4.321580880452099
C 6.7662812650179225 5.660320669044974 6.413967853370761
C 3.804038347976364 7.237696446604358 8.578880575583755
C 9.532148737023073 6.279217348492287 5.664298718882217
C 4.086172996064358 8.349320075290949 7.645786654564473
C 5.382462941678094 6.397380006454267 4.0020244248758585
C 8.435865905495994 5.988982540312963 8.773261504704893
C 3.5897077031540734 6.361871641993372 4.235801593799417
C 4.787509020980264 6.43352990461277 6.36516746538069
C 7.264877890099672 9.328211744610044 8.77075307618554
C 4.200864555925772 7.886119676065595 6.300886792959112
C 4.655889410205295 4.11968068090759 7.612464567980931
C 4.872609248508239 6.17509135233675 8.781332645635597
C 7.884368289396944 4.942471405804327 9.141287200544022
C 8.331073349652174 7.221511546373417 7.95086814308825
C 5.763783886131889 2.012117624438808 4.512253037589094
C 8.142283179357985 8.187411340542672 5.694464276524881
C 9.025990044045583 7.366685156184865 6.49957261575935
C 4.37341185553692 4.810309289859043 6.326883641918644
C 4.505768752066569 4.237540600430985 5.0105320910561675
C 5.981874022305065 9.72494341073423 8.636424071649767
C 5.040438652667521 2.998403647534125 4.805882593757192
C 6.898472449238967 7.619655719551788 6.036425430686073
