45
Energy = -359.98643126 eV
C 3.584288483806892 6.169989022008106 0.8769545422210909
C 2.2938681604043603 6.4627742521089635 1.4448008992740788
C 2.8337594938157538 3.905076261097668 1.6184837814068382
C 2.6503213268859676 5.1300080324787265 1.0229441781919741
C 4.053504114796819 6.963996626306184 2.8573608775820927
C 4.656702350187287 6.242401370979954 1.828036446901197
C 4.309422539440495 3.6168257190247814 2.086432756142305
C 5.375027589862489 2.4606557366769586 2.086749548843971
C 5.226719246799917 4.940162662779705 2.3957747106494405
C 2.5993636027667995 6.87624224457866 2.808208146221306
C 6.653531906558089 4.403586854752552 2.5452575663008012
C 1.873142334514719 3.383225940754117 2.5330418240171517
C 6.5892170025747125 2.973912940376122 2.589105921281642
C 4.92927956856433 1.4875683493659377 3.0889873054026147
C 2.127826083670766 2.150814503230601 3.2177078913133084
C 4.13377099612733 3.07316647495802 3.4720095600864695
C 3.495194515250647 1.5990388045791313 3.538446273566193
C 4.966491611356226 5.150164217531083 4.0112853858705435
C 6.814650390177556 2.5231895055341624 3.979941505603677
C 2.625886415339584 6.2221500972801085 4.092414865276717
C 5.788089291808405 1.5394360505153568 4.2915225104482255
C 7.26214411264574 4.886465785436785 3.7019460326494142
C 1.4802980925969287 3.937119601928333 3.9241779282194575
C 4.171872236755564 6.464302649335994 4.267051694790634
C 4.57880335504873 3.8217597414929645 4.549083139958523
C 1.5374929861536342 2.56333959793361 4.48284534625284
C 5.392156883527555 6.872344911983691 5.081375323464886
C 2.0014707037917496 5.0419952561319255 4.661982633459981
C 6.4221013485774705 5.859679405969343 4.459080362234648
C 3.5352136887543164 1.3676871155080084 4.993430195279774
C 7.18131260994769 3.7271632036087006 4.699757342170685
C 6.759870891208742 5.6677509077597135 5.88993891748727
C 2.480930618687975 2.221000103954939 5.503401211103682
C 2.498981710015537 4.65544764146746 6.024452703235383
C 5.814453636525501 6.58147302738603 6.440045916228724
C 4.658828726356957 3.077984828502611 5.987649729591497
C 4.852802329526906 1.6568126646918448 5.41240140197526
C 6.775885304271319 4.2635434263613545 6.011165033521389
C 3.1229437299068645 3.3000013876688032 6.087638522544149
C 2.795719502996637 5.293320592137644 7.18839693688857
C 5.158713490834337 6.182727740721085 7.6106485620073485
C 5.6392847110619035 3.8327957828857544 6.843225411469607
C 3.65852760761 4.791603371665253 8.289070857494659
C 3.716443273522891 6.140943371209365 7.905529922969032
C 5.120729948528008 4.715390740903788 7.797276901963266
