45
Energy = -361.42542019 eV
C 4.0289397101340585 5.430008015610267 1.1334458902204096
C 4.9517989528711714 4.3731375144853075 1.4314813193822935
C 2.6957981070349524 5.048792699350515 1.554444199696213
C 2.7998027394879026 3.675778991560412 2.0659592671116926
C 4.216532564951014 6.367502422522915 2.225298731144447
C 4.167213183205608 3.273341248568867 1.9825429564651562
C 6.218908754822293 4.579997237876746 2.1557540990583464
C 6.560136155095541 5.75344707241828 2.972292963126837
C 4.940702753053764 2.8952207655843116 3.2398702468227074
C 5.4198055466652715 6.669774732906038 3.0265969280123595
C 6.347792661995248 3.3902343055357704 2.9075630198257896
C 2.849427806894749 5.945930963554148 2.7605330720607038
C 2.0395414261642015 3.2263982154566313 3.1711384893334453
C 4.08134311497482 5.373791349871971 3.6352426712059303
C 4.656941938653444 4.155510843517124 4.095434327921595
C 4.994841616075984 7.253216075990403 4.307825526554995
C 3.798214577315189 6.340664600427507 4.738980769987287
C 7.254071981151259 5.565936058877195 4.301191571403381
C 2.3404455207273744 6.171683828353445 4.165839262665345
C 5.161769934409016 1.8870163005111316 4.436704587211658
C 7.190155106613688 3.0739770837166325 3.9648016012078946
C 1.694949496272235 3.706872591457983 4.362821006920456
C 4.965982740887989 4.333917255687 5.434338221654802
C 7.525676643728467 4.188637684888173 4.794054163238652
C 4.612407212967716 2.2472404116628195 5.766382474215584
C 7.0918465837100095 6.57697399509902 5.339920753585524
C 1.6597485231947307 5.174485064607022 4.830735903712879
C 5.869349722849029 7.461817139927005 5.329480929334509
C 5.667692502656571 3.2681996238562627 6.357531710749494
C 6.541747686672934 1.955009907984623 4.6007697253981785
C 4.247097756250514 5.533460228430611 5.979359776918139
C 2.168525568031661 3.3748430789355064 5.761018956807007
C 7.1450333369121015 3.8810490485892606 6.171562680194765
C 5.337456915391424 7.5749073328501995 6.694288231450778
C 7.304096050901655 6.27788084029994 6.724905266383874
C 3.3960576847823605 2.8102199406647475 6.332676521493425
C 2.0328002655687256 4.724171230437842 6.188282566670662
C 3.1504322990115288 5.109497001139412 7.065463415037258
C 3.7672376784982857 3.752414277426576 7.431676247380922
C 4.322913333492613 6.322013562483649 7.23340125003963
C 5.152191879425031 3.7438443601279645 7.649707959713349
C 5.9906940617822295 4.803942550878118 8.048380829707988
C 6.29086905838948 7.009296339714592 7.536782588706662
C 7.159349316917329 4.896660584608628 7.130910059672122
C 5.444918931007799 6.074545023147038 8.215866662195147
