45
Energy = -366.92639771 eV
C 4.970813501502512 5.463502391051622 1.30887512731269
C 5.187307175438234 3.005336134631658 1.4869256837713463
C 3.563253561019084 5.454986805370597 1.696978677236243
C 2.941562160072017 4.259466840803991 2.118603272044427
C 5.77301804628359 4.281718605558476 1.4634887683929372
C 3.674466286120422 2.9518126800623143 1.898303135700947
C 5.604056257788889 6.4318808321294805 2.149715122081645
C 3.3472705521419197 6.644503756251802 2.6580805606251268
C 6.711011649940579 4.468794980856978 2.6218960163153238
C 2.8064039450589844 4.4552118632773485 3.6806775301792154
C 5.792458151510314 2.3306689718693496 2.6882183952077856
C 3.4112333867100575 1.6699472363043097 2.7596906751785544
C 4.663075379559065 7.109311366477048 2.9645457360040517
C 6.620802318256399 5.860155193104227 2.9906830420346924
C 1.9105671204387562 7.049333206355811 3.4735142252912454
C 1.519066995244212 2.6002213390530144 4.193140822063606
C 2.673719320029501 5.908306570294789 3.7965898961987152
C 4.196413044228882 3.9373924232154023 4.124654166328341
C 4.813739592635536 1.415502626053375 3.3200413153904766
C 6.787584431949354 3.219009459778371 3.387530917493401
C 4.507773794040725 3.0598429219370447 3.131551070270037
C 2.5401421318474307 1.6836544385902388 3.92892622869973
C 1.679080353937052 3.831456720030218 4.63780216481456
C 5.0881490567335215 3.7478624670840794 5.237536784956718
C 5.159749483864988 7.248360776339365 4.306233117699636
C 4.760617304780406 1.272335184973265 4.737236969010614
C 3.3928356947734306 1.5490848880877668 5.119751781414962
C 2.8213294145087815 6.691488790080523 5.036319756298199
C 3.3630866493162204 2.405030894837904 6.284374289966019
C 6.620980013219266 3.112227201075198 4.865178178378051
C 6.390626931042715 6.4396348694484375 4.328926669215682
C 4.213218804544055 7.0951638952782705 5.354533631179163
C 6.528453121796805 4.327116448941407 5.729056545908903
C 6.676603278055169 5.804761113739641 5.517566882563627
C 4.792879298932698 2.775211539364978 6.501090399183172
C 6.053603312206529 4.63465973943433 7.184180358217544
C 1.8415482083755217 4.440248641902571 5.95260962796785
C 5.678138016523782 2.1002492898733314 5.500126444252418
C 2.382702224823307 5.770020793153038 6.113427909226854
C 4.571963881607233 6.532626869175801 6.631466557777445
C 2.649988385671356 3.5402081281219107 6.797386592218002
C 5.88786071356541 5.9876126461925026 6.737776078163861
C 3.4524920326619886 5.738667190442523 7.090828008592734
C 4.923131413510814 3.8605831720108 7.507486996352889
C 3.61602379183861 4.395628285490841 7.547274060927491
