45
Energy = -355.44533825 eV
C 5.437788017576711 6.414749033756036 4.498129457511542
C 7.653196233968898 5.42917954738522 3.0686945550953704
C 1.5322618086822288 2.404690505570603 6.142935634820531
C 7.787424900198901 9.229271613541302 5.379288946121374
C 3.4441238928627533 2.5356060298487684 4.517342891040203
C 6.439346304049652 4.730449418700136 3.000326997414493
C 7.492385369096284 2.9146876884735984 7.651608047287215
C 8.819903746357383 7.493468799503704 3.950792548430124
C 0.4434385634234461 4.766673281281147 1.9408866281281536
C 6.383842327581852 2.660623347725938 6.983969060153568
C 6.504159944089317 9.596398870457191 4.875286742876075
C 3.5700550593368465 8.827879066598657 3.0572473317279645
C 6.245809847906733 3.4453310986792345 2.359935167053848
C 1.182791597804319 5.969129271160316 2.0876757784032955
C 4.983981234112246 4.1845122807945145 9.867010481327828
C 1.816902986961899 3.314543594867867 8.285781976672826
C 4.525579114518189 9.593941023193372 3.4889617131296804
C 6.3251384842996305 1.2382623878622538 1.3078969691841038
C 5.134355735361869 2.5916575641848403 2.6546977187651004
C 5.7264469150945985 7.267490817791335 5.338613548836159
C 7.390914460952995 4.025686529662382 9.755954054782336
C 1.6290553035400743 4.569577300160461 2.650066574674212
C 7.948349640848883 3.461864485405641 8.69894963475025
C 0.9020901529366457 2.7380793109243253 7.182334924764551
C 5.309614835642573 5.304340053037376 3.648444653358065
C 5.262404014644806 1.3164451520223632 2.033583682245151
C 8.75675667815733 8.561769816716991 4.580155005827085
C 0.5161440647979012 3.2171928326547876 8.492070233791804
C 7.4938960002487205 1.7052459687228156 0.7501486405575756
C 4.106933063869299 3.135721695271223 3.545015167534142
C 2.3632399135201343 6.562484667763071 2.7518237830088434
C 2.8636957764770026 7.8026414529529085 2.8340917839189768
C 6.255053195267571 4.335910796626628 10.215133066709045
C 5.15022068281911 2.6430063069042964 6.759497012261857
C 2.88107629487238 2.5359284847225396 5.731533538508146
C 3.8047507706540777 2.8171125112001336 6.907360109179173
C 6.318397645326377 8.435618055318612 5.840572485487218
C 3.9815770252740736 3.8636010589746745 9.193405032115777
C 7.075737343907491 2.7003683798476534 1.513294850028127
C 3.2320449199010532 3.358666497889581 8.152868234841499
C 4.018629370167795 4.631533321952355 3.483234974005805
C 8.429262444139361 6.33708470206205 3.3854711908813893
C 7.398023265808398 8.708463109100624 6.734476677157684
C 5.638737220781622 10.023260371902118 3.947471199675201
C 2.833892451267966 5.2516877556224015 3.181188594023329
