45
Energy = -360.04226929 eV
C 2.0134584297367937 4.729644943793016 0.0823255105673803
C 0.9317868391840622 4.110779492540459 0.9776073740212028
C 3.1227112939698642 2.8004862197157814 1.0785414740541246
C 2.0317816134534943 3.397154960911507 0.4371614217188462
C 2.119286506310054 5.644758265403519 2.048149723179633
C 4.296288610321475 4.980645280250756 1.3527107268320828
C 2.923129799888128 5.462242748521156 0.895052099160396
C 4.430796284023244 3.5038822191916035 1.2620610216462003
C 1.0770609454907818 4.690835664531631 2.2942491163263807
C 2.9691545405639737 1.8573081297032508 2.1170057100609574
C 5.241639525082996 2.5770909571397764 2.1084676345617224
C 6.162882331299391 2.744427270051446 3.2066790016123985
C 4.978020379668259 5.803558527948177 2.3678891299793174
C 4.106542361794944 6.6265034315474916 3.2403924618724034
C 4.318907963090925 1.4701597604917176 2.4843058042999844
C 3.4596888530515133 4.564418390897078 3.660686097681257
C 2.7862689617291334 5.909636747681219 3.2894674152510515
C 5.911151377852972 5.255863325092169 3.4579740236590375
C 6.692492780862072 3.9988986727244384 3.7931191300533955
C 4.419551880193269 1.0184629048374931 3.802299230083855
C 5.546762192701988 1.911075157750553 4.295511542838942
C 2.2822240629391977 2.03798329374075 3.5028330636731693
C 1.8406616746789386 5.474760470961064 4.408468556076388
C 5.99853105076341 6.230884654248871 4.586248305411121
C 4.626855485660615 6.791501158600319 4.571062503971838
C 4.665382561178419 4.4676614526952525 4.4328605279171125
C 4.438609859334312 3.03131212652627 4.558420360715897
C 1.0468663293767875 4.402628601782629 3.764636922304517
C 1.3948059231800933 3.085364775902967 4.330990738613238
C 3.079305210392387 1.1440487968390585 4.472327107917886
C 3.255990768883684 3.206273852210811 3.7300123401336034
C 6.9622681447540185 4.130359429010942 5.217596094485639
C 5.776701780013498 2.100786100390214 5.753752759458465
C 4.840691421771148 5.037625073087259 5.943668235445162
C 3.882663329359544 6.1280608867213475 5.624628974443921
C 6.321304499148779 5.383428881418462 5.6867211403992695
C 2.5761329940821804 5.422231946771129 5.643606246137639
C 6.678257437692641 3.0585532617429663 6.2317202496985535
C 2.074745322790706 2.991634665026443 5.658986210764119
C 3.0053178082744343 1.8212156440891836 5.719977386356407
C 4.3067528123017915 2.518795467152989 6.024078105365857
C 4.133936558444658 3.8869238934302017 6.792858714807987
C 6.260125492337602 3.4724643652020775 7.5608377006037495
C 2.6506699285153266 4.148974169762105 6.322345312951995
C 5.093602479380168 3.700460367486632 7.94147319841027
