45
Energy = -349.59654195 eV
C 4.57775356140075 4.9163037120928585 1.638103585591834
C 4.212596942527422 1.8076801718927724 1.911158845105216
C 3.076437442887297 4.947577783248156 1.5986121815291225
C 2.256030582512602 3.6527665921212025 2.3303788592158177
C 5.711330074044557 3.775777850453659 1.5690703244021031
C 2.6661521954660117 6.219265933571932 2.4740934312290226
C 5.053588550035851 6.267384204032194 2.24789210921113
C 5.574163010466317 2.3015666236675765 2.061298133449617
C 6.662190279914475 4.520643396455034 2.5473931449422826
C 1.123402934004472 2.9804531561387204 3.1441799117961304
C 5.205085800935272 4.328333566133351 2.8537335302407696
C 3.957641393629176 6.858405757932566 2.9496296104518325
C 3.088818130652272 1.162105446658512 2.9452646989351066
C 3.3130688503264194 2.668544442127114 2.611027053496099
C 1.5042965634894427 5.796642760767339 3.16864480515793
C 6.509358289549812 2.230366818721422 3.23029233597215
C 6.37093086049359 6.025183842315188 2.828448426440337
C 2.6322303337455644 4.802068662903675 3.1452507462475854
C 7.066968877866836 3.5026918502562197 3.5338313727527266
C 1.5663793593799258 1.6707529350174086 3.588733259724707
C 0.7518523328316367 3.815170741861574 4.287860761351258
C 0.9499089145377754 5.251412173461079 4.406690202345167
C 6.600692292681522 6.414802647807703 4.167396449167608
C 3.434259829663118 4.718449546426041 4.405235437398582
C 3.8515663542475527 2.7850806439328917 4.072895013415682
C 7.392360676098369 5.483023814842029 4.926837178830948
C 4.109644544963298 6.899623797051363 4.423324036588093
C 2.6751551846782355 0.9586580455363498 5.63656091061109
C 4.023821306758376 1.3397246961730491 4.094490124241006
C 5.384100878087749 6.681609160158043 4.967686238859092
C 6.187294282757264 1.8996653881004786 4.6776490253927445
C 1.6224982411744349 1.6434932860824891 5.064980095517216
C 4.809002924099454 3.9171483273264442 4.151105066340591
C 6.27167811190019 3.511272631667261 4.893718350576897
C 1.466656107154615 3.1828114485479366 5.406800232880979
C 3.0103813818295158 3.492997149471192 5.163338503194765
C 1.6995910237414504 5.528082997847367 5.614094035060901
C 5.369877578824234 5.65032583194867 6.045521848212708
C 3.959949914212617 0.797434429121051 5.683161552959238
C 6.540468928736864 4.769973873672098 5.761045557004414
C 3.193444177963404 5.978461761343765 5.303098879277785
C 4.06690844539317 5.326891789871329 6.364120248006705
C 5.1590056505181705 0.9866263253069166 4.9507408373316855
C 1.8678697402006217 4.305987768137262 6.396096274006185
C 3.310590970453083 4.063760044632385 6.5955206023713
