45
Energy = -354.52056936 eV
C 3.842407733024341 1.1684787660986806 1.508572193563191
C 5.031556251872209 3.147940519162139 2.8091689390770376
C 4.016469957125532 5.433096480157665 2.278771191700439
C 5.560018034403324 7.280234652573261 2.4900005802572136
C 5.209808201447563 4.547732704039403 2.257806091320546
C 6.656984519897632 6.38802028366284 2.4834755121918457
C 6.514711037209694 5.015262441362104 2.667650426151997
C 1.3300375561139057 2.7307511334553562 2.620927030760001
C 2.645377300007126 5.070155759650389 3.0746986164434014
C 2.9364933729541747 1.0702767120836199 2.694426486360814
C 4.248753138892355 2.2727807877912034 1.9762683718275538
C 6.01548743100791 2.2234040965440625 3.5641087057631604
C 1.6415479612473869 3.8513066870893096 3.292628366929553
C 4.244283671530206 6.813985981303157 2.6549252076756944
C 1.6097442359023855 1.4898402475699517 2.556245031470265
C 2.2511771241896628 6.343436033139413 3.8962040548303327
C 3.3650428504029817 7.233148598864783 3.76611740834776
C 3.3082115567464645 4.455325238495769 4.260369489444789
C 3.5806474880825285 1.2641316582270656 3.9857412096306364
C 6.5816952267608935 7.38810950842853 3.514275129344708
C 7.085945302243234 4.433295282358391 3.9796518817637434
C 4.5676380561492005 3.7776347228952853 4.250529758531752
C 6.860873276682907 3.095040786194476 4.42423553777869
C 5.153469174832821 1.302314298328746 4.257116614420203
C 6.452565496425623 7.009674147126801 4.819759724406221
C 3.893095281668797 5.293033077119706 5.351398335825277
C 2.148448499817642 3.577383533227443 4.727114140354297
C 1.950180464485435 6.0033003856430405 5.361191800905829
C 4.211450563990982 2.7922735639191023 5.404856149253316
C 2.985827819776625 2.2086478855595533 4.899403615112735
C 6.662945138312045 5.512605643408689 5.021108394955255
C 3.9719523031367197 7.531782593375735 5.105012407225999
C 5.324133996871211 1.7461011219268023 5.701186723960628
C 6.394240612988294 2.7987656279613735 5.803710773755069
C 5.3008401169760315 7.3264652285037455 5.656260001208439
C 5.174736740145143 5.001677934981496 4.841311376937678
C 3.150627780353926 6.654650807821103 5.9366784621624555
C 1.9838786970777795 4.630207978236569 5.915677130527545
C 5.844642357002088 3.798938216744922 6.6433431189068886
C 4.2392780986641885 1.8503669867205588 6.755634185849459
C 3.370642640013682 4.570447115025151 6.753125276391852
C 5.27656032026302 6.344554048814725 6.802562880774614
C 6.128295386374416 5.188237891976419 6.384989164740314
C 4.366355676820433 3.3953116299374804 6.842664003934175
C 3.902031409465319 5.960981061850198 7.000208356584872
