45
Energy = -362.75768392 eV
C 4.230466259049059 6.195695959969577 2.2525290818370207
C 2.04286799979699 5.1464548014737455 2.3063906543629367
C 6.097138903092445 1.6418994967024876 2.164602263876924
C 6.498170983977859 3.9199285451124233 2.655652010433403
C 4.270384002319583 4.805285367405902 1.6697316859662528
C 4.995105459371335 2.476108105227961 1.6883803274050857
C 5.3479823183760615 3.886012627422989 1.620603676289448
C 2.9578620388146164 4.170055526277655 1.8245032356782844
C 2.8158170656725847 6.376689769185303 2.661494170462173
C 6.843984799078038 2.5027865951357593 2.9514888022800885
C 2.711840688719164 2.895431585769993 2.5256317621913498
C 5.568939701333834 0.47933210529516496 2.844567178773708
C 1.244712576951419 4.5260909408441465 3.4463303299758716
C 5.086732192282487 6.70464831167014 3.267083161355344
C 3.7895735632912606 1.9877552265001692 2.3478093123923665
C 1.705314256497742 3.1445885408201932 3.56656038734946
C 7.161117159261941 4.721427846639215 3.82363641694272
C 2.541915677239702 5.26180436115348 3.8671466081584596
C 5.672141549336307 4.504395490921003 3.783925164203154
C 6.229716172769301 5.91967015039311 3.9608340926791925
C 2.239074551132372 6.695476123234501 3.92137838676257
C 7.045675604761177 2.382066399691433 4.384866219577517
C 4.246841518771078 0.8364777681428178 3.1159898649393196
C 0.9171231233236607 4.641912117889572 4.983030935455305
C 1.53090389631521 3.3084662998136154 5.095670975020002
C 4.769874307398938 7.281603149597194 4.621052061932978
C 7.287042031207677 3.6661417857124947 4.967010922837339
C 5.2049495520023985 0.7880765313219474 4.224728826362272
C 5.8276806381805155 1.738143338251923 4.985065323831294
C 5.9022094709019735 6.637435576469757 5.216786110694398
C 2.3145733001518884 6.920733583210578 5.290581753393129
C 4.72065142578957 3.9105707735066546 4.6408847717364194
C 1.5719438569055038 5.663222661130033 5.844130349736084
C 3.6712729175214722 7.236548548047842 5.652718853853518
C 3.465943863069587 4.377677533953501 4.7331691030480805
C 2.7472053551941 3.6669789986754164 5.978772995989859
C 6.407503941204716 3.789612280385076 6.130524341116171
C 5.230029235488747 2.8875386090045745 5.766552718323465
C 5.6246010951161995 6.1710430931954114 6.517183399345831
C 4.2364887252784245 6.571357851599859 6.798101761348467
C 4.06315113842943 3.1891902161836096 6.672516323498011
C 2.380173894949155 4.944840952607514 6.735603221760667
C 5.835763770865665 4.799521659383228 6.914090396319051
C 3.5548442650765315 5.423957392055521 7.332720817774517
C 4.511967308990842 4.324617558274536 7.3672413979887
