45
Energy = -336.78852602 eV
C 4.381095250019565 5.717201299688818 1.6116110366734837
C 5.502179534059115 4.88886369278899 1.3062364915078342
C 5.341161358549381 3.3855605045593102 1.5837922413266143
C 3.0027363522366106 5.197320388049804 2.1020817489536445
C 6.807562115819725 5.336653059140964 2.0896317630517256
C 2.7567791854252865 3.710716504786418 2.2728185661181586
C 7.4262521222827145 4.17804971936794 2.730251486415664
C 4.0640140080793525 2.7985240198440082 2.2984302982844373
C 4.871563094576146 6.417312188093346 2.896722710576485
C 6.705506008099817 2.7768426128917527 2.4368791225674205
C 5.876514575694398 3.8380812626802125 2.811005801742606
C 6.367726785718872 6.386257026111455 3.069881583348383
C 2.2042192319562774 3.594386133992464 3.713086934180298
C 2.4970062425987773 5.990608611304913 3.141363457138331
C 4.612835649724034 1.7196687495464689 3.3096301747108305
C 1.7613273034912733 4.948671352033208 4.1671782478001855
C 2.691833767905361 7.416043458745763 3.5783086132921276
C 3.758781354806927 3.7742874569556295 3.6157163307312565
C 5.998721915157459 1.8834855794167387 3.556334764610932
C 7.425317087327638 4.200601704892372 4.2487130347928925
C 4.299483686431962 5.153467592853004 3.8211848452283803
C 5.7877534530922485 4.328501462802311 4.119458410647328
C 1.8020952291886676 2.6155152324701754 4.903950371896985
C 3.772470788329803 7.299200516333186 4.338777216796395
C 6.617698117691626 6.149343744217887 4.647114333063665
C 4.255267942456041 1.7876522671632045 4.768233371753627
C 7.639655488320471 5.158041059034471 5.325953475483118
C 5.693206690778544 2.1881078464275596 5.095817265811581
C 4.196041515235195 5.135652400518868 5.328913833667699
C 5.054623949177934 3.7366356939846197 5.1613733727782725
C 1.0919046181537349 5.049487359381702 5.598663268180589
C 3.0187126919133296 2.072978419582898 5.597748813194929
C 1.240553452667086 3.5590545239140927 5.900233482858321
C 2.5355089529797747 4.522291880668645 5.740013076845963
C 4.281753672094336 6.93756857998772 5.739524750464303
C 6.904849446381296 4.577709338773002 6.461592932732923
C 5.591817021614963 6.389091469244442 5.741658568467235
C 3.3204773054283474 2.8896309750452867 6.817733657035254
C 5.982620109543437 3.2834616411523814 6.30311686497163
C 3.5562614232527405 5.969098488611341 6.7759426032101615
C 4.664306408920715 3.519731679209112 7.172586477413232
C 2.111265612825872 5.35355231504148 6.789100419424253
C 2.120565980068325 3.7472549322033597 7.127223843956814
C 4.664381822138437 5.049346126591034 7.4129200077204525
C 5.8892837324138325 5.514181184526068 6.917182383201176
