46
Energy = -371.08263709 eV
C 0.4288250032969016 3.8778331774028154 4.3453362552255195
C 5.362265096338643 2.164388971643594 0.751232059333874
C 2.0536843758080607 0.3064732254482386 1.706720895325738
C 6.0846128003618105 0.4737202778902686 4.029013051280813
C 2.0607606962294414 4.382501020859342 0.04123689449721073
C 0.5631798963926683 2.6071519190960104 5.014090600892381
C 3.504973914839276 6.071604686248354 1.4958051499646474
C 3.0263679224582263 0.4006792700732097 4.770144770783523
C 3.302219028122785 6.235207648803052 2.191198615395357
C 1.9369501327616567 1.1103973039900479 5.297972815575904
C 1.3870537936241196 5.570715945166506 2.9431284797958286
C 0.3020475033800316 3.480469095856061 1.8156447397317441
C 5.343657794967086 4.434232657830617 4.091805560727662
C 2.106035773007173 6.022044387826676 1.8522972938137072
C 3.7678923111598337 0.17078783966459493 0.8446095237692675
C 3.6846497460633003 3.0178864327424972 2.921484559560989
C 2.046340313013622 5.6051113380781405 4.23287496724863
C 2.646752162756605 2.4222543575616804 2.6275550365372538
C 4.5624448676750315 5.517280810039697 3.652551940453571
C 2.848679175726962 1.7877131392991816 6.313949708553855
C 5.1493952647565955 2.5104910426311315 5.480424519600043
C 3.6368347403823105 4.512967209621138 5.577838085347914
C 4.8861210186259765 3.8575482219884476 5.353941183198524
C 5.49119856059307 3.55025318216149 0.641568324635639
C 2.4087725685559715 0.47027176117653 0.3338813935358609
C 1.6040844259710278 1.5820861250432345 2.211543765141379
C 1.0501829360556338 3.6154367747823346 0.5942521225486359
C 4.241161758925218 1.4199439209995808 0.26659540517124014
C 6.072307304889434 1.2003107527692987 2.9649384128850573
C 1.401828302668452 4.659243458862529 5.0477176334111356
C 5.39153890692593 1.5811560533211204 4.463068406661256
C 1.8355458668455664 2.5656904722866916 5.740842974708788
C 3.609319829325249 6.383603772715651 3.5401750122240285
C 4.591450683636826 5.558328696979198 2.1813266240048432
C 5.2440645583015915 4.323571447232519 1.7090573915564704
C 0.5177007960658596 1.1957643141924688 4.821183031444482
C 2.095062284423176 2.957747899265177 6.324741822651898
C 2.5315985967869845 5.554530906804114 0.5948419509646437
C 4.415711846788435 0.5623911581114858 4.45747859334615
C 5.09542934293249 3.44999348221408 2.9943985075915216
C 0.25734098084728757 2.0278347726539128 2.122906406818317
C 0.4601510005756521 4.367123846013047 2.947747392090403
C 3.448209716966291 5.576046368371168 4.575689778882417
C 6.072307304889435 1.5773611761074304 1.8811666811417826
C 2.3538505053710566 3.8667924351703493 5.820914014084038
C 5.793419212083757 2.089037865176568 3.087088270058858
