46
Energy = -377.28548542 eV
C 2.2026217071281855 0.5925690668148613 4.601492282639899
C 6.714249523350501 3.949955253977792 2.6284136732048435
C 4.638863663225632 0.7466461153770975 1.173519891264819
C 4.972613103116936 6.131490784208835 1.2081808975213226
C 6.338538185367638 6.018473607135266 3.4813434286009817
C 1.3626152421849274 0.6590902557472806 3.9498615994609847
C 4.759799221585019 1.5945526291167769 0.1115032715838476
C 1.8609879259074638 2.0018106836125287 3.9730879425263144
C 1.686762482831394 6.163445228251163 4.7723193141935605
C 1.2193822848370806 4.851402225179651 0.06927355075272798
C 3.2664011544176144 0.7875941778329477 2.5389759871605997
C 2.1121200931425577 5.43508955769355 2.644996578773437
C 4.8597982678013203E-4 1.5021062864693284 4.038838557210665
C 3.022277210039891 2.096916826116344 3.0919059143252037
C 2.769031652625532 1.4272752657638603 5.712534667273194
C 6.400714260689705 5.081299964488819 5.163997919657907
C 5.95522412385133 1.5273235402021281 3.4073550196602156
C 1.7428783746214975 4.741504949342902 1.3774783682501581
C 6.453819264034195 2.841136344705323 3.518134398912059
C 3.804546254989289 5.899411970005102 0.9512688393525478
C 1.388417818847209 1.6644652832470108 4.166620313557605
C 5.339050543600014 6.277748498951509 2.602096791066732
C 2.445849316994461 4.320003184959978 2.826672065585811
C 1.1652106015201695 4.269554587052821 3.2934051015241192
C 3.3319844956073665 3.413438401568857 2.7441819009041697
C 2.1898785693297445 5.480338638093114 5.966938901858122
C 6.639317466152224 3.9398630440046762 1.257904468773871
C 0.48360883986193204 2.968913084348176 5.8287150843580875
C 3.474978004853075 0.7133103169892172 6.652927790366233
C 3.8064928828076376 0.41749348447861506 1.277720551459525
C 0.17317118529920883 3.6173246431996784 0.13295058525482834
C 0.9586673761923015 3.051340295011788 4.038838557210666
C 6.720983082059804 4.808611622145002 6.524497546863459
C 6.340221498623582 0.19010380125164014 4.057535094554902
C 0.3204490627891468 5.9354843285791326 4.345341673828201
C 5.42682020375167 5.417656592313541 0.12287561817997933
C 3.355071208341499 6.087169475707207 6.493328423809738
C 6.278680938920301 2.2743253646136528 5.0947530457749135
C 1.7446442738146368 2.5078771129115784 5.293338901578186
C 5.192681800516065 1.498089567696214 5.678980727297875
C 5.007985645952775 0.8544479525657885 2.584652959137051
C 6.846000451527063 0.4109122676181947 3.8934845276100254
C 3.0624272554324317 5.006653019644987 1.7250429867521124
C 2.278137725435295 6.734095795098795 3.1967162681333603
C 5.210423582550708 5.820864017450619 5.603033110674195
C 5.199040912317983 0.18665185369907644 4.972943609617961
