46
Energy = -358.76991442 eV
C 4.025103403185525 3.506779664780418 0.5098006788190109
C 4.099251244726382 4.8827720240127395 0.762515874320359
C 4.773592501792294 2.666066737951772 1.2969247689221441
C 2.1105933544634117 4.82944993099277 1.5458419170250242
C 5.973220193284916 3.1910144969851775 1.9340444764286102
C 1.4793126293750645 1.072077247081585 1.5871783678696507
C 2.9053431587170295 4.128100435890516 0.7512953516166666
C 2.8639876638142345 1.2936147843859793 1.5655892529948374
C 4.130145842910104 1.4912472477634036 1.8296735888182154
C 3.0593613011657634 5.459194299615791 2.5931596650112514
C 5.510137056445486 5.863221026717614 2.4880266164052487
C 6.055787670080632 4.398622788394395 2.6877885787848834
C 3.4982095709110026 4.2119149084441725 3.2855474887320035
C 6.690314149788281 2.2656105308350787 2.6584513788858586
C 2.5521381703697923 6.548463903050002 3.4964417195000426
C 4.308023251614594 0.9492194640659023 3.1923448132585173
C 0.7871798271242502 5.139282111091774 4.082368537421019
C 2.181392702380305 1.103069441622817 2.8229251620493137
C 6.825996474915394 6.4842729822545495 4.4342863404735935
C 5.8200522034252 6.815052611465634 3.3502989707485504
C 4.231125637131841 5.7651419626070775 1.801470183717588
C 1.0651754967454026 3.8444620468569277 4.211600890712887
C 7.376707421525824 4.5641879088215465 3.1923448132585177
C 4.645962248087833 7.313231087706061 4.079086758292018
C 3.18096320912084 0.9831655404262889 3.694810913920659
C 4.832519528468491 4.136951744777033 3.6340224494981364
C 1.266114293781958 3.318380413079613 5.533385201642464
C 5.332363537811664 1.1004346089071009 4.087913951884974
C 6.526910994369776 1.5253840286026443 3.531921408318235
C 0.28399478319357657 5.439678078933118 4.03139589652473
C 1.7193519994793758 6.002017590877968 4.554386811033753
C 4.646225339513739 1.4139312402128592 5.34293005926737
C 2.625422929339854 2.8070165206288253 5.154497690864971
C 6.182980720369894 6.550782132098083 5.653313377430258
C 5.120185940731978 4.130519049757431 4.912748898328524
C 2.518315952075645 3.4106468652929345 3.8467306922192215
C 3.520937189357864 0.050708793319977616 3.685899538594324
C 2.645664679521966 5.368143812670044 5.748428665588136
C 5.383233478852766 2.376404288357149 0.5098006788190126
C 5.066781055858097 2.07282966982547 6.546315726256444
C 3.4015827228274915 1.5583514667101304 5.008841316316306
C 2.272678290339022 3.985533783275661 6.074710174632466
C 3.8793387185667574 5.700754103788427 5.996394693132113
C 4.979652244011251 3.3865427380504274 6.972369838307135
C 4.786281829164591 6.699817038213112 5.459351063077562
C 4.738871749903616 4.420967616588412 6.1641535655010244
