47
Energy = -381.78295126 eV
C 2.5156310086759026 3.2434947885055565 6.015464544595515
C 1.6998839644141406 3.695512131228493 7.272395058307518
C 0.3308040730705659 1.6673720972723447 7.078178574465671
C 2.8740394952873136 2.522017584345346 7.013430272749155
C 0.451267378455339 2.977470577048806 0.04747557799141507
C 4.7607545486467 4.341503879349429 1.2270303788834718
C 3.1642706139565435 1.7300351270440024 0.6066112872736408
C 2.201769374827807 4.649766461723037 0.6544066861166136
C 5.133148815576418 2.9303377069396532 1.1710264241282216
C 4.559483671608982 1.6447473974132332 0.961604727848616
C 0.7484932072833187 0.4563896978134073 7.050056494754405
C 2.4574293218581453 6.482973047648543 0.6490413394640746
C 2.237946630843087 5.713554710952603 2.692327584660975
C 6.281516120837071 2.434595335296921 1.742040888704683
C 3.6118694250352905 5.156529627614876 0.9720734168860854
C 4.13152279968409 7.197335132087579 2.4978074798658043
C 7.283620376206713 3.2745646666434465 1.2888618272595642
C 4.877365100768308 0.8197379262896755 2.077800267810177
C 1.4420975890705203 4.9303129337815585 1.834954050975915
C 3.416906174315278 6.173794541341878 2.004506017029137
C 5.600829542064579 2.9482912643989123 2.569989690752696
C 5.418201852182191 4.336107991896655 2.633929426874146
C 1.460221146145826 6.973565363910249 7.47691150776361
C 2.2280322623978583 1.38594691431719 1.5644405020636143
C 6.326967823224439 1.6637989631424337 2.7256800824719694
C 0.45658578035316416 4.041630090512017 2.3333030202213116
C 3.3434103947067273 6.4906483562246 1.5784598356888995
C 4.357936727911735 6.482973047648543 3.0328474581536597
C 5.211634369688388 1.7222812354800077 3.1831274142354236
C 0.7790300148933049 0.3848051719712633 3.509022109928915
C 1.5181914171468915 0.8280330262031319 2.4343099031473168
C 7.163466748631625 1.3313490057114232 3.739182858473709
C 2.3341035914690784 2.8652622325726083 5.2042775284001
C 2.591647964176398 5.187199550484746 3.995902588940376
C 5.130961360313457 5.369712097932558 3.5162630435599223
C 1.4626771902287004 7.431570450406389 4.6705318982085355
C 3.9065166578894877 7.451704910359746 3.902757565505838
C 0.16039860265771003 2.474584054452153 4.473601144714223
C 0.6551077305016473 3.6478109992584624 3.7285347856959685
C 2.8723625622781443 7.106562897676457 4.806029934792816
C 3.9233419599995534 5.70439828707076 4.1742601805792905
C 4.406910389126823 1.2836502225207729 4.27278185615121
C 1.0859780796900083 2.1378096234701 5.480955607636107
C 1.3338651003051378 0.7742453759422699 5.861696449029964
C 2.753376183156748 0.6758353511920449 5.7429778243460925
C 1.9248141747495833 4.01553221378621 4.391753447392837
C 3.4171404193796326 1.8645198419968398 5.221805287983609
