47
Energy = -375.37111647 eV
C 3.788499813171238 5.468164684526738 1.5222071165728397
C 4.541251089468078 1.5911422405155191 1.0673336859128713
C 4.804464043859832 3.081057036638327 1.4292882622091148
C 2.40803853180602 3.479507250211867 1.9525735882743327
C 3.6911313286450804 4.0939331841130535 1.2467871349929012
C 5.70964278208085 1.2624036634087796 1.8616094442962448
C 4.908897417549032 6.2303903133516805 2.384271689563249
C 3.7521043055952066 1.408603559353736 2.3831528806661346
C 6.174469354737007 2.6353999147441334 2.0480114026024014
C 2.5774510956751575 5.750244831029417 2.410108652457959
C 2.411655126123552 2.1060843435033316 2.6349429028542763
C 1.77205242428765 4.55286932572497 2.6358986317101625
C 6.261347548115326 5.73597876957681 3.0427676655087676
C 4.245296644007307 2.801880719080329 2.812809920695521
C 4.988254133440617 0.8220966144018123 3.0631840755179414
C 4.129656783210526 7.275886005697474 3.357549609842823
C 4.330055902776862 4.827081577321487 4.273434122901816
C 6.624478627566839 3.1028953213520456 3.343523194290119
C 2.675490411659281 6.872192793452665 3.3494326279112534
C 6.715824473685181 6.591417981747589 4.06947089539916
C 6.504299211578312 4.437206882691857 3.7092518993403134
C 3.8628400307311996 5.744007005549997 3.344229314234031
C 1.1888592732319792 4.4121514029081945 3.929982361997533
C 4.110930012198012 3.4901154065415567 4.002761818615869
C 6.346120523363057 2.2557161551230864 4.539994975907207
C 5.835982845771459 7.113244112743849 5.013456702052341
C 5.412362950752539 1.1536359402414362 4.3991692886859495
C 1.9172219997904298 2.01732605474953 3.9718080803688958
C 1.1442149736059986 3.0989680472737278 4.5256565346317155
C 2.250874227483436 6.597971077759243 4.766445915822818
C 4.500075666573666 7.491467134775802 4.7743902121013555
C 3.775829354123833 2.7843185798571546 5.15721851692114
C 1.4936041803640911 5.408649106963757 4.99420211918728
C 6.303770917393355 4.543167295684702 5.346254025384396
C 4.408749906929803 1.3342558830867866 5.420881587177414
C 4.9642558285486755 5.164622367257958 5.495996178629849
C 4.904997504229126 2.530076833437485 6.332094195909171
C 6.154233522883066 3.0437854092500953 5.738018978495221
C 2.8534717726029086 1.5728054042374424 5.183310332730118
C 6.859702944392272 6.092662519001516 5.430384738610958
C 3.4270668410723504 6.877478645309742 5.582472504328851
C 3.9219000488758313 5.755073801967843 6.362806570977885
C 1.3608642600995895 3.255219372666505 5.949129049946424
C 3.082131420870753 4.67661230074691 6.736607143259703
C 1.7468431086430711 4.625359961662192 6.185808189415098
C 3.586765553393263 3.253354110832435 6.656027772843076
C 2.368380734953661 2.3779305098453816 6.359694940161697
