47
Energy = -375.61263613 eV
C 3.7814514224157474 4.179719509088697 3.714356083584136
C 6.963728212268031 5.19570974523776 2.94767004045385
C 5.652271358783599 0.8407578678420228 3.442280016758063
C 6.420942174715169 4.826288803919485 0.6348324407416478
C 1.6715704507937355 2.9731089033620703 1.9150085480097843
C 4.869171984130197 3.02336568119447 0.27327064930506845
C 4.186227701903777 6.145708482733645 0.9117872535642648
C 7.145336886115592 3.7194521114092853 2.8856692109364275
C 6.171897883949102 3.616170709309182 5.989244971881092
C 3.3530268839823627 0.29768322218964965 4.225950375663205
C 5.604298143429845 1.7312568243858788 2.3068109218318553
C 4.492027386557632 6.6615707030380715 5.281851058527378
C 3.5987102555357158 3.711344883726229 0.37250055651690983
C 4.888314625682843 3.6161707093091815 6.738245527445195
C 0.5641984800109537 4.186987668107136 3.5944911154782253
C 3.158463335321029 4.463430821557711 4.889712646701419
C 1.5669430318237314 2.002043672328113 4.054080425121105
C 5.866126316810469 3.162627586377066 2.7340041601084173
C 5.495741354777506 6.573893203380378 4.251855884527723
C 1.576635229188719 6.499959427214489 4.212535833150363
C 5.181357004853125 6.568989542783912 1.837670365647734
C 2.3272811245246747 7.1578160535296655 3.1554509405169275
C 5.130705088117553 1.9286052674012362 1.0679706835229572
C 4.493977291410311 0.21831339816660464 3.8095319561571968
C 3.733199685461177 5.117557451036132 0.412557812439882
C 2.8447213803889313 3.5529000572327147 5.906811042376875
C 2.609673660630501 1.396835099952959 4.714529476948669
C 7.666543804033269 2.0676376885518986 3.988515145735499
C 5.938553849097865 2.1707179714580964 5.598140467266815
C 0.5641984800109537 2.8808243392651947 3.203926751437257
C 2.505139340255017 3.2064708713739485 1.025415763536778
C 1.125852397163229 2.971592035506724 3.1748238680684446
C 3.5070629535300433 7.525096480163323 4.90118051941188
C 4.856678167479132 7.130617551321283 3.086553509664626
C 3.2873687092704955 2.1986970891266244 5.736485495988769
C 5.984190976424109 3.8484797092228464 0.005473693388688123
C 4.600656526927518 2.2714175314368257 6.196346667620428
C 4.712725238440455 3.760225097647546 3.1058980171077666
C 6.678293953835358 4.612606306460878 5.245287722508336
C 2.407718403357032 6.697523494863058 5.374436630982029
C 0.8050943383166489 5.358031413415078 3.9143839430611145
C 3.530648780226121 5.634712357492315 5.818682430917143
C 3.568035326394791 8.753638171888539E-4 3.452909119502536
C 6.3696305198034855 5.692693976538658 1.7576340302067368
C 6.524310891916094 1.4728700113855213 4.5178761792942685
C 3.7777261990661777 4.3842623655250375 6.646298956574679
C 6.5237544263195835 5.58714063434914 4.213450257340001
