47
Energy = -377.18812551 eV
C 4.2755712876032455 4.191219898991429 0.6345529591715181
C 2.865161500637683 4.448255865776716 0.7698516753604451
C 3.4842470064566635 3.0916546415722723 0.9746718493899134
C 1.8819262798683698 5.043249444898811 1.413792645361689
C 5.46429974955851 4.722348686141997 1.322546735263301
C 6.217681020122125 3.7419475595874765 2.0473115124120436
C 5.026937851618349 5.744534856011227 2.253465305660099
C 1.5789529415698655 5.3435378071254735 2.7158014517766316
C 5.910938389504899 1.712779833801671 3.305286248045292
C 5.4337310952312325 2.509435105681696 2.2707971052161158
C 3.922968909673808 2.5809666861420246 2.329622192061138
C 3.122402053018248 7.391801296773987 3.6036395965561496
C 5.547463047782378 6.789180122303066 3.134122650564334
C 0.780674599812389 4.685029501797902 3.655634486048651
C 6.9272358430258745 2.518609796111329 3.955493390367193
C 3.96187952073857 5.143017108064173 2.983647135076964
C 7.033120328958386 3.834953547327606 3.2348080460016897
C 4.5162411262931546 7.6819106888499125 3.7259995396221024
C 4.7715853491901035 1.0775567807949182 3.9408133403412893
C 5.693347327663192 6.780595562126632 5.367833063270597
C 3.5328233814422254 1.527606262319559 3.3803659448712864
C 6.418555336101857 6.252031534454381 4.168645303021401
C 2.8636293289931847 5.954530274030322 3.4864836178051575
C 3.8703289387239166 3.7757592023897253 3.299541848623756
C 1.4679430440659385 4.570625351574322 4.836119332726079
C 6.988634452271189 4.886341766076636 4.250023652345267
C 2.4707866383641286 7.318461717852214 4.970816888883167
C 2.8057703223227315 2.0520471687177557 4.701836577423336
C 5.004419610964601 5.761085564140679 5.961322231501594
C 3.6600681322432247 3.3601867035479143 4.7002580602094675
C 4.743609599756655 1.0086846794044864 5.377408365465035
C 4.696614079606441 7.77355579080145 5.159002504965553
C 2.431818068446625 5.788083833401321 5.024208398770041
C 2.116064536587146 3.360531402843987 5.390839532035426
C 4.771748318604481 3.3732848737598906 5.652029849859158
C 3.466070585033386 7.471786995096504 5.929438260277438
C 3.543691363893419 5.807307321036921 6.25815735288879
C 6.88327225861822 2.70376262485475 5.341943646393227
C 6.914603209967307 4.165853261519284 5.523293171741978
C 3.4176679577787663 1.3191641333791289 5.82256556261691
C 5.620655365735038 4.504251176764978 6.182728072134977
C 5.6101783834030945 2.065837301660707 5.985071969870916
C 2.5694299339389706 3.3672947451968804 6.822447622371129
C 3.3902024575144885 4.556526217138905 7.173996259157243
C 4.727404863074046 2.5648400357670185 7.144953132344096
C 3.348517173553608 2.153636884621731 6.981576569188047
C 4.73092231874396 4.006133275844474 7.317030233018242
