47
Energy = -382.45016073 eV
C 2.443569179162237 2.7345712655818484 3.3828665286139374
C 7.284936161060758 4.897718900353937 4.286741745983623
C 5.600668155184395 5.490725760508435 6.324417388022594
C 3.686043151152367 2.1454222694547327 3.9053488206694116
C 6.862410471576884 3.2246089446796145 2.703247826555553
C 3.4179080805761233 6.559426067460286 6.5216796087108175
C 6.263634127764221 7.021636122611776 3.254584923169358
C 2.397686552750791 3.7245196000450633 6.26573043176936
C 6.775001364368235 2.452301212897944 5.92753814570925
C 4.977060122667824 1.2387268776195823 5.718259799288618
C 5.9856306047223065 3.976310013460391 1.898062565319322
C 4.0456502746024094 6.871018971310136 2.372573242615315
C 6.71155192387825 4.887015064846059 5.640918535613972
C 6.917972973545302 5.7499977291186575 3.2623777655306774
C 5.33326675824928 7.555556774453007 5.2759926845717215
C 6.035829353096097 1.3002133566278917 6.396298720007287
C 2.526995576031895 2.7725901093268646 1.983333676152832
C 3.051732936677334 4.365560238333983 7.376324666933765
C 4.780415698139505 3.1256696089699036 1.855614639387719
C 1.1845608980276108 5.98341827531432 4.077189799857894
C 4.3402940053285475 5.616122362419014 0.6023183681810176
C 3.6551473067050333 3.086312025851527 1.2008565236056534
C 1.607179948431641 4.167615132038056 5.274317167646374
C 2.3022380071422344 6.9274898569633985 4.077189799857894
C 3.3089495310005588 5.717886463089291 7.747096839632054
C 4.803253675545382 2.2520772271175096 3.0648312756626344
C 4.776292108452748 6.652884303911971 6.149863409451099
C 2.353127415746897 3.555162423120244 0.8601612079180099
C 6.61074386788646 3.7756661174691772 6.434674064406045
C 3.2049536974971073 7.161097507356396 3.182872172922822
C 5.456574214625876 4.243396297944408 7.3032749219617505
C 6.142012194008079 5.2784069140381 2.1153792805834524
C 3.463823318612056 2.772863673579223 6.213436111981783
C 0.9833906531448758 4.868478866610813 1.8277620212756627
C 5.35512572587372 6.572467187143136 2.1791476066891455
C 7.4999084231166435 3.6771235851870103 3.940038248963658
C 4.087974026815082 3.610254377534771 7.184495094597188
C 7.039729524573423 2.5141358632591015 4.551903357279804
C 1.3945219952916679 4.479692877074585 0.7081122618937394
C 6.027513331294466 7.79181966099634 4.263221890102934
C 1.5588098652683768 3.789107964556746 3.9833075343995796
C 1.3569706888306585 5.600908257715641 5.323367947543774
C 1.0530334691179317 4.840806346834362 3.203393677909617
C 6.205364220825278 2.1754375589933703 3.4458591367248146
C 3.939948475484858 1.8737540153416696 5.236039078943848
C 5.3565551701713 4.877733551376546 0.7081122618937394
C 2.4206433507162095 6.625568672715292 5.562402671576498
