47
Energy = -385.42106158 eV
C 4.495698136548387 3.9963550188735684 1.4557286420205628
C 6.156088345726963 5.889811164710282 1.8952736813638649
C 5.941941406546345 4.490896326232459 1.3713873811281292
C 3.7540288688084784 6.558402239216723 2.091700285084006
C 3.4934763215545965 5.0677158486375715 1.9104114389459055
C 5.169840533041699 6.964628650092583 2.1407374916850843
C 4.537560003384966 2.7108141350345214 2.128947304768375
C 5.884780743309445 2.5089692675720046 2.6199756808089263
C 6.743755747486733 3.58603754590532 2.199896848364827
C 4.965017192032513 4.97128411805214 2.6256008454706534
C 7.1222879500586815 5.817473553910259 2.9830556197434057
C 2.404946766876669 4.675881018647804 2.896818287762089
C 3.1469732291248658 6.894919953516323 3.333707777257964
C 3.6862264747869347 2.5836408490553557 3.3376508898895816
C 2.340580323673152 3.369525837435642 3.476547940449935
C 7.391389730267091 4.39802024729548 3.2385653064292423
C 4.962490919242701 4.786205215790907 3.9384739891577145
C 2.2569116402424556 5.862148417137468 3.7798468285811135
C 5.444333761856159 7.417922645574397 3.48358073073794
C 6.601205274619374 6.724285960347198 3.9992710927323882
C 4.478744928070153 1.6472900991349588 4.378558568744097
C 5.851792468232689 2.0153633125056563 4.004107595433774
C 4.207030024417433 7.404358834077919 4.264213307684591
C 4.242722491045801 3.730283663929116 4.258683617471295
C 1.9532849714250513 3.3310504529360947 4.916067890968299
C 7.3586600145413765 3.9257615430272326 4.5842809211458215
C 7.094871823566792 4.918856866061869 5.630418345241256
C 6.5751735551532775 6.2762016259374755 5.358786413625972
C 1.9627105310957125 5.743842249781727 5.170164096364771
C 6.659901980046944 2.6984728958136057 4.991272444244678
C 2.7534439592049456 2.4865640032491374 5.908691952728429
C 1.493674673014586 4.496157118330363 5.712763921382339
C 4.034402330427237 1.7044054194886233 5.722969622145324
C 4.225251426667555 7.089436574401255 5.645517660699957
C 3.5358482075753273 3.7685364241451724 5.419514013738061
C 3.927122261747462 4.880333490277341 6.214492527266944
C 3.0709898348354714 6.1981812933689495 6.098026801348547
C 6.3744927388680175 4.322322047814846 6.6531844904581146
C 5.472170798821912 6.564099126417927 6.213744486972569
C 4.854464209722036 2.368849355628692 6.786878083785102
C 5.263136974850563 5.229272170916708 6.97322833342709
C 6.075929451660904 2.9361346601797202 6.320896266135144
C 2.5865040149103717 3.019953154067509 7.2759808674021516
C 1.8970299283035543 4.285578905000514 7.09482190798719
C 2.87226142173889 5.325823900216283 7.388557920767906
C 4.14373084567551 4.630753070154183 7.790073308290714
C 3.9533059765423895 3.1453649414495986 7.735111783508278
