47
Energy = -365.1690679 eV
C 11.040038054736506 8.213279915592764 6.473784766280957
C 12.135337657598983 9.324710323692601 9.946675663951154
C 10.480921263405316 6.93265533537451 6.545052012395334
C 7.396237508645294 12.577965502554305 11.55600517517337
C 8.04011080628015 11.668681646937758 10.671726097108882
C 11.980245418796713 6.903715973653389 9.17440843285184
C 7.4148042394522875 8.591360852517052 9.361119457264182
C 10.570515828879838 5.781205870103458 7.479533722649535
C 10.853255685362376 9.600370834145677 6.564236113008189
C 8.157598163773738 8.131306901616451 8.148515021245712
C 8.550754428589576 5.654213648994609 11.321174116208688
C 11.109169736425875 5.843295011874367 8.800843721560778
C 9.147985050643134 11.531422053850587 6.1385326598671694
C 5.768362152806076 10.939610097638818 8.803562916785648
C 5.895188099369166 8.397476768312712 11.52623370478221
C 5.973437843573058 9.959139658391829 5.442852802517294
C 9.421970157694535 7.654967152616571 10.254190273773414
C 6.6718654327431555 11.571857302271923 10.877817640536138
C 12.293830361010944 8.024208709336897 9.61036732305934
C 9.78854026808497 6.380030367732941 10.79775683079841
C 7.966545351061324 5.742901838265049 8.03105839836607
C 11.54599496675351 10.423043437097087 9.980198090929564
C 7.802528782288678 11.513960889201758 5.937069598891184
C 8.974704833780988 10.873129528357374 9.946970809002067
C 5.9507368812670585 8.32812466713687 9.772899168048262
C 6.000258344481398 7.198262874364684 10.794690414582835
C 4.910318861629932 8.078424776082025 4.027099951523868
C 5.466515649208297 9.061190079649093 4.676274749687906
C 8.057290157728286 7.591070825523187 10.276506276432126
C 12.152864641645705 9.10788684497446 6.430934851434729
C 10.189470992491117 10.881511008794956 6.8935767134752695
C 9.157682707993734 5.35320211857129 7.213714862172854
C 7.307262198167277 6.375321477233014 10.583055386131901
C 6.08007699866643 10.933545577869864 7.615463259215361
C 10.44558386491372 11.361069684170602 8.12486469970415
C 7.973827753089785 7.052911105389152 7.299738425935635
C 9.081053721531951 6.590658553905768 6.496557962499665
C 6.556627658621453 10.813130572278974 6.293505344241095
C 8.565650832549517 9.656975968790213 9.511863850452563
C 10.294259796250381 5.394137217324367 9.890515742663228
C 7.71920623361474 5.427020549799372 9.360200047688267
C 10.423045667191492 11.107654837882025 9.445360504064421
C 8.883427449457502 4.957938807828862 10.086502026098502
C 5.744521897646849 10.705973806584499 10.201777641900685
C 8.517836061228625 12.631920396185812 5.462170004588997
C 5.402188861873781 9.392359677137717 10.581725476721163
C 9.414024491134459 8.577155085293978 8.979029021302066
