47
Energy = -378.83701579 eV
C 1.5559415830340724 4.5100717465236 1.6086569708726415
C 4.499455712611127 4.253659865049046 1.3094612780762729
C 2.372356484469264 5.618781245142617 1.0933476648701541
C 5.693442035190497 4.0324027563319484 2.158512835478641
C 3.8056210764740137 5.5096987441219385 1.2905235107007382
C 1.0647231139453766 5.208600465743377 2.8398330190450314
C 3.653614093875118 3.0190250412705315 1.8366581439475531
C 2.1016043687485633 3.2036438511620227 1.8995306338851867
C 6.5725662642546 4.906687566982434 3.0721089556233427
C 2.0379873469693 6.19605272279873 2.3799327328907878
C 4.4492395093442285 2.0651387381404165 2.744848791893275
C 5.762649994471963 2.6277172934614335 2.7233201116699877
C 6.5151927929092945 6.2368982436561735 3.8381661900070543
C 5.149758835484389 4.512777053855042 3.602407894558492
C 3.982599422915264 7.047821266237013 4.031713022387883
C 3.454631692672485 6.268387578962543 2.853878725809418
C 1.8638425557716347 3.040168226036297 3.420187659840153
C 3.719200154498925 4.92849761499345 3.487038276275259
C 1.2493231445280333 4.310446798397208 3.9838900396516594
C 3.059888315469675 3.7951435345704265 2.9452549419144605
C 6.698347451983428 2.5978475224809774 3.8027312231277954
C 5.3832220796068855 7.231979085357262 4.185153337223656
C 7.3237081401328945 3.898905752117945 3.9303287688146566
C 3.8869193692818436 1.7105422021786842 4.0943571469455105
C 7.046610869084604 5.882841858162676 5.126505809109402
C 7.461793940523033 4.511397410039579 5.223433235079601
C 4.804104577168058 1.674487574071321 5.1907983488817635
C 2.54289714687119 2.216400067027555 4.442778885072356
C 3.8184915637013135 4.811653503831389 4.9412300747044275
C 3.3707441105287397 6.7770407191404445 5.497123892385065
C 6.261844391700353 1.9249940271221786 5.011024879521551
C 5.562032194868999 7.64376610841072 5.543666094702358
C 4.981541053204001 4.1202663101104635 4.962357155994425
C 1.7445054763455843 4.334837106627835 5.30897265073228
C 6.365353135660361 6.648552623395162 6.15882026179229
C 2.3388881607552054 3.0092949472469184 5.623474830454192
C 7.124537223254454 3.726073959004801 6.368091076313818
C 6.772862092422671 2.3440277725592784 6.252444181348441
C 4.438464619032617 2.1823530167337903 6.551482077992102
C 2.818935007926767 5.311366305306184 5.910698345396776
C 5.240201387980173 6.234731001806756 7.012074549708024
C 4.374043300230842 7.239171726385693 6.347950884379154
C 5.643711026962709 2.5077234452279145 7.194522123531297
C 3.3064214250264032 3.091111931656071 6.678961849997901
C 3.522437368220752 4.472264015986341 7.062345360298888
C 5.918182816399549 3.8978100867580774 7.304544368257003
C 4.8890160963011065 4.9103940906290715 7.358311711648605
