47
Energy = -372.33952588 eV
C 3.1604659046423933 3.6902552673680526 0.4915253996617911
C 4.26212049157012 3.064542405756317 0.6595024115592423
C 3.391503722992831 4.997498968444467 0.03152927880005502
C 3.630232858417483 6.106525778407199 0.9775544419662482
C 2.239607057734849 3.464765169708506 1.4624616156839825
C 1.5517027798860226 4.327609990930047 2.3077234054396656
C 4.726983118620974 5.248426792508705 0.28991760818613826
C 3.9653310617498394 1.8244948587869616 1.3099973230349515
C 5.9797463896608045 3.845783588471927 2.175398205639492
C 2.52374607981357 6.888128090251278 2.881900288697106
C 2.7910996044906966 2.21616331720311 2.072701030154016
C 3.6785782829287434 5.960718228809956 2.4748358561936215
C 5.294441452277028 3.9250525742128715 0.9859390818000281
C 4.716739591917027 0.39052185158711705 3.046957936463677
C 0.5213849006535748 3.959213947499227 3.1721522993018
C 3.1439518988250557 7.247430968176879 1.6173426508040096
C 2.481265551992134 5.338775752850135 3.0385066777659047
C 3.4278515613531795 2.535676149065065 3.20671280774715
C 0.26460780159503394 4.279385384107985 4.460726753894081
C 5.710386834932788 5.633392228999709 3.729426719462374
C 6.273430382392516 4.365883768457016 3.263496221455278
C 4.752393634810242 0.7830664052373343 1.7285633662537991
C 3.596838656953857 1.0552639575623837 3.7060213084545874
C 4.7401941790349 6.450055743931847 3.236517590582633
C 2.9345899310479853 0.20418152516582735 3.9938012701710335
C 4.164817147140376 7.4576601825542 4.074820639781358
C 6.285194684152426 0.8935299279704895 4.692279802146953
C 2.353342361883712 1.449593966207455 3.172152299301799
C 5.8448397572876685 5.29357708830521 5.124600869075675
C 5.82151867199591 0.20418152516582735 3.757963516613199
C 2.6286399649516077 4.632804861158676 4.26504453465738
C 1.6022131301447946 2.270455013505347 4.306611236677991
C 6.019844859388717 3.220105071772927 5.716878672013657
C 3.5488277355728517 1.253556397097101 5.155932356210467
C 6.514158057117322 4.050708409303113 4.8083585263498225
C 2.922773700112596 3.359125772922834 4.238040953992115
C 0.46375891341882447 3.061650074945719 4.032893599226679
C 4.7478170820052785 5.147041081387037 6.049821054638678
C 1.3166862129007217 4.883970321215266 5.180117914687604
C 3.502321199430017 7.178834019509005 5.283059805478506
C 5.892888270295253 1.8059322921227632 5.655762104865495
C 4.50867761417772 1.6112297608214912 6.06508841697556
C 4.782178975936942 3.7319723423666855 6.364733102056455
C 2.7802252645770036 2.40809854834358 5.410868157612057
C 2.4732705329708686 5.289950344098587 5.619929070565388
C 3.8226704409351546 2.8219152950005526 6.520790491258731
C 3.5489507179891016 5.996211027348931 6.0092656294729405
