47
Energy = -375.54592544 eV
C 6.203540866987948 7.532478147084265 4.590052519034164
C 3.832969882545269 1.194341747229983 4.60650906663058
C 6.210821285095155 3.9808858457748135 4.919753696653047
C 0.4376112575897806 2.5867482516668434 3.602646789411504
C 3.604232686678543 3.8383687999884186 6.9927736313574345
C 4.88408755074442 5.5046755781166175 0.35779659817199144
C 2.9919323405226153 4.581413071354024 4.959054657885095
C 2.2104883023266506 4.067012889719801 2.887476820870855
C 5.253584363024997 0.5910607625614444 4.874039929831457
C 5.958562225758624 4.759515649851946 1.0699799011587443
C 6.640608611128418 4.177153677346365 3.6165221406542583
C 2.3039106839218184 5.063733698120057 3.6989328167730964
C 3.237921515595057 0.9200463202529432 3.5647953715450753
C 1.1613353761871354 7.342457822319358 4.89218405282827
C 2.433431462359128 1.670397052048763 2.706935441545076
C 4.263115355803471 3.9582740296640493 7.027894106125057
C 2.8756838042369672 4.6976561418926295 6.44609129110129
C 3.475338841779364 1.6428109663903325 5.882157662461294
C 6.708829915652749 5.438489200993674 3.3993208076510757
C 4.949816486923902 3.2142456018792958 5.04601655221233
C 4.7884994926161975 1.6350927016594343 1.8458941983358332
C 2.785268137215543 6.410592307050391 3.2905098941736712
C 3.6604036350153617 1.1981418124266265 2.227053760364933
C 4.011812354260424 5.10370626974405 7.169492638344349
C 4.047620433313032 0.9200463202529415 4.8232608339003
C 5.512661099855165 2.049612875346173 3.0603142600173063
C 6.018591793843876 3.5256314341282367 1.371595161964095
C 2.2614798375858447 7.536277303205418 3.840598005919235
C 6.282413820706591 3.2108139999279097 2.738351492819611
C 1.7647914455629063 6.974540955592003 6.3177149892286
C 4.962278958411721 1.9459091741385994 4.196531817421553
C 2.866153701755772 0.6957938312271645 4.6784943655341
C 4.435549672204326 2.734591962099108 7.390786343203863
C 2.3012687161360335 5.927509126463005 6.829878516433723
C 4.044328091405228 2.843203917160572 6.269245746067513
C 5.126039800719642 2.5231907588635383 0.7786055434054763
C 4.82398206287446 6.140048001366369 1.684413005393729
C 0.9292605611975846 1.486305565735684 5.8250929333089365
C 3.832969882545269 5.873736975858136 2.5769402226327505
C 3.8726105447003083 4.121308766868913 4.330952877769472
C 1.572024181949207 2.8489381794078192 2.92137761054359
C 0.3804782217573565 2.0332529805340247 4.714503585091587
C 2.1321020644728943 1.434127794837394 6.153584550234313
C 6.71922945864339 6.474980543159083 4.172449145401286
C 3.595284958646225 4.403253164242633 3.0613277393878984
C 6.166491020719007 5.722764941959817 2.1218595024191798
C 1.7117046010956753 0.489533671380725 5.746834399178438
