47
Energy = -368.14571263 eV
C 3.11969404285974 5.062561883862431 0.21906661220981752
C 4.595657708701316 2.845525533764833 1.294616602220104
C 5.382362144189218 5.347709114588699 1.0762463301323344
C 4.20892379683502 1.8270004666849449 1.9222387808735404
C 4.266660453537061 5.880637691408389 0.3396146453824005
C 6.483510032541671 3.433307062696211 2.2432371655027112
C 3.9772529403466574 7.276359918239736 0.3744025206392484
C 5.815536206731381 6.25286086992423 2.237648219658232
C 1.8801597117631714 2.1829794442111696 3.7211052048452253
C 4.092284088723065 4.558129101359672 3.576290095865147
C 6.578805329700182 2.6318417546632147 3.165985901787259
C 2.1583904969031527 4.966294059228775 1.0093464156242244
C 5.530278469616137 3.9162720105582114 1.3221797180052945
C 1.8269970994897484 5.075664683401745 2.364227970264854
C 6.34762145354346 5.865354933524542 3.678296744968582
C 4.877926192217357 5.704644695796485 3.54789398975766
C 4.704952934074696 6.955672344142327 2.9201059438129873
C 3.8315867337422884 1.1942073179187738 3.1196667864650784
C 2.6802422853820107 4.390982436010372 3.340699053215522
C 5.69516301450685 2.45780322004556 4.343339940969762
C 3.5170600124573013 0.3067505561913966 1.3977528738331846
C 2.2274988549623895 3.412278495305524 4.242654762445108
C 4.515625897770329 3.4323447884371934 4.33695540953585
C 1.2287005302673963 6.010761153541821 3.119666786465079
C 1.5678784921996505 6.848320832471139 4.108564980088279
C 2.4352426770585724 1.1027963378000716 3.379397470399484
C 2.324887916930189 4.6268308383675585 6.915110432560339
C 1.8745730148942232 6.720867857960889 5.611652704033641
C 4.6430804622223985 1.264830378996242 4.3771545427918666
C 3.6095572295493934 0.25350545017344317 2.798782673484465
C 7.192045163192147 5.394814719811639 4.83485454742061
C 6.528279529744517 2.989417093420457 5.483577867185373
C 6.603022306567327 6.63331857687943 4.970717296524011
C 3.3800431482630806 3.291368569951168 5.247356412756361
C 1.678807631589619 5.690448492335495 6.4592897554347735
C 7.1432630227550735 4.208475138509034 5.601378681315255
C 3.3082901417084107 2.1656633088635298 6.224801596097592
C 2.7223291891167753 0.19625497401463407 3.933771428806837
C 3.9624265163825356 1.1797605651737715 5.606012610004111
C 3.5724066250996507 4.300557547232997 6.354016292906398
C 3.0884853357413906 0.053780974965615604 5.327935002161173
C 5.610342393151696 3.647259914538971 0.21906661220981752
C 5.63643799609453 7.342565736312507 5.643197387859443
C 6.4763600241836645 3.6651129537045457 6.743554031238085
C 2.9921454517856443 3.2415704771739025 7.477202209247182
C 4.401739635710353 0.008679245630397493 5.721780659267504
C 4.317679535749022 3.8047139186924586 0.023945013517259094
