47
Energy = -370.02429642 eV
C 3.7163028529698052 4.626493676181619 0.5728149390663506
C 0.9090839957221989 4.205917613922351 0.593428016318119
C 3.784623176096556 3.150043442060885 1.0242541111050165
C 2.2417184931892353 4.864360612745909 0.9036484690818483
C 2.5367685992191995 2.203773770560249 1.109848463055131
C 1.204932071832158 2.8365873095607177 1.083843415538563
C 4.40867673115955 5.400600858512796 1.5202892003155253
C 4.93665685275822 2.9571419305141022 1.9830875040360458
C 2.667257138551021 3.6126016015369187 1.9163129918598003
C 0.3144346361493865 4.403637482888246 1.9314433971119949
C 3.4430280480067306 6.275476409481364 2.2865800580818627
C 2.1273527868687157 5.914739557005416 1.9379335788979755
C 5.143055730903152 4.4282729743268385 2.5603928229120108
C 0.935987774671645 5.431541414973422 2.7000266589356454
C 2.676185171054116 1.2134105157402935 2.1636101840966107
C 0.4118493127570363 2.945249170908161 2.3332120859809793
C 5.498850876974225 1.4732841033618567 2.536304764606532
C 3.966397696302688 0.9767756786210624 2.8681800015373424
C 2.727355154077047 3.7592207638339366 3.345312754554278
C 4.422335188483248 2.3581993195538895 3.1867068402845393
C 0.9481599088283253 2.438827923941024 3.5385125520010594
C 3.919456453792459 6.141237806722004 3.722451091636272
C 6.17056668165374 4.402951678614258 3.816537919296661
C 6.00182608455521 1.7968757606148646 3.889805062621778
C 3.9637909338746873 4.588323216109595 3.578721954711233
C 5.734902307485513 5.44333474875888 4.866298771827189
C 1.4911818315648062 3.647477083336816 4.346894721692782
C 5.203045370598728 6.633389779936529 4.301971759443854
C 1.077356611906728 5.15336389588661 4.1211124601329985
C 1.9541031458217721 1.3404076815308843 3.406075649478663
C 1.7715739451804609 5.839069058365247 5.0924066578100255
C 7.74093623917428 1.5806634242658664 5.852317746220817
C 3.130913624807419 0.8449070188442298 4.204878051635363
C 3.902916784367561 3.247594296317655 4.181100406629254
C 6.6488357626222845 3.1651846324174695 4.260830397525841
C 2.271701557937492 3.5952392266262647 5.694082584684929
C 4.920521554195134 5.013373287022336 6.003749360787431
C 5.416304197877079 1.1543270034214663 5.071700676591929
C 3.137669216266231 6.455477819532025 5.005402349130663
C 7.138301489712529 2.9208238410233736 5.68117454210269
C 6.308124912929549 1.5592244648222326 6.163149314961949
C 4.80171087700585 3.6027106394310597 6.353385391196843
C 3.6225408770532415 2.847022445604299 5.634019688817514
C 3.9145586680248075 1.3214330585648673 5.254378539794096
C 5.953018208530737 2.9209467843833883 6.528847915243418
C 2.3972794409164213 4.913783853084742 6.0733971198951195
C 3.663108107895684 5.67195844685805 6.076824139078434
