47
Energy = -369.42625799 eV
C 4.704709814594178 1.949794493092292 0.0755953081744389
C 0.9959867544019788 1.316122163563067 6.377357275285661
C 4.758378924478479 4.392713583813691 0.3033655422265079
C 7.241764646075336 1.6053280319699668 7.272627955601069
C 6.545790800986268 0.864863672426033 0.8142102987693757
C 1.5678537015621516 2.6321110395026746 6.6069746462903
C 4.192622952484439 3.2360347364179236 7.049438381320119
C 4.263710438962272 5.480901811777654 1.050804155074914
C 4.144906395413698 0.6659783170416503 0.4091349335315555
C 0.47109875630145237 2.8576554231572024 0.19095790378717525
C 0.2040190999233 5.003232696071321 3.2728740377708947
C 6.43668947974235 0.47410884906550704 1.9957243287710849
C 2.7256955930866695 3.194875926389967 7.1615777637977684
C 2.3689277625386835 3.525293983587976 1.15237573618006
C 4.834760421915456 4.100545357628416 1.7168471741178284
C 2.3612690705760295 0.39337873144963253 2.159430285411125
C 5.718714330165684 4.389100045848891 2.784966892718039
C 5.217863497937414 1.2311434908891763 1.1692785333567748
C 1.1736171584593127 5.93822117334659 3.072497888725925
C 3.756499433814249 6.134949940696056 2.096083218199469
C 0.9685540745666055 3.439446426325772 1.3643100488240376
C 3.0040448457429734 0.07016416231484084 0.8982831908927394
C 3.855852051782516 2.160093322429578 2.8990038605148
C 2.2633134952481377 5.608250715580024 3.9777283344765393
C 0.2635072713477596 3.7078877210510863 2.6034164407389744
C 5.172080812122994 1.4391506539290888 2.603907889273986
C 3.4991543468074444 3.4197506008397256 2.16134857863655
C 6.730556661620834 0.2955071656324024 3.2871718510864487
C 5.601546577589374 0.9447824223038114 3.805362434936016
C 1.6764021102652789 2.0206399183602763 4.12471956633372
C 6.0376505554629345 4.622384601286347 4.0323887007752175
C 3.5831213303392913 5.731599867535685 3.422062704737312
C 0.5630779596745152 4.194664742303389 4.53853102595759
C 2.5745745198013688 1.3831961042074106 3.0873850785185395
C 3.6757108461296424 3.401522830337322 3.723235858317611
C 2.024332943516968 6.6271221898102555 1.4142205910759036
C 7.35573964204198 0.362626747152233 4.369297116996287
C 1.8909460654071637 4.476217292950098 4.842936169727884
C 0.5576203934507407 2.9714101774454242 3.783973868571305
C 4.5640028778976856 4.632272800110908 3.9155940176585333
C 2.6655662067082906 3.15025976054691 4.810385999913929
C 5.223420218573371 0.9107464718995035 5.008866926208414
C 1.0584914083672685 0.8562234094722144 5.081504564143223
C 1.7626274567974791 0.541599128834206 6.190616312605983
C 3.3912161859614858 2.45025105933144 5.942139984360628
C 4.29645963600399 1.3304886550380406 5.909854972542882
C 2.9632760955748885 1.1694144803724011 6.377357275285661
