47
Energy = -374.61995445 eV
C 3.737047230595682 3.8727975430582546 1.1240244113384608
C 5.080577947439035 3.6596250192364397 1.5298799097604474
C 6.090100345737893 4.570323912819102 1.883753014531737
C 2.9451460314937603 2.6459340818665695 1.448644950407873
C 4.071586308255756 6.157005593088325 2.1756689705511345
C 3.1490329053479695 5.092236709403799 1.616667918768388
C 4.977149722524484 2.631114951663566 2.6058644173725547
C 3.735262196292579 1.7923295633600573 2.336714416167499
C 5.598460616559845 5.903867537372921 2.2192988739953177
C 1.1111060555812875 4.794352995835056 3.6115636422778494
C 4.237128701960761 3.6726892830474336 3.652018575709143
C 6.2932352501748445 2.636003191741651 3.3661836934553198
C 6.922859278616667 3.835742041112289 2.867246315405666
C 1.9589437171480517 4.443248134179842 2.3673961967557164
C 1.6227539421420596 3.0881263359270195 1.831173186157097
C 3.8576462413294985 7.247963905394757 3.2949545215092106
C 3.301808244182158 1.0715707700589956 3.475568363221554
C 3.609896597673278 5.936195217986417 3.7669509235570633
C 7.116814457740106 6.084692142369902 4.17699411970435
C 0.6453414801687216 2.621233272358054 2.6970141704168427
C 0.36711907961592666 3.6123545911524277 3.812117852398939
C 1.9891703088472021 0.813727727477992 4.014367898853853
C 4.765754083919594 4.899793501515882 4.01486141192847
C 0.7938462637791748 1.5704319883677826 3.6753763348554127
C 6.208762143776137 6.774235335061758 3.2442702951148847
C 7.42103719375273 4.614725597305954 3.997823139178107
C 3.348673640060982 3.0191827841679286 4.696032944629777
C 2.8041488363607514 3.9090759120196146 3.6628274621116437
C 5.10678698065056 7.305002074732724 4.05229877563143
C 2.4663422458730504 5.206608552742319 4.394897630614141
C 6.0238583074632155 4.943229885901507 4.540725841553817
C 6.2652546542727965 2.6232885761149864 4.848333141939665
C 3.732304664987042 1.610640214476904 4.907511714176604
C 0.44367806879292965 2.431909115425997 4.777965099352934
C 2.3295655544617038 1.112129055089759 5.378163463199652
C 6.474055404853884 6.160738736704329 5.539051716494377
C 1.40964457601128 2.1809210890103152 5.828401702364776
C 6.933281912446038 3.9063010217816276 5.2490715365997325
C 5.183967179757114 6.84766215265892 5.506658842533659
C 5.114640476790436 2.2654902127379377 5.634605151031853
C 3.223079597376018 3.6607857632526057 6.094585605405596
C 6.572002978199091 4.903384899196776 6.357156662597727
C 3.07601900842745 5.144166606312198 5.810564133839971
C 4.299686958019725 5.793682232327194 6.1929833558858896
C 1.961066426072395 3.1203977571516432 6.704195159701489
C 4.642386174464869 3.386095760591231 6.499431749893582
C 5.215593367746076 4.660610012583738 6.751764144791614
