47
Energy = -383.95932038 eV
C 1.3352209876232881 3.1644869230148527 8.03584832105277
C 1.6846978194661337 3.9557666885555007 9.257165372212418
C 1.630181963161819 3.2466543871395435 6.762081027999666
C 0.7010262024516561 3.0423215607525713 9.352341048139733
C 3.1842951056766577 2.7366803381735063 0.15985869712605455
C 2.6964156672306987 4.052650236978251 10.266533520525071
C 2.1730746285778677 1.6977305326781607 0.377659361508694
C 0.8465013105043143 2.291396777254197 0.11540524373247854
C 0.5781369766276128 2.974342493829355 1.304016356231076
C 2.3345776971080676 4.7700127069593234 1.026406514366323
C 4.09670697772792 2.5870209073272386 1.3132877577985618
C 1.0198229253307811 4.411898573632618 1.573156350882939
C 5.347222444356353 3.250541605887542 1.8776738293733795
C 2.489170180980009 0.9907939262444826 1.6238588479465774
C 3.3530434124159156 3.449905761330439 2.5256002996965425
C 0.6672547879789207 2.2692932239343864 2.573116208858678
C 3.956896260295156 1.1977408001094365 1.7909271151910058
C 3.4122694603591297 4.89958466638108 2.145873051084465
C 5.004727807395294 4.608313577828462 2.332276380046215
C 4.942442050088757 1.0401800320543557 2.7452870416996165
C 3.359855702932772 3.007744461848549 3.7458374968359336
C 5.794258513169351 2.284520889407124 2.8161142781076367
C 1.5699785230917822 1.1510066861816541 2.7517082146219742
C 4.645902781172482 0.7355631592136622 4.17199660943963
C 2.9813924669487686 5.563933938610511 3.461553116227035
C 0.81607255724638 4.5437882701956775 2.985013531682154
C 4.105996725468331 5.561030805495681 4.3293350493733636
C 6.038793019843179 2.618145635123582 4.2129289039879145
C 5.804207218428227 3.9714651794862155 4.635962116009823
C 0.48964710399591915 3.2885551317267363 3.567528364052198
C 5.2827378994980085 4.942333079455675 3.6784770208678426
C 5.5339323216066045 1.5355018868516772 5.046536594999382
C 1.7060396163584401 5.19656039398093 3.938105883766444
C 2.070497977067013 1.0402623796624846 4.241102902967657
C 3.361714321216055 0.4097921503167192 4.940151732224051
C 3.398758153440782 1.761588292242721 4.103944385374345
C 3.9910920572722834 5.133530817081455 5.666790333906013
C 0.9854006954280076 3.218695341134724 4.918809622437635
C 5.085867090582945 4.175318166354439 5.897583145151613
C 3.551968856798948 1.0340806018166588 6.2337277032233605
C 1.5240938006235785 1.9950201217205439 5.362577508475522
C 1.6376153965885474 4.497031819988419 5.226546268694646
C 4.833712801875532 1.7352563132069372 6.257459447896121
C 2.756449218980062 4.512472812503187 6.107761012133254
C 4.5778821750158345 3.098914647490536 6.643343956762872
C 2.503084178475108 2.0415599719109094 6.416316182003115
C 3.112187998889062 3.281835164297282 6.762081027999666
