48
Energy = -387.0555661 eV
C 3.6744017961514968 4.413941726378881 0.9309597588520877
C 3.394875898941142 2.0874666513796893 1.2498157317868954
C 4.991910513613441 3.833181536524161 1.1501884361263317
C 4.8011279908527875 2.406735661702506 1.372472765942755
C 2.4701263952651287 1.4524424051811287 2.1746000549513735
C 2.7529371740436144 3.2916010017778965 0.7042452995551435
C 3.041351907109566 5.303194891366352 1.827438575841295
C 1.494329743573852 3.505364707254703 1.253282786512095
C 1.2993690745531907 2.406810500053427 2.2649690116542005
C 6.115939455558059 4.259335386365281 1.9542846956138973
C 5.815244214353723 2.0139513122211685 2.3684359413009033
C 1.729665661240321 4.725553893303567 2.140219577198486
C 6.7892938553761475 3.0621725678860146 2.450843698051742
C 4.690974600528184 4.603073320818086 3.4497747654744773
C 2.788036254246126 0.8722195272889267 3.4414914040640294
C 5.972443198927462 5.258527843828216 3.108134292573835
C 5.081664015962997 6.517745290245339 3.111097873004968
C 0.23531554878887134 2.3871604790687138 3.262035169349458
C 1.023748987241161 4.782809554208554 3.4779922613176906
C 0.0324116351183848 3.7459645016286975 3.857421094913567
C 3.733678390977446 5.790465517925343 3.0626088928281314
C 2.073682049707689 3.6447912624077348 3.191269536821422
C 5.349401602937907 1.4640110425098127 3.59721814359806
C 6.927105535238391 5.231737035230261 4.464032388524546
C 7.7911819111051965 3.371933797270804 3.3922595195111103
C 4.133900703969605 0.7855755575698989 3.9771094559438387
C 8.071389327698714 4.439767567578324 3.987357797261154
C 2.9684072482270367 6.092111585810144 4.412748230331937
C 5.201287824828313 7.032255514352567 4.393894704479934
C 0.44980190692658817 3.2976539387681325 5.1627695243561575
C 6.402818824327797 6.594910646172052 5.075993994752301
C 4.353395558803876 3.4065715430316157 4.002223582278453
C 1.900744752201411 1.2587767884772496 4.610632656360152
C 4.444148379297466 6.218789664896212 6.504397133743947
C 0.6642911355101556 1.904637250942877 4.545736868812244
C 1.7789803632536403 5.271765518932129 4.696593964195072
C 2.9930362457929793 3.353640241541812 4.189583468135716
C 5.130677283581869 2.4053509772831063 4.932943336877499
C 6.21007918960369 4.6367562447763095 5.792803203679309
C 5.343079339033821 3.5459240465246458 5.934693503416541
C 4.107548913413617 1.3712623464458877 5.308924675961272
C 3.989888899574048 3.8601686354507705 6.5057174850187485
C 3.973995036141418 6.737146472010343 5.202878553196687
C 2.826480209956169 1.7778768240814131 5.635687417070927
C 5.828822062130539 5.940128392262149 6.223369014514775
C 3.7402638929474845 5.123923031369951 6.97873227581992
C 2.759771546348506 3.2553137675213413 5.858696105675929
C 1.508587364786372 4.109115450143735 5.6610347925172055
