48
Energy = -381.8051179 eV
C 3.2768512598289816 4.517798680854123 6.9156461454324845
C 2.24750483294945 2.0166694689973 6.576495132924653
C 4.5403824096152565 5.136909788921102 7.092040188815937
C 2.8363001377775743 3.149198028485818 7.094632901724964
C 6.473267532432496 2.3573916667530717 1.310561669618404
C 5.981524807525424 1.0959580965257012 1.6494579859587515
C 2.3118256535655095 5.304268466686629 0.5064469115792489
C 0.19257646236474432 4.297773754789812 1.7950675535587275
C 4.523135789847969 5.924312966991368 0.9294452373266606
C 1.3586584976180578 1.2493617785558278 7.055092994516894
C 2.4268290062863964 3.5331980037307744 1.1500719552813286
C 6.90626942043871 1.021537183597079 1.5305253149466675
C 6.099665698084655 4.631948212155287 2.4791308014850317
C 6.451878707837697 3.5510633899796247 1.6484624559656396
C 1.2470827929571375 4.49279755757803 1.0465972173574667
C 4.827132425154213 0.3014463403521859 1.7008627677506165
C 0.3192814507223448 0.9359664053119156 0.513270908210163
C 3.0980321144954366 6.154619717874377 1.3458318580971882
C 4.030198737061901 2.9310351722560535 3.0780825301124706
C 0.04489258364236621 3.755217592486764 3.058172840133084
C 5.788600416550805 0.4159789930904235 2.8442586707593276
C 6.605668086349562 2.585434864690686 3.4830852891663886
C 5.28464806066965 5.772873327767088 2.147048987449334
C 3.0117066335181657 3.5537407807459864 2.4595925506200307
C 3.7122027723884896 7.15520399212646 3.641667977926921
C 3.587496064745668 7.299497582056616 2.241347216786164
C 2.2967294090890475 4.7650755211546425 3.2213760867341725
C 3.0256269519189893 5.976442733671498 2.7503658057640874
C 5.058586536801906 2.881613617279534 3.9602866518437114
C 6.473267532432495 1.2879492503527545 2.8240319279953603
C 5.716510610687629 4.213203325284244 3.806926267508987
C 6.521318724843781 0.2684535189445324 3.86222185211568
C 1.122429299999451 4.2304336570389545 3.938196814663699
C 5.08312705902819 0.12603859828099576 4.0091712523508
C 4.760297799984195 2.1968484205099723 5.283870391288005
C 4.743490887805449 5.163412714267138 4.361133963433751
C 4.389423829737825 5.998412171487776 3.2710179259762366
C 6.712430588942191 2.251140378871593 4.859288647714519
C 0.8025495792916362 1.0657045555713445 5.7482448440235006
C 3.167784436589851 0.23703012993954908 5.008023783498793
C 2.7366676424653824 3.87421989245829 5.682510283963403
C 6.758393406240832 0.7857333910758414 5.098886707362802
C 3.9201839188798724 4.5792487772338815 5.371905900318405
C 4.565533624665905 0.8238546374034279 5.189778841978548
C 1.4147985951320647 3.6293660741722324 5.192291962796063
C 0.5788357164681234 2.5313504734979055 5.562869463680811
C 1.9875338058959637 0.4895027257406668 5.530326935976266
C 3.973313006729133 3.2401759126566656 5.857814686615047
