48
Energy = -393.87603592 eV
C 4.295968930543267 5.798689562888946 1.6201948729730207
C 4.516712526464113 4.2783045751295905 1.5651748730499404
C 3.1699775476544203 3.7160641959774456 1.0578313821846468
C 2.863012364932133 2.4056591256622 1.4218661196212425
C 5.749472669291954 3.372155745766083 1.760734507127706
C 2.214074150793537 4.677630000901045 1.6545478937411362
C 2.8574570387991187 5.919538308232382 1.8943091421285896
C 3.958006487018276 1.6194916764838658 1.993257719017555
C 4.969694139575142 6.58630869192232 2.5495898737921454
C 6.767112794647577 3.7196586866499204 2.7059658773639033
C 1.412415621607336 4.048096000874264 2.6719051670905993
C 5.321105373198243 1.995229109906951 2.0892286769738484
C 1.8915652597868116 2.5750156466152188 2.635575259115687
C 3.1779630717346468 2.8545719875395306 3.409051544497965
C 4.135298057819291 3.9217903191423216 3.0520128963322932
C 2.668641144748378 6.666295692548584 3.1067766708668034
C 1.3145360733726121 4.747990324734207 3.91595666054582
C 6.118360923010601 6.155060847006166 3.314725729164015
C 3.9783463884340353 7.209014430101973 3.464348962747025
C 3.5460192687713072 1.275668819054327 3.3880349373114136
C 6.965838947697119 5.023181599294216 3.338261694203222
C 2.039959346511222 1.3183284097626344 3.7042197573219293
C 4.2600505117891245 4.255305893753505 4.378191014594558
C 5.855959343232434 1.6760458156236129 3.4176984285543583
C 6.778826676662481 2.712524413408597 3.7809544448586196
C 4.7734225588181225 1.2129561492344318 4.248506769640049
C 7.3355027476793815 4.758857957728507 4.728381575292981
C 1.9007795161080165 6.06030789605692 4.143559826930654
C 5.744035310371629 6.438598990057933 4.702563651152003
C 4.956187175205414 5.14955491041991 5.210597930532709
C 4.447361796316493 7.222715173677005 4.797370221663707
C 1.6518260016400008 3.9384260013989523 5.148810115457277
C 7.0089881679927695 3.3815026428296635 5.0710578579993815
C 0.8208175911032591 2.6783432428108824 5.3499973641763985
C 1.7734042610278247 1.693432010245649 5.060125801059968
C 6.696955843043035 5.672008558102579 5.602382525560909
C 2.3887359915305764 6.145470812542845 5.5466730462478395
C 4.490328724629711 1.557726078124048 5.574443567850254
C 3.0861369551046978 3.371083737145754 4.767478786785549
C 6.142003237054093 3.399044693958763 6.235728699827864
C 3.662057130708549 6.70487578494768 5.888106678261818
C 4.387578370382628 5.455487589537747 6.625534761751094
C 3.130897521272288 2.1925622113851926 5.76218178638553
C 5.822757393694548 4.866375288848246 6.482927225124714
C 2.192495273170095 4.885757413839954 6.194572186614722
C 3.3523094634154424 4.438274037090326 6.903313818109175
C 5.030166809614421 2.537573215913528 6.494867498378203
C 3.716284581612656 3.048852804715372 6.9078112796103355
