48
Energy = -367.33847311 eV
C 4.941002078404097 11.26855769698601 5.803680592122047
C 2.713130359273409 5.97918818219007 7.155566290432452
C 5.878972628590652 10.422532060222332 5.872360382406828
C 7.135426005473983 8.016423100473187 8.652820900391596
C 2.7407583062373364 6.52537318984243 5.87981859866846
C 7.561452360026922 4.599038498505819 5.961085868052357
C 9.336429088689082 9.161306039969487 8.339114475672185
C 7.093087480594867 6.122598941697257 10.227665266328893
C 8.386569018386066 6.1673111627027195 8.052366600738374
C 6.8352578357334846 9.402987152296424 5.628967704957045
C 9.283852593457217 6.43731419663024 6.984393406838111
C 5.978018838852402 8.026615904595438 3.575036537045915
C 8.832729975616559 6.197123727159759 2.814978944339212
C 3.598227949488833 6.520791467645928 8.249437612965796
C 2.5768039027635705 4.3368753391606925 8.714916134452787
C 6.782274049285958 8.52254461235228 4.502733322278693
C 11.685530334923026 9.410134786757954 8.921726943880403
C 6.390868196825463 1.0085285631687517 1.7278432424375094
C 8.396997276389103 7.809747426102465 2.508773930000739
C 7.473194501411784 4.865422097248425 4.5245488080028995
C 2.9327932115840407 7.021703611746455 4.764771308038574
C 7.40183067684538 7.508979662643085 3.614783898065459
C 6.314163026198687 1.510939046146867 3.018125309266071
C 3.308283804632287 3.902397356089667 9.75183673010865
C 8.246266584711632 5.4883027937366355 6.863864174927365
C 9.346275668740502 7.123159271320157 1.9032868018691007
C 8.029775692035509 8.927836309514609 7.916773470553517
C 10.59998547592148 9.703171311454328 8.004075254969912
C 7.709028353603231 6.75182264280815 9.17425068035912
C 5.297660586831661 5.278011203202659 10.97346982438363
C 6.663068911014843 4.863337337361897 10.752589698041016
C 4.672641207722415 7.904324015626788 3.1032656227743156
C 2.1649132439423524 4.734114145891664 7.523451788624103
C 3.4378194424631974 7.519053371057809 3.6058337859107783
C 6.6507205550713095 2.4926551111878306 5.372434271900498
C 5.761101489748705 7.9579696633494015 8.450773890503282
C 7.686208051217583 9.336215026783508 6.653069985363116
C 3.5381387766131795 8.03069067956846 2.274024239336628
C 7.03369302510582 3.340079621582024 6.240589942981585
C 4.092629074009698 4.982286610688702 10.372484239151424
C 3.51084592751064 5.635547721715123 9.327715304278476
C 5.749235954061887 0.28163509357060235 2.6953199110093577
C 7.029511860429983 3.836356191170322 3.7182953539773305
C 7.907815856265932 6.079150869271327 3.8128248334812467
C 6.609876511229269 2.529941809981681 3.9746404450879314
C 4.645098631456874 7.4341859529922205 8.271188577427152
C 5.958471324012018 6.532519492955805 10.998626394525612
C 10.388245585436506 8.837693977921642 9.242677336998087
