48
Energy = -383.055259 eV
C 3.7246192135599285 3.2028458717062582 1.52834075338372
C 5.133487060205359 3.8451870530959527 1.6415321490341095
C 1.2596773859558674 3.7440588870440483 1.4203782840803953
C 4.267629181035706 6.204369107612653 2.344431554750553
C 5.400933292343005 5.352849069977142 1.6754020852239597
C 2.6741675253537953 4.177005612229193 1.441171134879475
C 3.5585997140621815 1.8852665036507983 2.2286257174252517
C 0.29214564432982565 4.82451271766968 1.1040015502086227
C 0.9229946577524528 3.2790101376470995 2.742789680016129
C 6.373396199417592 3.0968692338070127 2.133835103690311
C 2.8203101546113105 5.428740629493541 2.408280956737201
C 4.66126186406979 1.2336752930573562 2.9328259188507952
C 6.5734956810248875 5.454768815735612 2.4629451206790542
C 5.929717004544739 1.9932141368521947 3.0909457761505728
C 7.112496054860754 4.090786048106884 2.831793112405886
C 2.636640860098432 1.7452744580073745 3.402944063474921
C 0.5026560144803592 4.66237934464155 2.546194248218211
C 3.7693283572714638 1.2383202762674337 4.23453842142935
C 4.65714665926605 3.972618988877555 3.0457746683695603
C 1.5802258651698415 2.6561702400294043 3.7799809508161997
C 4.925763453252861 7.020832999348766 3.432714092581104
C 6.249785952104543 6.384842929252782 3.528989229813648
C 3.876593354865258 5.075270342918221 3.39129018263815
C 1.4913554393364794 5.492546331820386 3.288388086392437
C 7.003257121505893 4.6631906767748985 5.261141574054301
C 6.366512073201476 5.863378697232992 4.806839342611303
C 1.5774500000552405 5.156869612641394 4.667188582332049
C 4.089912666060792 2.66704528938262 4.739729954737393
C 2.970741886294395 7.249136380163866 5.057784983807742
C 6.463298314841117 2.4291583624678283 4.464585915914709
C 3.7884204808502098 5.127739677271019 4.845433501723272
C 4.310863046665776 7.22326309499352 4.7559032601887266
C 1.7519184384894628 3.629085368932591 4.962538008216237
C 5.138059815778184 3.089531025466601 3.9483365940579818
C 7.277897242362688 3.7061723558406046 4.250567428754358
C 2.6084262706685686 5.8336683567671255 5.552593423852055
C 5.076575809865921 6.004080127527506 5.510357745078563
C 4.326711894725686 1.605428755048372 5.7182021817286905
C 5.847761014723529 1.9895594526320048 5.842874038624711
C 3.2735866515649628 3.7396823308749902 5.090940705668876
C 2.4837086911935193 3.4728987157604903 6.340336592237502
C 5.272570151950561 5.277156646333463 6.8109491424379796
C 2.863507509292906 4.855024542509912 6.873030304526897
C 3.5275042583505387 2.3995525928727237 6.830744239486025
C 6.308715732433929 4.327055997399096 6.513114044898465
C 5.830221404296698 3.0005399870097356 6.828314603315801
C 4.1393847709933445 4.632569182077621 7.422983753177291
C 4.49235359121693 3.180583169524093 7.451182663673779
