48
Energy = -389.11240872 eV
C 4.639728764247993 4.365176804328772 0.4395162629389615
C 5.670338571385557 3.265776509820686 0.4665045253392063
C 3.617429663321831 3.581501490339366 1.0524804144764082
C 5.476353987548692 5.328721947138984 1.0978107867230216
C 4.679501038067806 2.5589556162637437 1.285641509563372
C 6.460948851816937 4.195065705094645 1.2227685108805662
C 2.8207411359592647 4.179078638466124 2.0973545936749876
C 2.83300811898693 5.758664647373938 2.018650655473816
C 5.217965411639564 6.169501319539106 2.2644676789064526
C 5.324820010303698 3.6590321179658547 3.134274192754905
C 3.8643497241711953 6.485242891447625 2.715000891121446
C 5.02499374961313 2.2358830699896357 2.709212723706258
C 6.749147841341859 3.895578462785285 2.6338473194061183
C 3.00807466855837 3.84464869459747 3.63751277119078
C 4.264272898922022 1.7516537661517224 3.9457246835769655
C 6.440810309925304 2.5559873212167705 3.2272991860273357
C 6.244873536240657 6.181511017218764 3.309798810162855
C 7.083047202418396 4.964861429457822 3.6089091279611414
C 3.0231282950185188 2.437293559398249 4.2844962105636455
C 4.452866167902276 4.260701611470992 4.083605591112432
C 3.5302914922743627 6.914479350117492 4.099748963749913
C 5.897288533056754 6.738391762099969 4.531431769534344
C 1.7156855113800513 5.119292292663545 2.47065961380544
C 6.499822919352508 2.2684242189120014 4.638619445943456
C 4.608003117435699 7.21223584584573 4.993119281192219
C 4.937512642485401 2.0022074065904922 6.3194573736321935
C 7.077472739415507 4.650572580477262 5.001461440430072
C 2.575455724882573 2.508419585080987 5.6459743477574555
C 2.351302264443645 6.259286769029604 4.644956777609089
C 5.248163512970438 1.6112757932863977 4.993251661210323
C 4.868590704996318 4.786179975276867 5.252958546131405
C 1.8543210552382068 4.947297830957946 3.9876186383328593
C 1.2369542876320452 4.63240215638554 5.317972391146803
C 6.787859351550132 3.2984032962950804 5.589976473522429
C 6.280055848046383 5.7695215507436215 5.569224058506996
C 4.627742803361757 7.03794038337685 6.457204343629693
C 3.619090211906014 2.348081003261152 6.612396027219156
C 5.868868807481915 3.0401502115700763 6.780218903018925
C 5.818219358501151 6.343318596922168 6.864522556138945
C 1.7130594260937428 3.610787927119664 6.137634044278975
C 1.7519324542216628 5.889284411196487 5.879427518413751
C 4.261869684247732 4.736988384593423 6.5362808459257
C 5.109906041191901 3.9256911154269076 7.684764165109708
C 2.240828584965284 4.223278415835845 7.3824014956141735
C 3.632020140065101 3.5817977009801414 7.395725066813534
C 3.777539719716674 6.034227635378984 7.236017114948937
C 5.105978724788332 5.42794093339709 7.774742331126638
C 2.337909134476383 5.637430990680364 7.197503103263029
