48
Energy = -390.31856026 eV
C 3.002668319242973 4.802606099428945 1.2164422751973518
C 4.422178293022434 4.59480061421512 1.2848435149113493
C 2.606323420580332 5.990245396621222 2.04085144684992
C 2.038647462865272 4.0280881389325645 1.8919122951823042
C 5.190392528373365 3.4510041645260716 1.7638715150300714
C 6.480537880371762 3.763661823635733 2.449929122479534
C 3.7898161632549354 6.673012692260636 2.3813752681095006
C 6.081725834266036 6.198976402767786 2.259647977672978
C 6.933163691435158 5.1273315279422125 2.6710470928824077
C 1.5360198161834513 5.136046821783936 2.724353959358377
C 4.613087439113686 2.196126293136 2.4559289228687042
C 2.3031317661379305 2.8814922323201797 2.719126459725908
C 4.8781449456467785 5.930254431703097 1.6682373670009265
C 3.250502552077679 3.794978182678067 3.7460794706332714
C 3.2602380867682323 1.7678901891373722 2.8817260990445432
C 3.6522144462701496 5.0587622530584975 4.2510652502826956
C 6.705084224055564 2.8672090328840896 3.5523292121347803
C 5.856391461153175 7.130761829548927 3.3934415313423436
C 4.445697477104796 7.338162758103003 3.5588176303685652
C 5.471868630069523 2.05866311186588 3.627289034184473
C 7.4378019189445 5.532412151237371 3.9553547551075856
C 1.7375381737836446 3.236980346051784 4.0389579487104905
C 1.264760986374708 4.683937124204514 4.061003022285476
C 6.690350018858214 6.717314804873118 4.442831798318597
C 7.269494045990976 3.270505115833865 4.796708395652288
C 3.9906099512081017 7.228038899694616 4.9152513274041745
C 7.605311366413157 4.660369516278782 5.020923261100999
C 4.781591350837181 4.420806245241967 4.812212148851572
C 3.2093789420264796 1.5097284470506385 4.384462045650479
C 4.488129936712536 3.1719452881068806 4.232468761035497
C 4.641486301676545 1.8309192012258497 4.904752767745861
C 1.6842454502768687 5.263820083535552 5.322400583204791
C 3.036473454894877 6.042876324280975 5.199942302703891
C 6.26689432408534 6.520563622932503 5.805572253230656
C 2.089605769122086 2.2645759205475393 5.0563525814184045
C 6.630464510301554 2.851504448759345 6.019340200038263
C 5.363066287040683 2.24738798427019 6.198795720283483
C 6.932205957814502 5.2254740304644365 6.231024585774018
C 2.9251177970933044 2.3547695479932957 7.413275447574274
C 4.857690565861265 6.873557660234176 6.028740058210147
C 3.888950637153697 5.7206310955220045 6.519226506240261
C 4.7505256066905375 4.562606737850515 6.1737061686371515
C 1.954753445235515 4.375907657826876 6.4184695449166504
C 2.0749010796221623 2.8144675953179488 6.37403459990478
C 6.4156479054438655 4.044933733651841 6.895536844104491
C 4.9334648394285265 3.4468937103259583 7.1144224960672995
C 3.6048359585929615 3.5373000981131617 7.777395035341739
C 2.9580877692021654 4.800917400703158 7.349742183906217
