48
Energy = -378.38402943 eV
C 3.51652765439057 3.0936369212723833 0.707711937560946
C 5.87383335042796 2.9414167150133905 1.1509446689086775
C 4.124798820149722 4.480970106638873 0.8498993710020402
C 4.632098103377573 2.2363968711932958 0.8687609934937047
C 6.715967668749469 0.29889998858327343 1.7770075839476998
C 2.382787405497194 2.457519341349436 1.4526075995107888
C 5.576279519261753 4.310420852487224 1.1227983438496023
C 2.865952004597126 1.2929960318755398 2.157332996405357
C 1.01597769202658 5.893952539160948 3.8875490257102148
C 3.609066388537258 5.44530593910037 1.7220006723276078
C 3.639463294610285 3.497214123965499 3.338006017145813
C 4.32402473549605 1.269566453369458 1.9584577427255199
C 5.416252839402025 0.32047645619737714 2.4639003388828646
C 6.219254010823091 2.6671197120637506 2.6066549334897045
C 1.2226970524418277 2.9834714138950726 2.2611979063423298
C 5.938443851845337 4.913064701813424 2.3679500827894686
C 2.0593564605890147 7.007466871502606 3.485726263431858
C 6.6604575765187 1.2366954554307696 2.912732232651577
C 4.830689855775551 5.783644534523212 2.856437997863416
C 1.18788770574132 2.2109829958086884 3.437674594433004
C 4.679676055516463 2.425514055475482 3.054971891766576
C 2.2238569978343277 6.076278573664051 5.006134337765127
C 5.753518207590496 0.6139995029310841 3.8692686836540835
C 2.780883068808149 4.660049466121112 2.721141731746463
C 1.3113406253844588 4.460083305993669 3.1608062749937758
C 6.4732699246994905 3.974312131661228 3.3064776290186595
C 5.218950048271252 6.500339170313059 4.13510734258537
C 3.8647977263741113 4.893952780905203 3.697109661198909
C 2.37053629224298 1.2922549119597593 3.5371370616055606
C 2.9398363676526142 7.2477751976142 4.539030234067015
C 1.240108324141543 3.373199337244413 4.3359941284808174
C 4.308741162224208 7.107697035153085 5.013604112590466
C 0.859045366101895 5.861483855320637 5.392402642876294
C 3.284919932564769 1.3975606199168364 4.673302593825227
C 4.8078037183665145 1.6810957472952939 4.399070650364398
C 2.7341292151241747 3.4656878150852277 4.567954101892961
C 5.773224528551285 5.4361967916215495 5.127333868313944
C 5.321680955308227 2.9306472281804425 5.279684349674403
C 6.098757349434096 4.090924047547524 4.6843617094620384
C 3.126126649782877 4.897494899307094 4.967458406584186
C 0.9074926828999578 4.810729145935198 6.276719797089378
C 0.722498468622334 3.4471171670658616 5.7858113635136625
C 4.713250908044829 5.832563214513389 5.983611641643738
C 4.301561050009944 3.2508336687974273 6.125510523212772
C 3.0509527248933264 2.486023185147332 5.729409454281605
C 1.9434989955316826 3.020836817874996 6.56599757734061
C 2.241169605200977 4.362136131539735 6.942027692233817
C 3.7627984500020712 4.688237562008419 6.363450627183674
