48
Energy = -381.83206092 eV
C 5.241914661462147 5.115280622363668 1.4191520696455753
C 2.6859140435305404 2.0139893592057807 1.4934199437435596
C 3.7834032477878043 4.964099752733039 1.5181789982748097
C 3.244923486336607 3.455445110367068 1.8119973832284766
C 5.686428216634081 6.33188732684533 2.1276681529759367
C 3.358296676060588 0.8494702915258382 2.0328041770300156
C 3.3319702251191092 5.9025536550678135 2.4682926353561068
C 5.781065126536429 3.8627598527596745 1.750819748219245
C 4.683587504731684 3.0587387128119836 2.4094379325396864
C 1.5853964214226386 1.7941505109948959 2.4805068612768677
C 4.446722557748757 6.840600456322057 2.780079596765797
C 6.942769168297579 3.6214800309472968 2.529458168145548
C 2.2145297210105594 0.648071814201385 3.0361026361508423
C 4.368718019047742 0.7071477182242002 3.0248231640022487
C 6.870514652107875 6.244252734365564 3.00942921531764
C 5.337352557182108 1.8312835956720157 3.289208304648598
C 4.959171033228082 4.8427612447431505 4.059965829533628
C 2.140507371543588 3.91451921228639 2.769201265354963
C 7.4290003394504245 4.825693485032133 3.2167785485846134
C 2.4925546742861795 5.127777131863514 3.583752565432826
C 3.2441693847519155 0.7258654563998496 4.0479738400742615
C 6.736191730944637 2.565293332276013 3.4865558039740634
C 1.151755044207659 3.0310997337326504 3.0880613433808963
C 4.472539794326365 7.526177776152174 3.994507193243141
C 0.22093967069116494 4.7322261289312735 4.797874803376078
C 3.639399567808757 4.55659910272176 4.429093035346759
C 4.49365387761642 3.5645304530472854 3.795535455660109
C 1.5474610522755072 5.313813908455984 4.796807934574709
C 0.2656921088364022 3.3857705591924367 4.171207493891846
C 6.668438608695122 6.700950703833589 4.4941285788962135
C 3.488475625012329 1.7465764917757582 5.056544127101202
C 7.499869619926562 4.442603873877282 4.696661859313885
C 6.204497259063523 5.263046150203266 4.189130494552492
C 3.465837850597904 4.111807100526518 5.890060834122657
C 6.93969431411667 3.1055682076140423 4.8285507411785975
C 5.402562475016039 7.313065684987039 5.012521076796334
C 4.788418063270329 2.3499661448419458 4.671025052644534
C 2.814931319321981 2.6610087397930964 5.85589174295223
C 7.008305924450732 5.588357398289 5.509559037599771
C 5.7241019226723635 3.031884654229089 5.6487454225251215
C 5.081308148883032 4.136304428519072 6.3107222675668
C 7.499869619926562 4.247017643255709 6.130942016228791
C 4.987170610560173 6.644576570643427 6.209616461742159
C 0.23206910428374347 2.926230340495389 5.526929928613146
C 2.1444612397152607 4.927436031593593 6.068771626213037
C 1.4556157702202999 2.8017444148993267 6.326582632562236
C 5.744909726074819 5.470857379594581 6.387761608506655
C 1.1454218540848944 4.175908103568193 6.765409522918247
