48
Energy = -387.85461129 eV
C 3.534102729710276 4.062900203986924 0.009823954877125987
C 4.320742867151194 2.845709986010088 0.38096647674926964
C 5.452348377106646 3.6251357091629517 0.7802895862777182
C 4.60278890509727 4.848263178420554 0.5403315142276675
C 2.543274022916054 3.6069828933922508 0.9331892269378558
C 3.2665092881011857 2.3350658263626127 1.220562005393186
C 6.096078718361644 3.4287636900272997 2.0524467122856986
C 4.320166165000822 5.6577202494281655 1.7662857917971928
C 2.917850679449531 5.768755243925055 2.40840294503888
C 2.39355471273661 4.347044346673156 2.212474907122597
C 3.828488599333379 4.590950278973701 2.754992760632307
C 5.690710230880994 2.439856537534953 3.033419205074551
C 5.2404855047237024 6.473602843259227 2.6333860566691873
C 6.500296512945189 4.402718815575106 3.0644889474712422
C 6.33645301753342 5.814657841763028 3.3162011335657837
C 1.699388175789535 3.5914501530664475 3.316050423399316
C 3.3311802568086604 1.8687874097867865 2.5788331481218614
C 4.554915531619978 1.6392783910188162 3.314360936105178
C 3.0530394979436952 6.599672926063971 3.646386472194374
C 2.35351314183647 2.3269277537823783 3.55897409267404
C 4.442942342677212 7.0439180964106916 3.6598834283213413
C 5.845102579513598 3.4972030619414527 4.096330619775766
C 4.467627636510641 4.27988839021553 4.022594999730317
C 1.1884528805605872 4.283303503069962 4.3715627547616105
C 7.1231709404088575 5.557579802679519 5.799155814979053
C 6.346755384513282 6.214250756424688 4.734326480288309
C 2.643609552654597 6.215829553268712 4.952355374387519
C 4.225442384697627 1.6269404712960611 4.759638531417215
C 6.031762152973544 3.233784658080539 5.594609514740499
C 5.080103486603814 6.901570897446812 4.963709247853398
C 2.7217193052261535 2.8099299868293848 6.172864999293688
C 4.29332708044086 4.843162628928358 5.246357439152593
C 1.827329016829005 5.044865271661012 5.333101248648701
C 2.8596165044996913 2.104476475625412 4.92209463142657
C 3.9212938848511336 6.290413045597969 5.793360018120718
C 7.041624776875846 4.145262530704818 6.273126153862537
C 2.2981406707718275 4.2163435025919105 6.480426637102074
C 7.095071625122588 6.070014330539216 7.153309419882219
C 5.0271586015147225 2.0298242445913965 5.860877168642124
C 6.1470405707186915 6.966817069224203 7.532771881963894
C 4.809880922815487 3.9157115929200885 6.165183527978876
C 4.022418398897649 2.633605938439393 6.825047776775174
C 6.828768238203294 4.643784343818843 7.636300843428529
C 3.8262106893524344 6.080976958327829 7.297049352308886
C 4.387680688293129 3.8720458403176563 7.608489204611552
C 5.084533362410103 6.096348600442516 7.97844479952837
C 3.201376049817611 4.775169925060957 7.419129596677546
C 5.530941608098433 4.687722516230644 8.181020508623847
