48
Energy = -391.82151908 eV
C 2.518188775655605 2.788035923468497 0.6977947102180967
C 3.6964067820948103 3.549523254246754 0.5147095767647704
C 3.4539426672922398 4.924977531549349 0.9439361251839586
C 1.3776388409339462 3.6607275714952556 1.0049319261575216
C 1.9718122575574588 4.956992776991609 1.2152653350016613
C 4.983251222429701 3.0932730367293426 0.9032733311731714
C 2.505671110160273 1.829292844754314 1.767566148535561
C 5.062935113758344 2.0196696255325155 1.8364371955173007
C 3.7749562231983025 1.7100024560883975 2.5105357715459697
C 5.621141324517568 4.3161167917658005 1.3517432346555611
C 4.592107571887076 5.411357924573081 1.6570212546281429
C 1.718788107061401 5.119396007738263 2.5978062286295325
C 1.2472707358106812 1.8705461796645892 2.4820497778411696
C 0.4752515301653548 2.9918294988424994 1.9398537499593487
C 3.605152956222927 3.3176501724661285 3.3067504218079016
C 2.640748442899972 4.391906239657275 3.411461719975324
C 6.067639628319868 1.9123223596156262 2.9033120269207973
C 4.940193517390611 6.003840961473122 2.9712073328085262
C 0.5593018970440431 4.931827347908267 3.4266512676483125
C 4.079166050593764 0.9051749794904562 3.772733174984273
C 4.514838109111049 6.695521905944983 4.198793422262971
C 6.414040466954425 4.1665670431066 2.424005231687298
C 6.906315507284276 3.041789437829399 3.180660680224176
C 7.189043706310373 3.6869152521042534 3.077514494475941
C 1.0100008505956464 1.799831670014099 3.9162868989057813
C 6.9390395949212795 5.048315918999448 4.583642671625176
C 4.540201956759676 3.8720378374844087 4.122395131833071
C 0.12687553288617887 2.870452981994479 4.252194260991765
C 5.951574923161755 5.06639169407972 3.4367487685243168
C 2.6166130571742614 5.080121388019566 4.773257701678531
C 3.4388363103899233 6.301743708020724 4.980245908214898
C 5.335551538874787 6.549817141931698 5.622877951891658
C 5.439854490496025 1.311923332041857 4.048410925065246
C 7.189043706310374 3.629312487569745 4.538333098350416
C 1.122092009957029 4.81362743856425 4.8787628636936
C 3.301565674646071 1.1797733653818332 4.947056001550324
C 6.400468899941925 5.586327282487369 5.783398673987726
C 3.712386955675941 4.175658557547924 5.433201335087121
C 1.9323551007024287 1.604020518382504 5.021734079466491
C 0.7848203081980873 3.5647820649954927 5.363464794900239
C 4.191223329894053 6.1988284528722 6.372272412344725
C 5.435855628523303 2.076265394951614 5.340604246062806
C 5.873147760944848 4.356460335880188 6.343354659108066
C 1.8237741196419883 2.720498563473857 5.925247697612384
C 4.508471983985194 4.777880751020762 6.561072221642346
C 6.3501042157920145 3.168459575135276 5.598759402671578
C 4.125598078283661 1.9586395615679226 5.871682919922993
C 3.2239784833296516 3.025338378994465 6.22074676070978
