48
Energy = -388.38536515 eV
C 4.483856442699744 5.235019935324746 1.572148012949203
C 0.8961485549760486 4.349523186448265 1.5440370876976577
C 1.5480517670230918 3.0737021551543915 1.5568099478920303
C 2.963897784346826 3.1176750345590007 1.4485999595532253
C 3.295818127817909 4.533379296967989 1.2442628954140056
C 1.9424327737824794 5.280290468072848 1.458076317809759
C 4.295821312718143 6.554635196173583 2.14829869108486
C 5.466594411638491 4.843620597174303 2.6309878037489436
C 7.8320850592758955 5.0348531233829625 3.612436920438246
C 0.621356767565719 4.134792982687973 3.037674336375091
C 1.8986491510004604 6.020619936295975 2.7194192899303298
C 1.2495374206540746 2.835313061630443 2.961849827883405
C 3.235758436339092 6.437648291416128 3.1888457930288796
C 3.4973858408674205 5.158169436998042 3.9390253833988744
C 3.45966296610223 2.1769888326720337 2.513856641443957
C 5.118746309689853 7.312502299764379 3.027720566081466
C 4.688862848767156 1.7352454851208508 2.883197241131975
C 6.790922668647363 5.599905428091413 2.8150106467160327
C 7.991013556867866 3.6602976689412046 3.6698543489006865
C 4.7847106577234575 4.5466717724733545 3.8999738919083904
C 1.2589147219011663 5.200494354200781 3.744063485746296
C 2.3952365707451784 2.1972635645631198 3.5649807136778175
C 7.947241799781153 5.958789204949075 4.749319561637262
C 7.363885687833602 2.5994785190530396 3.8712161348744463
C 7.047100598267264 5.684999089284179 5.806385967427998
C 2.3284122673363634 5.087819021475057 4.756002943582749
C 6.497165025580009 6.985784246619284 3.172375878627579
C 4.202845512882976 7.238291982949287 4.142653259069046
C 6.141492852006505 6.8600846682825765 5.5816164723283315
C 7.031207103489783 7.1055109996105 4.448707349125308
C 5.246386473763037 4.0635705661568 5.225790227743543
C 5.120912316494511 1.4866804080867968 4.207938690334695
C 6.389970787673403 2.0421816635675243 4.672087375006011
C 2.7549830080236686 1.9102525013631713 4.882701891129475
C 6.349236367079062 4.468702030026574 6.143307726461085
C 4.0626936206383775 1.3447645373339425 5.168054542465173
C 2.693766074244698 5.038309514449183 6.132945801633881
C 4.692001519045485 6.77368740456464 5.486127959235063
C 4.032002874019278 5.747372054190154 6.339498833002222
C 4.978295912178241 4.678140678026251 6.748957658928722
C 5.234643061809274 2.400520847210153 6.9428553682342615
C 6.097234923601576 2.9098403431959765 5.868776373032994
C 2.269998984257743 2.430590894284905 6.195442587739139
C 4.261470247905336 1.426978623306976 6.6174223944331665
C 2.3770876700405346 3.8420061045080045 6.797979087414675
C 4.604534197466907 3.53647155265056 7.58137145834573
C 3.261063472987523 3.225305679499617 7.7616528943789245
C 3.030825747021685 1.847177013819111 7.249604017573181
