49
Energy = -395.01658466 eV
C 4.736919308485028 4.010154216764789 0.7327667654507454
C 2.482122943811554 3.408053377608671 0.8632463867372352
C 2.3988202739556357 4.81371572478429 0.8201497093680097
C 3.8550152639467874 2.884233688912623 0.6541623049100054
C 3.8328074904429332 5.217207861978791 0.7889249190883987
C 4.096326168118307 1.7080731405860843 1.4506684461861012
C 5.896393164427133 3.83667701064822 1.5822843140985994
C 7.663446261152303 3.8070090221400754 2.3451611096879894
C 2.0396254458606347 2.6759016386159775 2.1304746597723763
C 6.230091061837964 2.5303760366378283 2.1642874246999346
C 7.355968442776523 1.6459146115414978 2.059784957938642
C 1.6909285774662117 5.546205166146119 1.934127346335081
C 6.159388446400959 4.8564920362994375 2.663348633719622
C 7.347344303251347 0.3430865612624506 2.045880300094052
C 5.284348838408406 1.4567249547983423 2.161899472447726
C 6.762370641608377 2.986887380164443 1.763234601257042
C 0.5965832363934668 4.994988554944415 2.712561206173298
C 2.9585927905590346 1.5044720415894963 2.3391260419827704
C 3.95713318084233 6.068432560302217 1.8991721019066041
C 2.7077703249121226 6.300881862991084 2.605314189505413
C 2.8926830652216946 3.5889208848640526 3.013567226202705
C 6.762370641608377 4.290577232557855 3.787882778370089
C 6.6994685441103865 2.8203492538597037 3.5618054964791286
C 4.897490208303438 5.615192552137541 2.955101982561632
C 4.099988445835582 4.2640571643362195 3.134895812644525
C 5.278443674882395 2.5511751030382395 4.144176367783471
C 2.9744745750374104 3.2942044805755564 4.419633943658533
C 0.9814010568374274 2.4458766943481733 4.300509523262896
C 0.6637570383717052 2.5050549195311276 2.7945981257788577
C 4.766308304313075 1.1728438127613792 3.68743441826454
C 3.2713143309509367 1.1293303229886409 3.6399523725354554
C 4.374418968189032 5.996865582023905 4.351219557762104
C 2.9627159367141656 6.1856135587900765 4.066085854344348
C 2.5095707128655382 1.8748481472419027 4.744762678323603
C 0.8153362751374422 4.979432391681327 4.149721647063256
C 6.62871363669765 2.1542141878107293 4.939237706466102
C 5.428533069966561 1.2521724059891959 5.091468126656517
C 6.378957953345892 4.499801560558479 5.188699513258389
C 4.423478581933839 3.674131318425968 4.4066960053018756
C 0.8626377907152496 3.6871114750581198 4.883275096935129
C 4.908866600357006 4.90044921102886 5.3703108863781726
C 6.488391123229825 3.261776381588815 5.906809842256373
C 1.9586566658423408 5.500054587309564 4.814448417039019
C 2.1849404653266444 4.137828447985251 5.495476664179323
C 4.626694701884492 1.7507455166836423 6.252972736695442
C 3.0363927875754015 3.5077714184129767 6.557967098685919
C 3.214552565421419 2.0896723972656184 6.138005094819748
C 5.3121212467801655 2.9857280743660843 6.678972802382832
C 4.360685181674733 4.070413527171213 6.589437391657572
