49
Energy = -390.49896317 eV
C 2.1468965904760178 1.941709475802433 0.03447195271039716
C 1.772360176749177 3.4655080858363343 7.2053552240888505
C 4.610256797280495 0.5185124625062316 0.6192300168505122
C 3.1917697842696033 3.6508865008922937 6.771832767481224
C 4.625443241760139 1.4879330694870427 7.1201129417121045
C 2.4722203884184006 7.111557263155745 1.3455767690162672
C 0.9762019504581271 4.232066907143566 0.47076191893506386
C 1.5276720170291396 0.5934448861243574 0.4495022334043831
C 0.9654343911983421 4.768688551062136 1.7013224778339484
C 4.126556346377176 4.651129209736743 7.0985636939450085
C 5.656189227956702 1.5342227686064789 0.6398358106900971
C 5.537656704435991 5.323909127164249 1.6416386112085024
C 0.3719301781439878 1.108377672808594 1.405700040766023
C 3.8779846448979605 7.478184903163219 1.6582075814397017
C 1.652795057362179 1.76781384404693 1.5242820772442647
C 3.469379452008113 2.265688923056799 6.900584924270284
C 4.920240934092304 5.14866438013998 0.4487953198008608
C 6.141092645815234 2.05902456070713 1.7613089057363365
C 6.770345694419075 1.635626793422391 2.462510878523407
C 1.7658747051414836 6.896005777977984 2.5630354863783746
C 2.373160228446405 4.921806899430143 2.1924189737226984
C 5.087871351655587 2.0391582788865894 2.858737154499732
C 3.255234562823954 3.8480814818412683 2.1291338849201358
C 0.11897699139099797 4.998901120403804 2.912421483272201
C 6.600589535950611 4.075137890649182 3.2929771852646796
C 2.3427309042473103 5.713290638850922 3.3436717539879783
C 4.367221640148049 0.5612278518237381 2.989430328274617
C 1.171868219037898 0.7738226917899672 2.6386542462069724
C 6.141092645815234 2.8074125869099618 2.914824471109255
C 3.860993355476948 0.3789329874613252 4.244302604431919
C 3.9948984845692563 2.8999365565274737 2.37356336843886
C 1.0293400218233264 5.408254954406141 3.904440291959438
C 1.4904628868831777 2.3276037284257916 5.425629534552986
C 5.287914308117531 2.930904888363386 4.152850440059761
C 5.632043484239352 5.0343793391087335 2.8536853806234723
C 5.289714878862978 4.369957031582502 4.042469327996773
C 1.9726922410483614 6.485762839640499 3.829687451089381
C 6.652905582863595 3.0967251540622525 4.285083780586176
C 2.4632913465951396 7.390294750388504 4.682701905348393
C 2.1526945431830082 3.6233963793704516 5.60306135747002
C 0.16281506468805113 1.3023039971314507 3.5531750636126818
C 3.7803854973178335 1.3839092718311223 5.2622455723445
C 3.0500341516576523 5.535999702717097 4.587113031722964
C 4.417892668635941 2.5917490145987565 5.254831463909183
C 4.189309503165487 4.828199161689144 4.9372414886442
C 1.7784365789812266 4.934158954875773 5.083288244519469
C 2.3716559212154746 1.164979801340896 5.486819143750194
C 0.2328402309169528 2.1987426358845137 4.656850517348333
C 3.6353495216451983 3.6974877296079316 5.647534400737378
