49
Energy = -391.99376169 eV
C 4.353181388856214 4.10070261834094 0.999496141501405
C 3.1059781859461695 3.802714809453592 1.7462470196792659
C 5.234039728736739 3.0034807781054673 1.3459161194308105
C 6.473468524232426 3.5780641052830573 1.9903294316653002
C 4.825374809356174 5.297431831606105 1.8637406054182313
C 4.420260042304227 1.9275840710927181 1.991601111441562
C 4.051413449324338 6.467263006636366 2.439684248354252
C 6.282396631637092 5.054095444782946 1.952840400381256
C 2.1222605694916052 4.722471461200127 2.3449556374241007
C 3.0637999127170463 2.4099437999588122 2.229525862113012
C 4.192340348492527 4.327806800741823 2.928874465867152
C 2.5802145079150387 6.17078969283541 2.636857048585425
C 2.2212975898027043 2.5134620006067747 3.4298138947198877
C 7.052165641793688 5.567959281292415 3.3220469957691985
C 1.580498520735503 3.8161325170269893 3.353646940331144
C 4.822368987849461 6.9671577618094265 3.6012611040508773
C 6.964764583179124 3.2511838557472146 3.340839482451378
C 3.7353443849017944 4.868409756649381 4.267397030747791
C 4.999988366291793 1.7478602236768617 3.3592484021461253
C 7.5122373501568545 5.781648504263855 1.908388104465936
C 6.135104064261628 6.453850964420455 3.998076438915144
C 4.805136926405437 3.204507309032686 3.701911675629098
C 1.9341239622326378 6.794802588873209 3.735679279009255
C 6.4005477983617265 2.0507072517731757 3.8748057064834414
C 7.307633261505198 4.399810291193557 4.198650370983118
C 4.6888129324271155 1.123252282931729 4.723964445241703
C 2.7234216481251567 7.340609157094703 4.889544869150562
C 4.109256835265478 7.201780531687903 4.869893814479965
C 1.2367456736427918 5.818227864668088 4.752724046752203
C 1.322002218122433 4.285961416070956 4.717998265551347
C 6.010882886178531 1.5867512234775267 5.197634660137423
C 2.3832372069340275 2.173961160595433 4.922367124727848
C 4.405454256196542 3.863697345725076 4.872420757254969
C 6.121735691148169 6.050226725047746 5.377834108163589
C 3.5946609979914412 1.470782445816856 5.532477646260051
C 2.5708320244544947 5.1300581122808575 5.008042751682514
C 4.007712917811521 3.5426267758777983 6.178230241331771
C 6.700256135520717 4.689587854988359 5.505098269278608
C 2.0193390052413807 6.414332837408343 5.875903554945926
C 6.16334125775655 3.7947908388160916 6.567636924889129
C 4.889309179795409 6.495540702309599 5.952765405501403
C 1.7156884125403946 3.1758136926793403 5.702448130361462
C 4.337779067128855 2.174845144149659 6.690834537571018
C 5.831498947337914 2.387882892323436 6.355800773099744
C 2.6468261638947954 3.8461476564276498 6.7864747825689244
C 4.253565533689877 5.65273594151521 6.883051372949432
C 4.891854326287005 4.356865056867242 7.2156559886140625
C 2.814341687588744 5.35129357669316 6.594909636543427
C 3.8358076577435796 3.2426902374536026 7.714756574688687
