49
Energy = -404.88364823 eV
C 1.9526547698772945 3.5222951316921645 0.06469715474381572
C 2.6794970845124424 2.220565888488696 0.15036095478404515
C 2.811188313642831 4.6603740194520435 6.396767665749972
C 0.8061615059419978 0.6699233754185794 0.8186461706825399
C 4.279239365557406 4.657602507140092 0.0946077769068922
C 4.051371472944658 2.3059465284833798 0.5058178961783986
C 6.326254180171047 3.1425907211743627 1.8763377256421856
C 2.100294451363968 1.0306979592860952 0.8067348903075461
C 0.8037035892039561 4.988252918019352 1.7107015579365645
C 4.85694974650669 3.5029936117645057 0.5959145320062714
C 0.7302199570764915 3.8122060297860902 0.8530153792660266
C 2.758580474731676 5.901593666889889 0.7249966984771011
C 6.196937198209285 0.6904519362147319 1.4659741325425324
C 4.1733945960001755 5.877110407193614 0.9412913683725593
C 4.115427047389889 1.6982519189108036 1.8765480431531076
C 6.259734254392755 1.8085706835914972 2.3252251048050474
C 5.215538918107633 1.2847140206461798 2.8339131067203938
C 4.731539319350536 5.996925082315917 2.2203224325452875
C 3.232424506647008 0.06460363957473997 3.3117074427197126
C 4.627902427412879 0.2973648985709991 3.6638183878541755
C 0.18790134221103402 4.262685304914759 2.782470427863201
C 5.3600731438914355 3.6049397256373497 2.076221449138408
C 2.4502530321909055 6.483205670432007 4.523201487918904
C 1.9004943098992721 5.850626445098396 1.8494610959904123
C 5.5392727226738 4.685169021439784 4.088350742541035
C 3.3852943775966615 6.4508319056212295 5.61315743890388
C 5.5739602055990165 4.93354258921014 2.6900487512040168
C 0.749715990471922 4.1490668512654265 4.069801048220203
C 3.835115248201416 6.1465199223002545 3.379247000042388
C 2.195841667514699 4.608083083887775 4.021724020856188
C 2.028203706398886 2.088366248082193 2.944598605458847
C 2.501455402868678 5.836645551234159 3.1564635801486607
C 1.3192963554784014 0.8642336607714707 4.6621003226873
C 2.8162941796628576 1.0079454544337632 2.1878650122358634
C 4.33692564922222 5.36672825183065 4.511058801130085
C 2.7510873476486486 3.30813768851664 3.13327373311834
C 5.839676478495497 2.5374773904726537 3.155988514096387
C 4.716095980585112 0.2400845538032337 5.097221562003555
C 3.9769991225274297 3.066526867752155 2.4981416349918226
C 0.6706058633264654 1.7521138261324 3.5765613453165277
C 4.991414133020336 2.7646704990327717 5.54192795811348
C 0.6432717141161445 2.850984941207147 4.6339688159372265
C 1.441145516055408 2.071475834662174 5.504111377018389
C 3.3155270719491963 4.582773771948234 5.094966574009587
C 3.505322102269746 1.1795816659158471 6.396767665749972
C 5.727761546969002 3.284823900350354 4.411509845126406
C 4.884830846123178 1.4155032553680995 5.943917765550467
C 2.722790885177126 2.322835035265362 6.172216802745129
C 3.6505626062207837 3.3842622967106677 5.785808788906407
