49
Energy = -387.80438806 eV
C 6.727938042048102 3.5274360916262673 0.3881896746566955
C 5.284799101129497 3.005009368174293 0.20722813963060557
C 6.894620098043688 2.2706330519732503 1.1119160794539582
C 5.58746869244029 1.7193701843826215 0.8004845207659076
C 2.129693630438518 2.4734401843453764 1.8969745743123514
C 7.098267470446327 4.665462928342372 1.0133432677516954
C 6.059593439024582 5.292662283913838 1.7619042584805658
C 2.830413268367965 3.445335386288689 1.0161125425846926
C 4.186915294245746 3.7705694039373063 0.6214857306385483
C 1.2349983966457485 4.664698234322564 2.4163183652581792
C 2.3124084315403235 4.740194306904997 1.4504715796247665
C 1.0637176728914461 3.21945007966299 2.6375740631337146
C 6.643277686206372 2.0569969537571144 2.5683043356453763
C 3.3464460054741583 5.748642931760337 1.8090871857341333
C 2.6528830221771895 1.466248701871971 2.819949118445652
C 5.288927546266284 1.334143207384178 2.1573322177533196
C 4.574768357503569 5.046961204211458 1.3997802198543798
C 4.090134678449938 1.071950472051348 2.9464081014703183
C 5.964236805022676 5.394134547502728 3.303713936886707
C 3.3634647005870484 3.7994089082375093 3.900685758196338
C 1.5413582966681352 5.6665360168792205 3.5158694616692068
C 0.9948632104115758 2.825790005490964 3.9720439934799456
C 6.714077548470229 2.846021364296535 3.756089876599597
C 2.7088864854102614 4.744290677347516 3.048987368189201
C 2.8209610920813453 3.7862576896717477 5.2224955612612485
C 2.9525801177594855 6.2600544340473965 3.1759949915440218
C 5.143509245968961 4.369985988082302 2.6160171786934123
C 4.564087882451264 1.1824010600825887 4.285909440122018
C 4.588075159282232 3.387766493195063 3.5490150516822774
C 1.8951091902247401 1.6730753149652307 4.095309491926636
C 1.429315124762905 5.450951466526793 4.93155935002853
C 5.090623208342343 5.904737499126968 4.512590221352307
C 6.6371170801601185 4.340560619396759 4.218684183654843
C 2.5910622334145628 6.276821573818226 5.50502533627976
C 1.2552903394584611 3.818225608544487 5.139404045591303
C 5.469988921131185 2.384245842554309 4.406095342511653
C 3.7212933058896764 6.358446449105058 4.480173250137319
C 5.715771368398109 4.789344007334043 5.279221918764168
C 2.4728523145152748 1.7282270748736035 5.413218013756579
C 3.555502257577283 4.077662176082874 6.46266910968248
C 3.924167690616217 1.5266263130502853 5.50134496125607
C 4.996077768035965 2.554704479462157 5.801874578794469
C 1.8605271930704264 2.887679747565612 6.169167202315697
C 2.588166979738082 6.530794197697186 6.8458949589477935
C 4.975311965583893 3.8958571767095953 6.1941387127980345
C 2.611321670927151 3.5439169530629666 7.341767166541302
C 2.31532674576662 6.412368963678929 8.089658958740028
C 2.2658626503812083 3.9339393682718886 8.64821488012821
C 2.3471647117424785 5.2111871056191905 8.675525820465214
