49
Energy = -395.06439753 eV
C 3.5270272790642823 4.399374132518774 0.9184590298323384
C 5.512740786937347 5.480484948287779 1.4818229779751442
C 4.399630942431335 6.438507194465386 1.6894497891722111
C 2.0985845870567226 5.914151667904903 2.269804471019976
C 4.999973889904058 4.2399119863353265 0.9940538568649433
C 2.9904154664305156 3.2224602685467727 1.5428936060413863
C 3.1605357219890533 5.764015761415311 1.3242945022131287
C 4.0501198023298315 2.3559323007266357 1.9786881939831054
C 5.303984037002311 2.9978338009573218 1.6910047676540416
C 1.9966815253496186 3.355787412747328 2.5439925507285164
C 1.5393564255510568 4.671860080498493 2.790331897547406
C 6.993223218367934 4.429766225175793 3.202133521891945
C 4.602015114143325 7.085743358916964 2.9417380531209414
C 6.430385416737405 5.5854356340813585 2.565875582417158
C 2.2648162542016737 6.770207489410799 3.4775108916409803
C 2.4261965001385914 2.643487185414845 3.9779367785882074
C 3.9365765793309633 2.2668659359913343 3.4561114299514686
C 4.909593317485462 3.4447487779465287 3.7127415056300483
C 5.890723914652341 6.596134061356633 3.532084488517078
C 6.669595437703484 2.197072972078989 4.257674293185929
C 3.5396277680498476 7.2540878714423265 3.8874407000869198
C 4.2684451034753605 1.2643580326941795 4.501370672279641
C 4.577622164702374 4.479942196208491 4.509411614567216
C 6.23296302750364 3.1259361781233235 2.958580299482623
C 7.468580868237844 4.457593425565442 4.5571992861635415
C 7.455141891320922 3.1257765205179306 5.069250894215588
C 1.7375336479407257 6.124337961608296 4.670536675524164
C 3.9066277776616105 2.5745298499245477 6.2602707920977
C 3.1234523980495377 1.6117650727472108 5.21726294970403
C 5.487254648196211 5.692414160574611 4.686355041740809
C 7.3733656717584175 3.147162679057982 6.460819421320435
C 2.0935849278534064 3.746990602094444 4.905739204705859
C 5.585867808314217 1.6014963389054246 5.034305993283456
C 1.439765437419247 4.854248624998936 4.206883365282942
C 6.517184890569123 7.028988861622042 5.173423131318802
C 3.7441204589287733 6.999021072203272 5.382858526895114
C 6.812311773462111 5.513062314855212 5.49700590415949
C 2.0434790163065704 2.555404711556976 7.058679529211631
C 2.6648268136706332 6.20445829923889 5.799931600545134
C 3.548896474032619 4.112813162253176 5.436346690774457
C 5.123551145802253 6.618693679178601 5.844844757938423
C 6.115151013747848 3.1275264024945066 7.028082128315089
C 1.803475323206543 3.7256524226453136 6.374973283748849
C 5.321876048509554 2.2039976599508195 6.282975655263228
C 5.816388275892739 5.481441844571804 6.6196094593650034
C 3.9066017036162135 4.290399893873113 7.600182620196587
C 2.8619417180760847 4.907627074697502 6.6020343161236195
C 3.361349363522811 2.8757177554904474 7.586502575145692
C 5.330281447859193 4.398218960620678 7.401965547061272
