49
Energy = -398.34759671 eV
C 8.817282306969366 7.2686426633468635 5.019333583159692
C 8.158032923229838 8.230120992804231 9.91778166986372
C 9.851349365560424 6.4224214013129375 5.684837263386058
C 5.692745472875912 10.530045341457951 8.921752892141726
C 8.06500405066945 10.383728686798406 8.962156335398136
C 10.30345538082912 6.184527324919799 8.64336165246087
C 4.572136595875142 7.255996813076638 7.253663942170419
C 9.68707142383282 5.16929829944871 6.31426145746769
C 9.603610414153746 8.46945592356808 5.300742883906861
C 7.459601529537143 6.70870923851572 4.972702105489971
C 7.239645899917658 4.424280924654397 9.89290006637789
C 10.128122368970008 5.165371042631258 7.682689243379268
C 8.870751863597619 10.896053590452086 5.520865668406654
C 4.504687178302591 9.66579158401325 7.017461608410533
C 5.981195476962092 6.587377620596258 9.274062780727963
C 6.1188273598910135 7.248140522158388 5.388742768558986
C 7.14521327326778 7.4514665716913555 9.109931277886284
C 7.431852256284313 9.492360030404114 9.945179048647127
C 10.27649713579299 7.567243732011108 8.617364945799507
C 8.64804958196698 4.261325157783176 9.577178474234291
C 6.550052062381815 4.472384247836878 5.73525963475719
C 9.427133840784187 8.488369219222195 9.305390161721025
C 7.778421447890337 11.42256202854555 5.860180676512485
C 6.899551574151715 10.707557744989533 8.076052292467171
C 4.868510330319038 7.404101724681791 8.692254760790052
C 6.201208562215448 5.167869298058104 9.226796282883654
C 4.35871544058666 8.388166126040113 6.439761272003652
C 5.418418431599834 6.425451024589883 6.4080321810357095
C 7.056877878006395 3.4504685180621806 7.751615270895387
C 10.470961330450196 7.626991616942939 6.139728889281168
C 5.975029027412013 9.593419822118781 9.917207702907755
C 9.536207852463257 9.776085132811918 5.91534244575658
C 7.522561084315184 3.6219245564025657 6.41184171842015
C 5.9936863260249345 4.454253651019629 7.95828007773393
C 5.813458640222408 9.843460053891752 6.251968360014139
C 9.992655911441192 9.533351902881693 7.319822215976117
C 7.53780830069087 5.304981779898794 5.096141903838904
C 8.548138434796236 4.4623989626651515 5.8259393697014135
C 4.507621360457217 9.85429088133189 8.386433026424806
C 5.4315613825289635 8.50574568551616 5.431512224556103
C 6.746945002488301 9.229878755560444 7.294755050467456
C 9.72133318313186 4.92362509252697 9.001526411501233
C 5.702587571497974 5.072220162444968 6.667317687188124
C 9.314756267831022 9.764224896376424 8.566922649081398
C 7.724422584052648 3.4177632026687115 8.984949027556556
C 6.9974221820261695 8.087098277650206 7.859668454599482
C 6.68526295585125 11.128304006119485 6.566228054954891
C 4.800823074200914 8.731368283137426 9.253577848452002
C 10.624794302195692 8.233194436698843 7.3771588265450365
