49
Energy = -390.85213752 eV
C 2.413340023238572 4.411799545094581 1.398550146251269
C 3.896264512047551 6.181713447274598 0.8242651177518154
C 2.399805496055891 5.970333428063383 1.2632374946343619
C 3.4967813902983917 3.69775273525079 0.5952428595127504
C 4.515946604871738 4.811579184166497 0.8387596908738677
C 1.298978547026153 3.9025724191898092 2.2866356654528412
C 5.752466751562656 4.566797564655327 1.6779500483247463
C 5.012895593893791 2.172624825764185 1.7464464246929683
C 3.6967130058825455 2.3992119232403404 1.0601693178197307
C 1.4718226189970784 6.313984085710448 2.3550083825504617
C 2.7514605989729404 1.9329404276332123 2.2223621162671896
C 3.7204206602241054 6.153343599336934 2.2532552186836696
C 6.051353721923694 3.169472445732553 1.9204921892558777
C 3.4506121822171334 4.729382376346233 2.5145161371973526
C 1.642014467665185 2.6844686688905126 2.950108406229354
C 0.8409659285228557 5.091268887141229 2.8903074728250724
C 6.175308605897909 5.313214925270205 2.872773378175605
C 4.960080865883902 1.35338087130441 3.0361945457223785
C 3.8614356076746756 3.8447801718482033 3.469943077998581
C 3.952053755281883 2.526779460262642 2.985034431852023
C 6.601246320754936 2.9887413177024773 3.2315208861870635
C 3.4343268771187585 1.0783944297058372 3.25695753254685
C 5.528396599856733 6.541348448734887 3.5393057018021237
C 4.163384055603065 6.882558060348261 3.4143510881287704
C 1.7791052777846674 6.671803140400054 3.784354506266762
C 6.74097251872396 4.3201134613621415 3.8542417133758353
C 6.050279184693661 1.8697299797113178 3.9335025213334482
C 2.688886708820705 1.22837481709176 4.486377147780162
C 6.16603563699564 6.6764106786170725 4.792516310177612
C 1.765455703044815 2.384880644342031 4.375483750621758
C 1.1084976480970334 5.4885952712460755 4.27974851329138
C 4.280090332501437 3.9946947936863366 4.730244393929139
C 3.069680357613005 6.727532173087633 4.409638880220599
C 4.672268935430663 2.913938587073939 5.5423255709832375
C 3.0740470544647613 5.739023976800528 5.490296772096944
C 4.644140638678183 1.4017599241847165 6.132243170749582
C 1.8767773305016406 4.851436406268578 5.292371845220174
C 5.864211426134774 1.9506365063787043 5.414394040888421
C 6.641259671665017 4.438233772325653 5.2880341492950045
C 3.27561924722301 0.8685977476393235 5.7071343175306675
C 4.4075374014268505 5.063292311048852 5.780072144827802
C 1.852069610829501 3.381570187685582 5.570686701871749
C 5.863288634830912 5.647491930192564 5.591137753803839
C 6.126957090828395 3.3344832503390984 6.1323222422811545
C 4.736476048461224 3.8502206393977794 6.767351680232981
C 4.069854934853978 1.7284311469992695 7.546556675847891
C 2.8080528845334127 1.4706369748353156 6.8908475265606395
C 2.3944308681490227 2.8634039430461624 6.800827229725182
C 3.7057661192898994 3.1661005446212096 7.55373916739994
