49
Energy = -401.10629406 eV
C 4.774281698498253 2.8581437149429516 2.2258391679137524
C 5.172879252723326 5.353049478575345 1.9335788941790213
C 2.864086827549298 4.493468354642255 1.8204224218526384
C 3.3653875704109075 3.112646012461975 1.9725013085380616
C 5.707627020318666 4.0072867433517105 2.0770379571804423
C 3.7534305657376734 5.58244356596877 1.8328539153659862
C 2.328422812161955 2.3841520842756014 2.6834232679363494
C 3.447883075242142 6.7455866546544545 2.6571210548370368
C 1.6060749106820298 4.594808642093126 2.5580365397272478
C 5.110370711917887 1.8433416172790502 3.2235197104094953
C 5.725474307654936 6.492143606240724 2.7129390058827374
C 6.990271991331517 3.8479545809792333 2.697246191358228
C 3.8905513260373032 4.044800283315485 4.360491452735029
C 4.056984033062354 1.3011065231680865 4.022723815234892
C 1.2408275165966043 3.2722968342890044 2.9985206924115944
C 2.6344718953847006 3.7383659980143995 4.9315040454930505
C 6.225134980305887 2.065512553750699 4.186639293380306
C 1.5317676912170037 5.559408571315073 3.6331660400984696
C 4.671518615621978 7.308513015671898 3.211903089536783
C 2.410971999704492 6.706102998069842 3.643185598856297
C 2.7260565109825703 1.6648567285048028 3.8329156884327906
C 6.711844706277783 6.059962813577236 3.702611982804291
C 7.244734869441479 2.9147917413951516 3.813848961923406
C 7.558101360848616 4.881105057778699 3.5046365919683433
C 5.651636859902819 5.31308633110478 4.674344297055263
C 4.435025512436262 7.6431483909524776 4.665373232422522
C 3.2075198117233206 6.00542027941665 5.7124573615972105
C 7.8865993458518755 3.97692233599053 4.634327871258138
C 3.012827623063918 7.237613766880252 4.886151971131212
C 2.299580266384588 4.787460865502174 5.966333849333282
C 5.171358408712287 4.006280654232107 5.072783769785056
C 6.574912993544736 6.484849907894201 5.130904536613241
C 1.2916593444293376 4.705060501799574 4.855893005024644
C 2.201645947493477 2.3251486010298934 5.097224151772525
C 1.0837792071015708 3.2891699550735987 4.432296330059119
C 5.402479533377207 7.241529773795996 5.679158240191434
C 4.216088548545664 5.336697535406253 4.726632579404331
C 4.3978900508126415 1.4396279012854118 5.435648994930686
C 5.694241609154186 1.9315472593275225 5.579195362924049
C 7.684380355728362 4.407393405197256 5.944191762256781
C 7.392904427189611 5.835314799730199 6.184935568051261
C 3.321313470630859 4.465378766766531 7.143675659642571
C 3.365525397307128 2.101931023610309 6.218844177831953
C 6.606203317312474 4.109522162142811 6.944816807674199
C 3.9424764748147436 5.76177954381201 6.964853796780315
C 5.216706302431185 6.4034024873815625 6.957507553082815
C 5.478347245154749 3.24884559229123 6.389438638909164
C 6.386531501733287 5.578596504459006 7.1731541368305916
C 3.9779445846445114 3.1811578697934095 6.941924046573101
