49
Energy = -388.60010909 eV
C 3.2315469137354405 5.058105073368718 0.6839341534063489
C 2.1572331817101085 4.15829041888133 0.5555334579367833
C 4.642902136731272 4.8998725401940995 1.0725586819260131
C 2.655153481125791 6.121145593253432 1.5476574059931376
C 5.428434556173107 3.725695446700789 1.565518316220378
C 1.454948372028787 5.575775051090409 2.234721419273463
C 1.6866582749890602 3.3342895642361294 1.6385814393123634
C 2.2958502756251193 3.0527312624997514 2.8225293452128577
C 0.9577348969350877 4.511764039695647 1.317590159597078
C 4.884006450391618 6.002017102413635 1.9810152364233489
C 4.698541516686791 2.6460899114404683 2.2977174914300478
C 3.6199897259142255 6.6895247960023125 2.3797483728446753
C 1.7574436300216032 5.4612336640064285 3.5966203761549855
C 6.260954215542429 4.116677091940351 2.6795730709643886
C 5.64733802783484 5.44876013491831 3.1209470817513627
C 5.039529998747985 1.5997508137868792 3.2659871191717613
C 3.7238707591035225 3.439015046911025 3.0582087061144385
C 1.787726788658925 3.052449282625463 4.187907939601837
C 1.4842724760804933 4.354977738505413 4.661145001775134
C 4.162372829926447 4.897014446683643 3.515139683417376
C 3.158719988668798 6.074759805693154 3.750925781222727
C 6.763707095455941 3.2287652835575704 3.7036492857991696
C 4.106111536606572 1.241396144598652 4.422059481362542
C 6.35480621451291 1.8598079235727238 3.8775018988892427
C 6.090391186403187 6.1320341447681885 4.416444197390722
C 6.263483407301083 1.5269499945485572 5.3059637172315
C 6.724539310859279 3.7889981404787916 5.094091801529983
C 7.038351973868805 7.375102182241448 4.836214300868563
C 2.875731488916915 2.2102779747841526 4.952706725857558
C 6.7669808067226995 5.215126077820603 5.5111399638957455
C 3.9258871111663978 3.2313363984786454 4.566462007314771
C 4.890206132113311 1.1227326331872372 5.6209468408278
C 5.1566741800809925 3.656689634520797 5.317270507920286
C 7.495356343784284 6.4893906708089455 5.9314907436194435
C 4.172865754434264 4.646085285320885 4.949335493558069
C 1.8044271434535109 4.6019462471551 6.06235323838999
C 6.568834490579025 2.6652928656593606 6.086597497444585
C 5.063958498769771 6.501366203792714 5.588481846707286
C 3.661367900920959 6.046063518039662 5.319161920795417
C 4.3504517812242165 1.9220820614133989 6.705780295380177
C 6.124790954855396 7.530008286094827 5.984992788591901
C 2.7536578377047123 5.603519007308345 6.446220012849527
C 5.750984293563203 5.571021138391846 6.703056009637148
C 3.0109999370755838 2.373622694498681 6.439255579232981
C 2.554843892062493 3.623137634925129 6.900977469412365
C 4.893685554744628 4.472465099424695 7.359562595475097
C 5.279051030945216 3.082934579507466 6.832010647160924
C 6.703029113535517 6.801749144328604 7.1375127030452274
C 3.5076563113939154 4.6482199856104565 7.3832599697466454
