49
Energy = -389.50715125 eV
C 6.671400910830278 3.93615507366768 1.5836081673893918
C 3.1107130696118057 5.278930883411048 1.8443998236464085
C 6.884338757269476 2.5251896639831677 1.4881811148666493
C 7.677569594980426 4.753915358294357 2.253664063424824
C 5.286068654898326 4.246333165351708 1.7823054128341702
C 1.1901830869504333 3.7346408029637566 2.520972824745127
C 2.5136001693042047 3.8729868825126585 1.7502914229368995
C 7.128836090233683 6.052578284142759 2.50156874032203
C 4.5492643194127185 5.472963888036342 2.0250965591614003
C 6.027088610887341 2.131572060353269 2.526679707557521
C 3.299689505501356 2.629850363456158 1.9670210535724022
C 2.080978319156211 6.08287759968212 2.6956909837272365
C 7.876141796258602 2.7339911825940373 4.051856185176377
C 1.100463813148198 5.026335125695939 3.26328588203178
C 8.23786777354884 4.0936187048076755 3.3865531807985474
C 4.740990594883784 4.722254258890002 4.389947093949749
C 2.5878538441924372 4.6920220911177735 3.150863334828362
C 1.2112053802939526 2.463924424632208 3.133208510514199
C 2.518068790868301 6.853123444556237 3.8969622097447174
C 4.684165203376622 2.990540180759954 2.423788427704702
C 2.540340793395514 1.8670568231612463 2.852417209285576
C 6.382431759557826 6.221791430094194 3.632753582410775
C 6.6028290355268116 1.9970743384219913 3.821191714073368
C 4.892374034593732 6.028210004044498 3.48187679551929
C 7.682333637291416 3.4124017044963275 5.301541275296914
C 3.259534490432636 4.270230502766504 4.3095253624993495
C 7.937299417894132 4.703292319021517 4.671500721253152
C 4.372876813065638 3.416910780903184 3.889740758384074
C 1.7787594205427166 2.4804896361065913 4.504071589975162
C 2.9249712723222516 1.627492422980002 4.291219682506443
C 1.1247164453609353 5.13192167837715 4.784817674253326
C 1.7279790970214062 6.389745238074393 5.062111313522626
C 5.7640091497928365 2.2170553838529723 4.987841727745816
C 6.869452487704275 5.5727876971537835 4.828736686237915
C 3.860198937976123 6.81830132377073 4.328379579658286
C 4.241269768742992 2.229011545119874 4.960992853267973
C 1.993502862971999 3.813989677542052 5.229374406970365
C 3.9115250695104855 6.602237282180639 5.8081461042604525
C 6.334405231085434 3.3329798369211474 5.726815389569011
C 5.712217260934074 4.835584800187643 5.578482596017917
C 2.532218306283923 6.579502149232791 6.26187553184403
C 2.4752989468927904 3.278394739145736 6.557349055376959
C 3.735912720311361 2.632456835398883 6.313219441946205
C 4.787226721776081 5.654919073325679 6.485937501520245
C 2.135952421684554 6.10365381741335 7.496216465082942
C 4.002751699163536 3.502916535160038 7.404661779968258
C 2.6192100115197823 3.689057595780758 7.958847103059049
C 4.307582575349266 4.960581607568146 7.602776317338922
C 2.9352833398062668 5.1571017970063044 8.052587096341245
