5
Energy = -32.24349381 eV
C 5.263380863447196 4.29341882682373 5.541829637965718
C 4.106692172440101 5.18730028640094 5.19577536867844
C 5.263432790014635 4.217870112023937 4.041544703298541
C 3.7729825761039457 4.115979442691852 4.19718854499419
C 5.01697079867064 5.697548346882055 4.115759644448254
