50
Energy = -405.86293513 eV
C 3.166268274692404 3.0246176075039366 6.284513463715223
C 2.3299210029212123 1.9112338485868143 5.802703276784303
C 4.541514777807975 1.231658463269477 5.785681426266036
C 3.179617181643111 0.8166770386351206 5.4895851355943845
C 1.0119966821643447 4.376698030417189 6.415523812993113
C 4.658292770313567 6.041289414288353 5.904399368923348
C 2.779669537702595 0.07335215340573115 4.383258072969708
C 4.555519005320943 2.6358682649519527 6.110937409410584
C 2.3865753037005177 4.219267804068235 5.968912439755778
C 1.00778110100885 1.6644121188796128 3.6607359736049303
C 5.6714964140280255 0.5724884652201686 5.277756461496271
C 2.9440607377600165 6.970081623108566 4.32496417472567
C 0.22567186136314774 3.3622894426533647 5.7654147755419665
C 5.2697341650522525 4.963670664204974 5.9688333593119545
C 1.2000813153639407 2.432013379483137 4.923685360447119
C 5.887839399599085 0.46494105346509396 4.047580464564232
C 2.341306233774764 3.4479809966660393 4.6465588587773885
C 1.9138340451763072 0.5187294016829848 3.4072593349500058
C 5.4699242018539005 3.640031039244368 5.532989987600611
C 0.03741496771773809 4.731944397068804 5.284324273129069
C 2.2507834091364507 0.5056039976453852 1.9712582758361712
C 4.943594596286289 0.6591517884636463 1.775581773148577
C 3.7781031456788723 6.797768140459542 5.228601727974897
C 3.578658451268582 0.4255918119446162 1.47015976298724
C 6.07982453035503 3.648328795213354 4.221279012714776
C 5.788367451915089 1.0814474088871888 2.8427353832610724
C 6.35507959093263 4.873260881967342 3.514960043911495
C 0.37827514020343095 5.340271094656448 4.193165060946044
C 5.766580478125885 2.6402406933665166 2.903090896801774
C 1.4578564166722627 1.5306949432835149 1.4048126977125268
C 4.189210751255641 2.6472401761311386 0.20991597432775172
C 6.560430028126988 4.674028715941416 2.1523769965582416
C 2.336907795732173 6.538406389595854 3.151987755158952
C 4.324858869064963 1.352964007674104 0.7146165665141072
C 0.713081083579057 2.239122307395752 2.411227787952582
C 1.1128989974924943 5.693167672937249 3.105774901163025
C 3.2767508454748824 3.2934912506285463 3.6376793654796704
C 4.34718979612701 2.953730655946344 3.137231077207541
C 5.701473263406631 5.741584679837253 2.483968842125852
C 6.151348233320918 3.4616330698487134 1.6122252591803043
C 4.468459609787773 4.940471724443536 0.6084172817406841
C 0.9051697377664429 3.5333271411152385 1.6287280466375165
C 3.1118398844687243 6.250757932282168 1.9849253199961676
C 1.6995799785218617 2.7690807344495165 0.6598619592587399
C 2.8745165331558304 3.2771792805599245 0.08334965276859978
C 2.30270717184788 5.419334106517287 1.1440430906889656
C 5.142281681153628 3.6627253340236043 0.6094191798827646
C 4.51332977905767 5.909832463374968 1.7191692751708623
C 1.1881815305593655 4.885392807258263 1.8858869809881342
C 3.09925065653646 4.673521799691694 0.26639370156009157
