50
Energy = -405.59986306 eV
C 3.176369169032249 4.036141081628178 0.10906054864558085
C 1.80738651044247 3.8152998446732584 7.539752354298098
C 3.7698239286738238 2.829369914898585 7.223853163579523
C 5.116398499734791 2.5383719137827803 7.441383904073636
C 1.5206951815297431 2.3932300004856137 0.09200784194472168
C 4.847596643854855 6.129413949210605 0.8277493594055216
C 5.926553678995022 3.520201951073543 0.4308806837685841
C 2.837836596547635 1.7470333205621298 7.561314775228095
C 0.8282726106136412 4.724356047400646 0.31208069262293187
C 1.3682065932766387 6.034466152155001 0.4443404710552791
C 3.7608198032731996 4.548433889803268 1.3022252586928753
C 6.0037914970677235 1.5041323961829396 1.7303138850609352
C 3.706738340743606 0.7765251045656857 0.6235876083810035
C 7.225158019917241 1.3967075758813605 1.4543965706730457
C 6.865531129061741 0.6144236033403817 2.352477475023487
C 5.2673355363680345 4.717064100674623 1.1472614493649602
C 5.10077241794933 1.2994721499311856 0.6184731819705956
C 0.22622689382876143 2.4089683745269874 0.7230348102028437
C 3.769701840562269 6.757426907367003 0.6081638913752936
C 6.360703409092119 2.9278983047156983 1.6805516577742616
C 3.367685317412176 7.4497764433269955 1.6494727015732469
C 2.4194351062212873 6.719535459096924 0.4368222021583589
C 5.5965251381962275 0.48917527301138375 4.056695925194753
C 3.484372169789984 4.642081828249284 2.7459258854447186
C 7.060169836693933 4.323966665426858 2.192942040939414
C 7.094341959069367 0.046215670236326105 4.820102487642476
C 5.9862726374448 0.8208175099340619 2.9236548235233943
C 5.741121736062521 3.97332306248485 2.426393410384612
C 6.85151851562291 0.1434232419470386 3.600614399532958
C 7.571058989465938 4.773031134407509 3.231238705516927
C 2.489813414115809 4.868263090812595 3.774901529977994
C 2.819697081810465 0.010551795364373586 2.959198180044872
C 4.690623487726921 4.030641698139349 3.3941722633892617
C 7.453401888884415 3.8504609742212894 0.9477375018381391
C 7.278903991756669 2.094444509019242 6.100310937584626
C 4.0884947350805305 6.757426907367004 2.61042702565971
C 0.16134521936562282 0.7774885919584164 5.825931086131325
C 4.445097007294095 0.21494260826128703 4.7889670163729985
C 3.558488156893726 6.965292418870808 3.962722617263438
C 1.034799379812671 4.781933419913094 4.132283187590107
C 4.347172361425522 3.669420906525657 4.743171914900953
C 2.618891639390012 1.340153964904106 6.330944509620538
C 3.126455504679334 4.427691486166743 4.966850295865645
C 0.9103874676237484 4.197991410248837 5.435667159755339
C 3.9744237712892514 1.1590691234834671 5.70784594472781
C 4.171682815073177 2.5893639528872363 5.672729742174821
C 7.53464528940177 3.276798011344557 5.834874130047711
C 2.231909914372778 3.93906822731298 5.938728099137014
C 1.4928898410329778 0.5716296768229078 6.160121853663647
C 2.8612616720834407 2.7643870358197247 6.386529130498622
