50
Energy = -395.41627515 eV
C 4.28734714553758 7.07794692631823 2.2698410665081794
C 3.1055040574889166 6.920450513920328 1.7943258417120052
C 7.155212424334285 4.748189641555277 2.3269459019158236
C 2.51774489130729 5.777695508929573 2.3643114031398964
C 6.618564737729469 0.15351353512696128 2.8103151837727984
C 7.2993533680437155 2.5336752347660396 3.2135533399568748
C 6.981953046730474 3.391703645729194 2.2016511707096478
C 6.26004275679989 5.777265774141216 2.7379262067048677
C 1.320518177504207 5.201822569169078 2.6594725222128597
C 4.863261713210685 5.897976884389358 2.8548830881680205
C 3.660464693741037 5.12121761259625 3.1125085148450187
C 1.524397402877119 4.15667097119044 3.539976502070165
C 7.892639089032841 5.312105214076494 3.450727429929537
C 6.619014244146079 1.2131207381441609 3.595553940928329
C 3.100337517711118 10.282430183952702 6.239422196401819
C 7.655462029999373 3.1609795631540845 4.496513233006907
C 6.05237079228747 1.5291198093456375 4.9336282864836924
C 6.8607281323379725 2.5636764403149277 5.4581566001813595
C 2.4610696424269256 1.058056840178825 4.8374303889674195
C 7.1994831046961565 6.526303900587779 3.614626032531003
C 3.0318440532336806 4.238366882902519 4.032575905126295
C 6.15372791889582 9.070919843329696 5.248635307645343
C 4.131674169737195 0.15351353512696128 5.556713221885309
C 6.781024713912913 6.596735847903204 5.097938079979812
C 7.983189591623825 4.5326049458762 4.6219025788907695
C 0.9506258041180827 3.014364792755097 4.058539045923219
C 5.3148009317894225 6.233010425278033 5.165593496596298
C 5.2316118415949315 9.932776763237737 5.271103042915859
C 1.5250966698983477 8.505768772251379 7.206450535344147
C 2.653769194260688 9.363957398885631 7.18151874918195
C 3.8144128564553483 8.503037651678667 7.701360043397707
C 4.244459296859515 2.789477186643027 5.83997161220404
C 3.1234115807720237 3.295780040390877 5.087928155357878
C 6.599614797167382 7.912209241747513 5.8428392137941545
C 6.099626148984251 7.800199591197079 7.2065381579084224
C 7.040176869786881 4.647061007510778 6.827447828976376
C 6.4387714605726165 3.349662063052543 6.531645322203679
C 4.751956208524866 1.4987286573899237 5.271103042915859
C 3.6599794438147852 0.7064021859282871 4.897914559188242
C 7.509002657189868 5.324313633072809 5.6874450763009845
C 1.9545610186898874 2.352680506274796 4.751903934556203
C 4.419355772755668 6.069900997618609 5.919520740061699
C 5.064144200477627 8.719251193012983 7.5246502979839045
C 1.879371592278654 7.299670961916657 7.552330266365251
C 5.042001164865731 3.489185303987802 6.773450041667907
C 5.694395141997842 6.566400437567365 7.735465334518546
C 4.260064098211607 6.07292901328214 7.395771861545919
C 6.122397532667462 5.280938626285558 7.715360416414599
C 3.2176502660387514 7.082436466115622 7.753974418449901
C 4.881231195732955 4.670444055075927 7.59674892764822
