50
Energy = -412.73551587 eV
C 3.9957879991539156 4.1609294489297035 1.3854497978818228
C 4.8429331374077895 6.2722605867316314 1.200780554236145
C 6.375097705060378 3.3178261852996433 2.2196440314289188
C 5.472498530964979 4.05129017569878 1.4990545169767382
C 3.142395878500818 3.4105579622189826 1.9985365111934563
C 1.8902074191575695 3.8964853014498035 2.485176672486762
C 3.6433752906045123 5.550134476530427 1.2581197234572625
C 5.347004735020406 6.795892894274452 3.6259035878875796
C 6.632073564570368 2.453792219961709 4.544871718133868
C 3.6433752906045127 2.274977616501517 2.6272876697773766
C 1.5302825803761795 5.185495534602613 2.023674783592338
C 5.678636950073016 6.5101328033759085 2.301194342751298
C 5.948234666123783 5.422821618636119 1.357645922468712
C 0.13882617163191033 4.447515318930973 3.1657160436807517
C 4.732502173620448 1.8986249143250404 3.2191808023930486
C 7.713165327161587 3.645081421429078 2.2701868814726978
C 3.9044452809971384 7.007847160801631 3.863950225849752
C 6.010145168807463 2.418383897572295 3.3222467340924644
C 1.4772373993150858 3.7738331609195592 3.7388656287757365
C 2.951598876636074 2.077074380217322 4.920572935495363
C 2.6501707874219695 6.015890349288784 2.015835883538009
C 3.6239737538788193 1.6962521065868865 3.7760643538112753
C 7.122146756084364 5.643124800715882 5.143757975656321
C 1.5547849702066312 7.16235881999264 5.21303487431977
C 2.807828828147608 6.714889204523472 3.268167031762752
C 3.5759215526128245 2.285686305737883 6.22505065896513
C 6.028983802581978 1.9568351064619292 5.7425448857825
C 3.844800367242238 6.9109677291327465 5.330577235965711
C 1.6341144183976724 6.407694296368696 4.04603225684754
C 7.497737749005247 3.5342694874733827 5.05000420706275
C 6.040980485048327 6.461070994791243 4.723598535891733
C 1.2175014488449047 5.053100144073829 4.422178074624474
C 4.766750386598754 1.91420706415884 6.544116685938069
C 7.811987305806121 4.633806718067957 4.37561676625407
C 6.774170142046707 5.0615199783046645 6.458269220872546
C 2.8089735018008906 3.3772865867723114 6.84805792407926
C 1.7887115185687745 2.928183507510191 4.789859141066366
C 5.474283706401112 5.559596765020076 6.861539440260876
C 6.586425409088765 2.652620911501187 6.906102552809044
C 1.3508337323700697 4.817625236907303 5.855717119865594
C 2.683465460617973 6.792625077617402 5.975851996342861
C 7.207149391658002 3.688171021826091 6.4459662863560006
C 3.2763105695096915 4.582264943556111 7.202781922350824
C 5.083645878898984 6.476629057542817 5.800091009707832
C 5.478291734010212 2.3926387241563587 7.76078749484188
C 4.933851030231296 3.780316754898627 0.5778229734376797
C 1.6340466342148328 3.5737089383797023 6.03895301256292
C 4.526167991685811 4.801304233227012 7.635008817693358
C 2.3784918780221025 5.544046108542917 6.6049672060659
C 5.139836403147133 2.7991558344604552 1.200780554236145
