51
Energy = -419.46966921 eV
C 1.4531157509112589 1.7876782785948904 1.4055030199772043
C 1.805146318238045 4.109376333872125 0.8936530035511756
C 3.5958482516972725 2.2049259088984297 0.5865406726648609
C 0.8948133785551151 4.482700812822656 1.9514818304195136
C 0.7231414879779829 2.152454937855001 2.577295691968597
C 2.263490267205813 0.6222176250976654 1.6456996702823017
C 2.4064947378618786 5.340254647566431 0.3421688067534717
C 2.228483572511595 2.7586400650015137 0.7173805832922113
C 0.4408946845493424 3.4811706849425694 2.927567424854416
C 4.711004684356734 4.426087089827091 0.6176639552694905
C 0.9779200406925804 5.975184593117142 2.0168005311739967
C 3.6014499132768356 0.8895040542024567 1.217870812900571
C 2.04625993128106 0.19712073750972064 2.9615633748853325
C 4.693330908716378 0.43471337850310604 2.0572715163375026
C 2.411716181962268 2.0879917041696165 4.30721973358478
C 4.780693973264297 3.036397107422704 0.6828581886500211
C 0.7978659564088545 6.593743033083829 3.2830796628044547
C 1.2319147998532194 1.2200729151197351 3.626866064228229
C 5.6337628231753385 5.393098707355024 2.7541416870860953
C 1.7409627124093447 6.416016832904104 0.9660463120946641
C 5.865008921224895 1.2189344165150933 1.986298932226169
C 3.776977730684374 5.427616691180228 0.17310269490250618
C 0.41493871797040666 3.6675240972100314 4.388255144068432
C 5.322546884548607 5.499385290378981 1.3566981820386985
C 1.490570932392226 6.704217547115222 4.560713016190792
C 5.85958769087267 2.5295885052216955 1.4556770994959964
C 0.18904295360138393 6.13071046643551 4.406027295686003
C 6.145816127443288 4.169593951628415 3.40105000650184
C 0.18218456349561554 4.855683311923527 5.066303266101977
C 4.982945373623563 6.13785310297297 3.7259657302401155
C 4.764864145653022 6.49647002896869 0.46301505455176145
C 1.4194193940537017 2.7980390590511215 5.274291647723341
C 4.413720856124153 6.729524793902915 3.391302708878613
C 1.3830860988851739 1.2522643262500164 5.150554738852583
C 2.2602012604509767 5.99926741609273 5.529806277287269
C 6.545116478276437 3.035367434124292 2.679506570091057
C 3.0773275832646587 6.704217547115221 3.828987530660337
C 3.5886025450345835 5.389593778351263 5.739284828252788
C 6.466992781364557 1.0108096847648709 4.3414675928205595
C 4.774998705667679 5.407872870450673 4.92811922007918
C 5.694559787049321 4.232431493702271 4.791539725937263
C 1.3148538122282163 4.971917106309176 5.974321610960663
C 1.9323822397141537 3.7687369402460447 6.307653246314805
C 4.83352812766208 2.0442307438515974 6.153228826895107
C 5.208671706195615 0.3909868441745325 4.5194008293652495
C 4.3714894823577675 3.270328401402421 6.597514550613138
C 2.9299271869184387 0.7910568318249128 5.022466230153004
C 6.65624708108777 1.6202264204077663 3.155914684794217
C 5.507976899312318 3.2504426812179426 5.764742776005432
C 3.3123230191468416 4.129673913778921 6.437354912330813
C 4.355406546432753 0.8732316062567399 5.565908380262767
