52
Energy = -430.83316286 eV
C 2.443218996417003 4.864203724751784 3.6233322653628983
C 3.1232069680868193 7.051212836622296 4.223350992604576
C 6.613676956269349 7.082757195915493 3.3996785774753917
C 5.351624128099322 2.3743350569747506 4.511594493657809
C 0.9137184732677694 3.4347237619459365 6.230369552404118
C 3.593622034302135 3.902293280140962 1.8461481555887556
C 2.696415737681755 2.643958826773721 7.5353012622519575
C 6.849054844703882 5.556471196305007 4.998006625323844
C 4.181192417150139 2.7607600473417913 2.372498343888798
C 3.159696221252449 6.628686056155347 7.236179047702539
C 5.99677248253385 4.036980771733017 6.699896388475348
C 3.9417346076491944 7.500007247087909 6.486412882277669
C 1.0829692876843167 4.325060081697028 5.2897720907859656
C 3.3113707639095944 0.906275508809107 4.70035919171483
C 1.6366092408991286 5.608803585653407 5.586568604668619
C 3.0598307513565244 4.935396947861859 2.426485570575017
C 1.4110918808346518 2.2266501875159865 5.60919794383837
C 2.5297438211834744 1.7970398263705092 6.418234055347399
C 4.945944696938603 3.0474506301366753 6.913392138028255
C 3.7865514758157968 3.3172878724476793 7.800873897870734
C 1.589136569449526 3.6316755789158415 7.466834331714235
C 3.12737996818393 1.8303546996693378 4.216035245425885
C 3.589608190072362 6.229588223055132 2.0650675360013415
C 4.004797865189237 5.761078069532758 8.05786829225888
C 7.181853123622842 5.817297023292077 3.7267352610798237
C 1.965007026600013 2.5206884626785264 4.311131931613121
C 3.4848872841598553 1.5536032745926642 5.57939909367305
C 7.354969014273555 4.6611671404856905 3.0001435308270206
C 4.3083833372638045 2.1752889486287534 3.666103571267761
C 3.586296868384358 6.977582251088498 0.883573176990817
C 6.573549369697187 4.325060081697028 5.386056100153588
C 5.352393575931071 6.018426638489065 7.711770261614327
C 6.202838204563925 6.819798879869584 5.540507983121464
C 2.0831918971927816 5.871739798926311 6.922258752271352
C 1.7252279514639701 3.9313907925510443 4.080674583545571
C 3.976008387688039 7.039049783156958 3.221707741566591
C 5.358287451003722 7.01184550588816 6.66137153049772
C 3.380688254832731 4.528635678326554 8.183972661331405
C 5.2694751300357465 7.528986237087166 3.4010458066006115
C 7.095067137051519 3.6375222151896773 3.3280004964843526
C 3.1645800888099314 0.9782589325756025 1.3020244058927821
C 6.406466843240244 3.2941519764919307 4.339445077471243
C 4.2281221135271725 2.9770953822765582 0.977015826139797
C 3.1305347537089063 1.5536032745926642 2.4420556013540944
C 3.0961599574875303 1.5206850207324258 3.752920714768969
C 3.488116089254198 8.24212452928308 0.7669649258344609
C 2.3689587774021374 6.0103511059107015 4.377431727576304
C 4.748899108487189 2.1451054859542737 5.815030723441771
C 6.095900420149163 7.687363491787439 4.40389028601849
C 2.12121411217137 4.720000818745655 7.789399679757286
C 3.417698724696419 8.094957262435805 5.2487243158909225
C 6.224952198246874 4.990465277617875 7.491671281450897
