52
Energy = -411.57859937 eV
C 5.969185770533417 3.346392263433911 3.392119182358039
C 4.056585976686303 4.610176789317687 4.025520355173248
C 6.070689834058151 1.9793636816025928 3.0578649202719683
C 5.02495054102221 3.6472712319323684 4.457892393258632
C 4.444993377670054 4.911317977356957 2.657013885186451
C 5.735866639887007 4.367103641670717 2.3664462561225386
C 4.644087803186327 2.6855765835310534 5.3920432269421426
C 1.7430674490431524 5.494324404085927 4.171030608951435
C 2.780298836680774 4.706119511401367 4.682702394635519
C 3.7595158526104067 2.8505254208854995 1.3539581920561357
C 2.3664377346233563 3.6578085565022533 5.634995892495896
C 5.439266191109081 4.111533123551198 0.9548584427886446
C 5.917985798232569 1.6073918219498329 1.6444120837042213
C 1.302363870503686 6.234866215092349 3.0245655714826842
C 4.941362189993418 7.884230106832671 3.0377194428143057
C 5.694741315154129 3.6045133211369804 7.624307748596349
C 3.3395711457710955 2.7562829519861203 6.073596698657281
C 3.8864814064499122 4.420684069484468 1.2973584171947463
C 0.3390423193889236 5.395463335889475 4.347387617461618
C 4.931420653042443 1.2761162200181335 5.182140592754607
C 2.979965397999286 5.03273260503259 0.3809477110825604
C 5.243338647101825 0.39864442612371037 1.6704009428682014
C 5.457534471091575 0.9214519362905212 3.920822756646245
C 1.8655378770679911 5.113078841869337 7.861031895083555
C 5.122708345051097 2.5250871114550666 0.8185584981635824
C 7.497852256214878 3.1827647914670476 2.7771395347941077
C 3.037038062698722 1.7301894945009404 1.7290292850687248
C 4.898451878802744 2.584241736175538 7.255524786899487
C 1.0174330508256992 3.054842981377383 5.610870658911814
C 3.9371928087424055 0.6095154854294206 6.005053164110142
C 3.5423482096573204 7.4629035621248 2.687578029865293
C 7.627098541973828 2.8346609061716617 5.3801332160153965
C 0.06563899706961997 5.466125053871913 2.9485568872362444
C 3.826353464364087 0.47121427632569857 1.6627753682597113
C 3.9196758030889836 1.8737337160027148 6.59477275205929
C 1.70129361443775 1.561361565864811 2.305849454815437
C 3.1548217522142283 1.407880093605839 6.59477275205929
C 0.5013434727747063 5.0796742672510975 7.7386763759890025
C 6.667742765167459 2.9487368144116215 4.036947576534991
C 2.776552518309712 1.3891919413625569 6.7794523006690985
C 7.568074320051085 4.4947861877426405 2.0728970573067196
C 0.7758615743084464 2.261391402619216 3.213150897328461
C 0.7997997895004729 1.921767786992886 4.7218607765843705
C 7.517711930807299 1.3402694179223638 5.085822759366999
C 1.3304351761973807 0.10664795194719169 2.468339191730917
C 2.2293205966392757 7.205927055574744 2.8327312107829217
C 1.5965412230524398 0.9841953273644776 7.295488139071372
C 0.695428020982847 0.8205479980614085 0.1546930124042447
C 7.828962342159367 4.687767919254488 0.7390711255495739
C 7.482817115763353 1.691456393369666 2.515917491197411
C 6.695909517940863 1.5705595177161142 3.8287022011176446
C 0.39958114889748175 0.8374629626229418 1.56597242264129
