52
Energy = -411.55175172 eV
C 7.673134716496411 2.9867895363843115 4.856495186829194
C 6.832641005603686 3.866733630501794 5.47890551888254
C 7.384062415351506 2.448790651721879 3.698392488081676
C 6.176742866469996 3.5638133412964774 6.750670209691604
C 6.257589575560567 4.042074289730365 0.6314538975646289
C 7.351418780568657 2.564564108065601 2.312070704871675
C 5.133187061790422 1.3449380990919104 6.541027942811707
C 6.6173614358652735 3.7265794175602487 1.929487794171768
C 4.894889568439714 1.323401757758314 3.132071770275028
C 6.0755933214778155 4.716076867374787 4.5451364123827105
C 4.7145714384856365 6.975256465896693 4.360275936024391
C 5.371908067094804 3.4864844439982954 7.5603372793383405
C 4.458619109967391 0.9931989295729126 1.8682533616764
C 5.943567186743087 2.3955338983786083 3.2599210853038443
C 5.229793044924943 4.525816823254862 7.151858677010801
C 3.982025518160882 1.1127809044458479 5.8818678553092285
C 4.413129954707767 1.349722147255175 0.4501013683827518
C 5.685918688003147 4.021508859902297 3.246357789261278
C 5.370231373019588 5.894673450508931 5.0489786489386885
C 2.8195235194329924 3.416512695372604 7.047313242923729
C 4.309578087706244 2.6299243457313892 7.393425261071942
C 4.216273480063569 8.314008909318597 4.386167686635577
C 5.917944446287758 2.2299185896180957 6.990020888116552
C 4.242105037512887 4.338692978724308 2.9319941165577474
C 4.9199439556345705 5.710574798986501 6.394148850465484
C 3.8683164941890515 1.2155206651923744 4.296956611928352
C 3.5031315014642765 5.319272966276865 2.3229185061352102
C 2.489973987935217 4.418143169704082 0.014685490300435837
C 3.818302610099402 4.364907154750147 7.393425261071942
C 3.4873382374655963 5.72057595073199 6.862598332113327
C 3.364143469626098 2.5858249586098276 4.577165555231315
C 2.9492379163835185 2.285555184406618 6.0848291568696435
C 3.0965837734790007 6.62084650613535 2.43473841554316
C 2.9675857134938854 3.140508265321239 0.03877249692180268
C 3.2392901776505822 0.964697696208621 1.0905951828877687
C 3.7705671936481022 7.367537214418165 3.427536010315225
C 2.4617179535283764 2.7373340596251414 2.4925658279803202
C 3.284365547806821 3.4168445511081655 3.3788688368624817
C 1.7822468778061165 4.285537039055548 6.603458741168477
C 2.2693613194571403 1.1784391313199754 4.076478682912002
C 1.962479280276871 5.669792972154913 2.1997263484823626
C 2.365782344870907 2.2135520128842474 1.0927458454910193
C 1.5932072206737304 4.8559331753657355 0.9196524133476832
C 2.2154625203285936 5.6233501875546095 6.310838132853341
C 1.7905788243174512 2.0484121447160444 5.161831289359573
C 0.8796939199250347 4.840563242207968 2.9328404371932044
C 1.2863730997170129 2.040512133567452 3.156145965412282
C 0.7077850878739385 4.033974360598138 1.742572361409205
C 0.8421321420991873 2.8161213961276967 4.35092116845724
C 1.2757572128967702 4.881414803877981 5.4798632465566035
C 1.063513930924661 2.5991614598417514 1.7746625070021147
C 0.8800833783595776 4.269770103568717 4.241383938205697
