52
Energy = -418.68202078 eV
C 5.731797574523092 6.95785139425744 2.1000786538651446
C 4.743023968689524 3.8640122645309165 1.5086690057532746
C 6.058791566834243 4.395046191297275 1.9770606476259693
C 3.52226296450568 4.47309380413833 1.834556713906914
C 4.885583882536666 2.5835974385135185 1.3744567204028693
C 5.695993220927723 2.1273701931434674 2.542205609034961
C 4.445563873938044 6.961347976670025 2.5521411505899354
C 0.4574199953511187 6.305322331233578 2.3829313118352657
C 3.4943231870529083 5.888544820539118 2.38703754390873
C 6.560416009604887 0.8744572464000657 2.6075904629613667
C 3.251179485228719 2.3751044234048644 3.207965252105172
C 6.473263002675093 5.721301932917858 1.8012906031740181
C 4.469023440532922 1.8975039797623536 3.4797178414772008
C 6.936936334460222 0.3209295673357739 2.735097951396204
C 2.7080924635650923 3.5779399009913937 2.514054097645771
C 6.632500414594178 3.370333810147459 2.8105724539859587
C 1.8449967390010238 4.165992198263893 3.541259352431478
C 2.5095594910933667 6.634118574703288 3.3009331879827717
C 6.970591893929672 0.7620013313796429 3.7115216807231888
C 1.319640166715853 5.764262186110254 3.207965252105172
C 3.6289096964466245 5.713600359120322 3.8258696988844227
C 0.8171975309866933 4.9251340634488585 4.1914770488365765
C 3.818444752918913 7.197160162025508 3.8662410101333364
C 2.4322287552605646 2.2164337319187197 4.378037946520176
C 2.046505742559477 5.542638226876808 4.177500226480451
C 6.927420592366158 4.704195924856854 6.364708464829938
C 1.319640166715853 3.2112154603456733 4.572810005166134
C 2.778874135227075 3.617117757236279 4.571295219422434
C 0.343824774116622 3.567104060586556 3.8303202931611673
C 6.935367526967342 1.4476052452569876 4.901571976454249
C 4.447272201552112 0.22875217940018433 5.242483165801156
C 5.852739688004015 0.4083454451693607 5.0951085203288375
C 0.30662299918045444 5.562537389920913 5.405177094974266
C 4.484736267992842 1.5774303905777343 4.958203453911593
C 6.811232561227932 0.4979430350717425 4.062226737724821
C 0.31234562591487325 2.7622231526459426 4.97286646984791
C 3.2783701709464594 1.9151431976861042 5.5461041735695815
C 1.8828004127093498 5.37771985745661 5.630304513269126
C 2.6388319718488633 6.1211198564015445 6.570513187589161
C 1.9448268372159698 3.8615253926425295 5.796837055893995
C 2.91829166793536 2.973994365163206 6.563539335500522
C 3.950215944743126 6.722598765011641 6.334130983827536
C 5.733661655878596 1.592128355258338 5.693623039577524
C 5.706900366552709 4.852603838879016 7.1326686050624915
C 7.055407276958073 6.895466559977882 5.182786855333361
C 5.969644492185296 2.6324793789011567 6.6705409692437
C 2.3667790765466896 5.755449592170273 0.7777484045854542
C 3.5177315854014326 5.0007664845900885 0.49044532808412855
C 7.119597161298828 3.3138190346063174 6.182901068138731
C 3.7077551050102864 3.569768922363355 0.21553884782556915
C 4.632937764988361 5.758272395112967 7.1877232344225535
C 5.1354659069951 3.496769251039849 0.07078497014555794
