53
Energy = -435.11401532 eV
C 0.5269526393832044 3.791964418115293 5.240823137447682
C 0.17033247331295884 2.541432364213898 4.507379066359871
C 7.190990507322679 5.309119138530423 1.6195393569530732
C 6.369198477011798 6.152183924256955 2.3720529057061936
C 2.3191690152474074 5.567303347959874 5.625326462804603
C 0.9702185505754924 2.559950353338728 5.675274797742374
C 1.1982017688599316 5.027802391359018 5.032146801612563
C 0.0892399887281847 1.1633668840393558 2.093415217040819
C 0.18960512012758318 1.8859103323538773 0.8570230013194661
C 0.23157909553613534 1.4644474017057048 3.584412195625092
C 2.1407326624779834 1.809207557002923 5.810209698028948
C 0.4589637315519027 4.598524003152763 0.7045681915662643
C 1.2342217480925703 5.3531193598080336 3.577806550791619
C 0.11752902738077216 5.763003446515185 2.887997036706966
C 1.0537997962328347 0.3483734717926845 4.147212760031639
C 1.8129105355575266 5.192910775776343 0.49089538266612937
C 3.599385802006436 5.26345759268305 5.222887008560357
C 3.044129648863621 3.7624613290371194 3.617943641449084
C 2.1131425235752443 0.5852594209411598 5.073357015684965
C 3.586782682878544 3.736237775262489 5.039232261946873
C 1.1698031831947124 1.3967741636360418 7.32017701015122
C 0.39528776654457076 3.257924874704155 0.2942819588066265
C 0.6213106007703708 7.317946176893446 1.9464449312281844
C 1.3116899743719463 6.922457815903357 3.1367832567307103
C 4.117275462981908 5.087820029024146 1.1034300559565398
C 2.753614319796119 5.291701701229245 1.5882693774736407
C 2.377283670139731 4.797968860448532 2.924055998644276
C 4.634749033903735 5.763587684599392 4.310585589400434
C 4.568893084210131 3.516148378786208 3.9969611076592586
C 2.5775822674462137 4.806935674288292 6.877451447995951
C 4.242972873385772 1.4312723227247837 4.871415948004192
C 2.629447438221947 6.423549767545188 2.8496152525577485
C 3.4594191711503446 0.20726705346083446 4.707577742752482
C 3.4245066330955445 2.3844347980903 5.633660898196477
C 5.052555100999167 4.418983224971304 1.9555992073880806
C 3.979140926717604 4.677524182296136 7.269529026386714
C 2.5173236296042045 3.4286292777528873 6.473086783317635
C 1.4105207731742573 2.7247100742110706 6.890385271203859
C 1.4301311968544366 6.873813818772555 0.8978703507643866
C 5.011753791300772 4.759006805270717 3.3916118870364094
C 1.9287475414404651 0.26360055201031474 7.4310534855657595
C 3.704680424391886 6.666494642469562 3.7656175087590897
C 3.9528076702729646 3.2703156141815244 6.98610503405822
C 5.219215245034614 0.683551099630689 1.8640690702704932
C 5.011554806272015 2.151789406864272 3.8679969437476562
C 5.042662549561187 6.152183924256955 3.4635396459448358
C 2.7498201764120904 6.515527108916542 1.406768904969725
C 5.213250635022055 3.0158238035475913 1.5834523141966534
C 3.324584013509133 0.01582807374466096 0.4543266655216145
C 4.545700098450666 2.38643455127348 0.4164177682219476
C 5.283953013903954 7.034381728276965 2.5828746941518053
C 5.446719111723299 1.9412311842337264 2.5281739527075753
C 4.394526815443762 0.9375655991224137 0.7001032564550989
