53
Energy = -420.81620988 eV
C 0.0531846834912956 3.8755564605203823 1.302354169901629
C 2.4777202183243148 3.7062516934885963 2.7690728285278214
C 2.3612484820965456 0.4999772705222965 4.652838874751071
C 1.3597699811414434 4.8367639473166975 3.2886887293995954
C 1.1688448254210502 0.4282438133389885 1.7226734476599999
C 3.931654599787699 6.151441359401132 1.514248779019354
C 2.4952603026894 6.338437095907546 1.6330980739100607
C 1.2280233433561212 1.2479612361037216 4.373470435647752
C 2.454678040529908 3.6786539302284615 6.414389669743917
C 5.332929284705598 1.5582355749970416 5.477532339085135
C 1.6065908404764933 5.752989016824637 0.7315376506004141
C 7.645193756424112 2.0728007603408867 2.6165076728869607
C 4.055656369881079 3.4943780076168727 2.5001603525917226
C 4.347998612946342 5.1193597804911555 6.088531049946178
C 3.215523924058865 0.4779842551559734 5.812428438829082
C 3.0064308703169127 5.028409265990832 6.237481828662811
C 5.030582616773807 2.372065536116017 7.81571225363116
C 3.703807342607142 0.32759152975073486 2.1405057603159436
C 4.872835926748006 0.4169014210494123 1.327729845960207
C 1.3409781954788846 4.803862003126069 4.787596271270153
C 1.033829609509233 1.3296701196632568 2.902988155524492
C 2.0097318702481477 6.207510052932093 2.9937920731482754
C 5.118678887969369 4.005103642462664 5.68600184168522
C 4.9120277188321415 4.617634331510628 3.2704202186977556
C 7.6606703549757285 3.0471409539191843 3.621509890087504
C 0.7346277586305795 4.860225173734316 0.5882417516813457
C 3.6157540590599786 0.6004704667479553 3.6992167429085003
C 6.948292605326222 3.0082389248027557 2.6412431199680144
C 7.737680969953054 2.431650184226393 1.209068224460724
C 3.5681845996585584 1.8901676035165715 2.853371947450909
C 2.2133569209676764 2.368802990974676 2.712482493844918
C 4.731258262344185 2.70047018481327 6.164614536780925
C 4.406963080275586 0.5271475847274717 5.058534903227453
C 5.734089792730609 4.071618276998506 4.407278890237206
C 6.621137169865272 3.0054966953015314 4.0229591061907
C 4.754357450453537 4.506822328744064 7.753456089220087
C 2.8776524987223264 1.2945763700991426 6.889470606381669
C 6.458114833227644 1.8280169990023842 4.72270035774695
C 3.3682395399226603 2.5821752838100496 6.718670828281786
C 2.516027202440124 0.1804618426288143 1.2596784122250309
C 1.338975761195577 3.5600827559477666 5.517365562712297
C 0.13719976763270397 4.170766079882451 2.7588986106344917
C 4.6546802129893035 5.762683576460665 2.6321646306621833
C 2.523920998377002 6.6354337704321145 4.175138449286866
C 0.6388980015119334 2.5397790499746553 4.783494809872964
C 2.1955480774315976 5.77937568437042 5.280829510563137
C 4.980450530131813 3.4089349454431224 1.093772015936133
C 5.194136042200361 1.025200448036111 0.2873940083497564
C 6.294736086421684 3.43970691658415 1.6844536920573896
C 4.431492385080458 5.72158066890486 0.25131698083182447
C 4.967853757475733 3.3870625497300986 6.889470606381667
C 2.081641464083521 1.27833878161074 0.441942457654375
C 0.6637997898959324 1.3433751488345338 0.6344202797609968
