53
Energy = -417.05576079 eV
C 7.134820097787896 6.828425678968332 3.6449413065517646
C 7.135538133022088 7.4446340638455375 11.560798581041347
C 9.978401247768756 5.6613717106160495 5.856051458970896
C 10.181160012639884 5.9431029571449 9.189086952243672
C 8.034846751007157 7.616589324323146 4.445638159376901
C 8.365198453364764 7.800360331645212 11.165883553898752
C 5.940603544277824 7.292078982825098 3.7413779822009006
C 5.949428016341927 7.645106343018631 11.059830833108716
C 3.3664282172744673 5.422724170950279 5.894869960515274
C 3.196426362074685 5.072996857083564 8.852809264763396
C 8.742374466134162 5.689787974253783 6.571571921708594
C 10.412177799789898 6.981919016557936 5.480641055880022
C 10.482132676095665 7.298042285069761 9.641499557860053
C 9.355183752665015 7.862935464301267 4.923799293478341
C 9.703304894630136 8.08777388972779 10.594007544352834
C 7.118486656701845 8.725237721993283 5.012429139607022
C 8.215491912113288 8.719951702646624 10.019063761635724
C 5.6654279316160325 8.404313057732937 4.568816348274701
C 5.009723852581555 7.971283394528004 10.226744456940915
C 3.46014789254464 6.6969912041172 5.800237485580356
C 3.8489406997146585 6.260200036618942 8.393298846543368
C 10.352802304848453 4.920187790219681 7.069961578872286
C 11.099117513949043 5.5764867918740135 8.069455224467228
C 3.7768052085866564 4.246006460296693 6.362682526963797
C 4.048313783065405 4.597360353296416 7.696936364526002
C 8.979212727752689 4.736536219344988 7.61455478588331
C 8.866732582983953 5.501310770538383 8.846874263346406
C 11.36738323431987 7.50089519199591 6.438758389608191
C 11.305038501672838 7.848599434359908 8.564135524450341
C 9.265867456743175 9.196175810713623 5.549424212976464
C 9.824549724658285 9.58460637611884 10.27771342163095
C 8.051472153035276 9.88180118216883 5.247073496330192
C 8.554453312113615 10.119289065232296 10.0762241073034
C 7.579767911691621 10.934705553499802 5.984243006510078
C 7.79085949242293 10.937637062602017 9.266771388224761
C 5.02230622685932 8.489811137151923 5.838712503746334
C 4.415633183385463 8.264950580505978 9.106608633814444
C 3.9332805315678168 7.799052553370525 6.500779444246712
C 3.88106898508085 7.6768853413056695 7.9953965151057185
C 11.71325089173249 6.78009936573892 7.669738750939102
C 5.05075151329838 5.516819906617301 8.149431007205706
C 10.91273698946432 8.596086635535437 7.331495977159442
C 9.695825054938178 9.157331796526183 6.985384271401374
C 7.138043402205878 10.497728512560636 8.152389856469828
C 6.943771778440448 11.32821510852513 6.989742207991198
C 7.689963492300912 6.471887241860154 8.570644998974862
C 8.532157063542323 8.429750927219324 7.533448478939481
C 7.136623061388556 9.01119048972215 7.749379097544799
C 6.646885954999427 6.97902726107734 6.877685979690875
C 6.360919225110231 8.39809421192255 6.510496881565554
C 8.09297286253366 6.925891288363798 7.093533774158808
C 6.362253701655879 6.10472819368836 7.936904271008825
C 7.803067830441956 8.075789410393568 8.80355519945854
