53
Energy = -416.14263985 eV
C 4.625410790565631 6.781620568374849 0.6074476286488497
C 4.520278842671138 3.3014295239113896 1.3697558826285912
C 6.118859163720745 2.8218816757608343 1.4055290646360077
C 3.155845396849001 3.4600037259839187 0.999962112339703
C 5.812204306167054 6.956235472013393 1.1237586816302156
C 3.091174369971798 6.254834152047639 2.557424456939805
C 4.448348176628083 2.3291758494606776 2.4330203138675555
C 6.9897806975512005 6.166001557760812 3.1664668891654784
C 3.1656591490207515 4.791316463874198 2.9820303665969146
C 3.843712157691478 6.052878479240018 1.4005757919265227
C 2.3793085119795196 2.89428136594504 2.068219319393779
C 6.778443202811959 6.707163628055851 1.906866535462496
C 3.824952487245011 4.520255527850067 1.5937726106234995
C 5.871497219195036 2.245722801965587 2.671470842392171
C 1.8735249457955456 4.0243010537356865 2.8935746150044164
C 5.741083936481758 0.2405808932451006 4.780358292078408
C 8.134773687570164 5.54479643311744 3.6160862298120335
C 8.304697953307969 5.101855615739317 4.753970512543728
C 3.2308275020553663 1.970220854702708 2.8067992527545678
C 5.938933167128359 6.282998650369762 4.178468795081245
C 6.243974968668496 1.9317938839951387 3.9153413826445065
C 2.604545898565666 7.225906436401464 3.500191640208421
C 0.9489453268913431 4.571654035419187 3.6459576707118506
C 5.508763503128211 1.4246587047334198 4.0755036097561055
C 3.843712157691479 4.614068862733168 4.1925799417312914
C 4.454326108085593 0.46715567267160374 4.283532228977538
C 4.818477838072652 5.63428168347376 4.611163146491606
C 3.184616922452228 1.6894852567220937 4.110426255427213
C 3.3215431005766045 8.12413526350879 4.262855558798416
C 1.9738238469628977 2.531882320400581 6.364850813654529
C 0.9651943157916538 5.5888011808979785 4.331832747394806
C 1.673276794074905 6.7415914924924305 4.465136942621203
C 8.113372441994075 5.683825214030371 6.072354967557652
C 5.6034232803570525 6.784399837796713 6.570891790025147
C 5.406978011604374 1.5607034890345584 4.968320371029941
C 3.727464451663494 3.8902045711501128 5.298220558105428
C 4.497398314997261 5.8735234073662435 6.121260217536884
C 7.813601956815315 4.34187525956026 5.853581947668521
C 7.2695251400125 6.8139657381585526 6.376462533813517
C 6.4879287472299225 2.421875355451185 5.237542266165408
C 3.9828044751855125 1.424658704733418 5.081305537626333
C 6.286800750996239 7.281535577649837 5.289329944538332
C 3.040242861225174 2.536869737419453 5.3531325244056935
C 4.364595631918767 4.3659503086757425 6.543068245001951
C 2.6409120612621586 7.362140127864908 5.412102971724863
C 2.0949313911202685 3.1209321780041734 7.470555172374751
C 2.810036340899181 3.733390420779218 0.10831429493659546
C 6.8357906102326105 3.4638891791626674 6.113878713649571
C 6.51805166078229 6.976197712080773 7.618646939559441
C 5.761158204230445 3.832820228698522 7.035676478537404
C 3.324873177304968 6.638296451172534 6.297046151679956
C 3.9336305870520643 4.15026958275196 8.018514149201616
C 5.319334854702951 3.851952629629277 0.008247847406662073
