54
Energy = -428.48137098 eV
C 3.5154590006999973 0.5404563863939804 5.413996246561004
C 4.581573248080977 7.103512082946437 6.089527000355334
C 1.545230433306089 4.643525459520081 2.3410675508012457
C 0.008083799101604313 4.801564515064766 4.086390553708691
C 4.20513013300238 1.116062287956263 3.0787498554565302
C 0.20509138457016515 5.00069388539652 2.8739671607848574
C 6.466453446281662 2.1567018408404945 2.6613809445404732
C 3.806948041244462 7.1099918602488605 3.7282263836513962
C 6.589966742984783 6.960330417919569 1.9298628660881192
C 2.220568178319927 6.69226847097502 5.498848670295276
C 6.969679570488669 3.739531966687203 0.7780739490596773
C 4.643703295174406 4.309678429569063 0.9953711557810982
C 4.816046013682143 5.096635860226 3.5175718398651243
C 4.696440615531773 3.4276455003481265 6.924365187897014
C 2.5446018264636936 3.7530786123107154 7.969417100512064
C 1.7075169521709403 3.489329631711282 7.093575633660553
C 5.979431186182521 4.813967581697678 4.271933638066465
C 3.8050399101961356 4.146644685043194 3.8735533217707303
C 5.901445949022828 6.838355085955402 5.538786470274595
C 4.325691051628693 6.523787199582182 7.3268077160955265
C 2.2731324112261744 5.105738182528978 1.1034086815707256
C 6.050205831766318 3.916966202641215 6.271330758147766
C 4.444779832342667 7.520872956737802 5.322598248853695
C 2.9409997355182167 2.5572444220821975 1.7506496264619604
C 1.3244255596104735 5.843446378492708 5.644885261669723
C 4.407753511525113 3.1750645194837035 4.7150028783102504
C 7.877956775636668 2.6415574844080725 6.056864791633432
C 2.9100641680268473 1.588409376849295 2.796146837276274
C 2.7636939800947586 4.90125397178071 3.2859720939188164
C 3.9480494996754154 2.662667816739117 5.963473110493831
C 6.337765639290673 6.0921036514958296 1.0761760447581996
C 6.207077455613387 5.40470129174153 5.518532625924175
C 4.271810627196437 2.9129969616169706 1.427492789224352
C 7.119076128043219 2.8925610178750127 1.6768503872996203
C 0.5653796412820865 4.69207415367321 5.345363225678736
C 1.799953771634464 2.2452947432031998 3.5217291614266215
C 1.1532388649222232 3.4350084078203413 5.809383169300589
C 3.807360361405523 5.974086029817136 2.820337187225895
C 7.332382447710705 3.424522267528147 6.90071920618385
C 1.715579528687222 2.366455165265242 4.960176601430789
C 6.661549744031425 7.5208729567378 3.1482904729957135
C 5.840735720137285 3.405439293876145 4.757220258085925
C 6.278827091489547 7.4419280466865745 4.338749089504562
C 4.307169401708443 0.2989433140785386 4.210247093408513
C 7.9077234870093225 2.0505408645043346 4.861292816648221
C 6.825615656196216 2.3158505331136814 4.097550277968564
C 3.5965116927634013 5.326766626153456 1.3373189873311138
C 4.219462206376058 5.482162165863764 7.9928339314605665
C 3.4938686133028636 7.177523349420817 5.0947674131501826
C 1.754545131393984 3.1710923374935818 2.3663169476124537
C 5.9745227365045634 4.759852370098924 0.7889689101719991
C 2.82568810463023 1.709425871992355 5.705538702597291
C 5.115440462116602 1.9226888954896646 2.264213829175744
C 3.914373611782258 4.121562304441589 7.909448165383585
