54
Energy = -436.06004841 eV
C 1.2050180216779423 5.624432691875722 1.5913684666775894
C 6.591771824354188 3.650457413704311 1.8336259353965068
C 5.279400607212088 3.3368846633511176 1.331495001886911
C 2.818763161490765 7.353032731631026 2.3062936885108463
C 2.6809972151096653 6.231447830683792 1.4653952402181791
C 5.179503603068187 1.8691019994500242 1.3203597176897879
C 3.898670572365328 3.807269562391225 1.5980501083512821
C 7.138521489817139 4.3066287985024445 3.033830851698151
C 3.929281876081186 1.4902426881234239 1.8524886492415815
C 4.1456156158792306 7.541769440255904 2.9100162534250185
C 0.9769695879414863 5.97598669979702 3.07591622906207
C 0.995784317494963 4.095583418095356 2.078806697285344
C 7.196322351442106 2.323411734771287 2.2834799781300266
C 6.253054717644981 1.3212966554377945 2.1355023627689187
C 3.035158681610138 2.6394570573630434 1.7223890091444285
C 1.6951959819855136 2.78209885149262 2.244675076359495
C 1.82053963209388 7.162430802797258 3.4545114798585694
C 3.9017848116758183 5.457980198653451 3.913483622446477
C 1.420781830622117 2.432334233003853 3.6011090483513315
C 5.463981773543091 7.378119910595294 2.7790021055793077
C 3.401177154974824 5.08459717325512 2.2085101349980407
C 4.207260766969416 0.7562682633966569 3.0909087238233224
C 5.659430439740585 0.68962683663232 3.269039416419895
C 6.533523728071326 5.291383944624807 3.9410879526377283
C 0.43256411761395014 4.528903675921642 3.426471586043277
C 7.364039965505999 2.936917527742458 3.5495473126108994
C 2.007713787915351 4.937963747371335 2.703860188845178
C 6.079743395741581 6.7385939717497285 3.9262158738189115
C 3.609871873137991 0.9637198341916662 4.366598870085125
C 3.414381059519518 3.28465407028296 4.336920256162722
C 5.927855425130858 1.1803619178166527 4.5959858687297706
C 0.7263439408191594 3.481393519101763 4.348909645072272
C 2.511943718153499 1.9539808462945174 4.555601490254344
C 4.666637578930049 3.3157264181120114 3.746178228889394
C 6.715691106242961 2.4085541794085548 4.735144717612814
C 5.115438946055744 4.634678381935726 3.9936713445756262
C 3.881017338861702 7.011485302234212 4.392465101118186
C 4.677829563258217 1.1100683586559306 5.359048846486454
C 6.249953673273434 4.786628554647228 5.36480967824208
C 2.4859119086750043 7.31115071373746 4.644743269230988
C 6.372481146949448 3.3652898705370347 5.78362863214216
C 3.003016470614938 4.600499085644869 4.725068060144242
C 5.227107776049835 6.868397618708029 5.068633520430936
C 2.110522594386256 2.4133146477324376 5.936102816724961
C 5.400170723097143 5.796658008920068 6.026353131784834
C 2.1668854174929773 4.771202783405958 5.898529810324188
C 1.2779751973784648 3.5595838704667284 5.71343512857835
C 4.481789644741505 1.9095280092982272 6.502982051863163
C 3.1729964051221744 2.420473300220474 6.906907392967257
C 5.471008913539079 2.9737510383582753 6.8010032942443965
C 3.026635348236506 4.91024493869234 7.025561350320387
C 4.522610346373111 5.282611513674043 7.009357596574541
C 4.761881079326882 3.972880713865922 7.524164975815099
C 3.364819914207847 3.6242881206040174 7.646102349563307
