54
Energy = -437.21724737 eV
C 3.3939335393682524 5.000544934758706 1.04908191090777
C 5.6281042731387885 5.559349589761604 1.81720318840281
C 4.822135856232791 4.5639038919993276 1.0104360768437832
C 3.274389790530538 1.7365348820276183 2.708150107738439
C 4.9802756331026234 3.191859535999897 1.4603496967301348
C 3.248015329772648 6.3208347959857845 1.584793760511473
C 6.035000879206983 2.7461615218176254 2.38014508939552
C 2.4140508682674087 6.708859334104785 2.750928551031336
C 4.631863011718609 6.687346587535015 2.0365775867422604
C 2.797886801675442 3.908030203095965 1.9603999649032733
C 1.6168187586311884 3.4612888155485013 2.864735481162223
C 6.935730518198693 5.3288915082966355 2.6233273786614433
C 4.349872069451059 1.138714176510228 3.3781043355984153
C 6.911668235334048 3.8421271519508347 3.074029480391773
C 4.612872477055034 5.423456750652495 3.032267178511831
C 2.122367236422687 2.1829185167043335 3.463080743292978
C 5.693372803301276 1.620785517421544 3.1969466256038888
C 3.6704370232340917 2.726343656159459 1.784615214157761
C 3.2470155301128347 7.497055132558276 3.6686918902587795
C 4.614291402412782 7.645532717802437 3.149983995816049
C 3.6190635580470025 4.4507110602474595 3.170592507617426
C 6.033942270168131 3.6332596194509263 4.236547035912804
C 1.4755477661852008 5.9395948250069965 3.5941930967189335
C 5.6767027992018475 7.457324537943659 4.039285566837941
C 6.653865958284943 6.18344642499828 3.94486383479903
C 1.0721866787020908 4.521823793347885 3.6494151928653595
C 5.985621567270067 1.3011408470130257 4.640430955918826
C 2.9301534430580483 7.145520534132538 5.040060740210975
C 4.519724629551708 0.9894974929706326 4.81549337529353
C 1.7270951314853462 6.373277194766199 4.975298916224258
C 5.297209899610787 5.635327610113549 4.297531874136697
C 3.637058591969737 4.038270515404432 4.4863994485245575
C 1.066142605938009 4.167502299942054 5.094232991249572
C 5.313774149569902 6.8459189024543745 5.348948369299418
C 6.035196608516748 2.370268268036805 7.392352336653311
C 2.164658984650078 1.8671854910839663 4.900430698766336
C 2.595055798403123 4.044765182399573 5.365364686138196
C 7.390567387042431 3.280451617562256 4.5201139553323175
C 6.638543954013021 6.121541828843025 5.582748723677251
C 1.4603837563598168 5.354682732602557 5.920957554334087
C 7.095130458591424 1.8983754591614772 5.231169710433471
C 4.981122711280647 4.2827862077502195 4.99271555136581
C 3.987686827297661 6.687685727412412 5.9607311399456595
C 3.452884816883619 1.5115827346761175 5.629558933559704
C 1.5184295526494127 2.877718654842809 5.708416918328447
C 7.444712349810867 3.840435125015528 5.966970875147838
C 3.919660349465073 5.509252902770438 6.7670302472506805
C 3.60807954197401 2.393099896905631 6.805226860234708
C 7.150735653612796 2.56665110877228 6.508381200292785
C 2.4860646960168626 3.284087230588387 6.800038420587581
C 6.63298781970404 4.981952537708505 6.365547669802178
C 5.116142067362212 4.50374657522543 6.554578203412502
C 2.608570156078353 4.807853278420253 6.7454641880910255
C 4.9019298134576115 3.0394569511198064 7.151794353753769
