54
Energy = -432.0180152 eV
C 2.826675111052829 4.299956439209752 0.6160290535820461
C 3.9935739968697126 5.091713643531384 0.19037325871975094
C 3.2950299319024126 6.261584756741755 0.8532770340499579
C 1.983738499496016 5.4482155103400025 1.0028219067008113
C 3.207042839993771 3.009581943749202 1.2697864412051905
C 5.165881320666305 4.398285396401764 0.449427348473871
C 4.7241836472855745 2.9143868923307736 0.8198079126638698
C 5.862625775066501 5.024024320822026 1.6869906700896447
C 3.5086251976177745 4.22969601520162 2.114353058537801
C 2.2419741885552047 2.4572646451746345 2.379768485688691
C 1.2557015833048013 5.257796183289915 2.1544051361356833
C 3.891809052053415 6.737154298933466 2.0214058669202903
C 1.3731496620711463 3.7949642794086142 2.863872538552525
C 5.587898666476556 2.1765431925654584 1.5845357006925782
C 6.79517856725158 2.815731764693471 2.2210981770366236
C 5.297145388348979 6.359078101142163 2.368263865890769
C 2.2709006406945806 1.0778478397980842 3.0799056607863986
C 6.933129460201271 4.232501403776614 2.391775165182076
C 4.810898037831172 4.420215635511339 2.6179872648842437
C 3.0870104996161314 2.324408931198302 3.7530396486292177
C 5.2780495682735085 1.4404002325843928 2.8292209702090965
C 2.6738700072216957 4.46001283535105 3.2421586278517815
C 1.937171695698153 5.863871031229656 3.3842182114722394
C 3.13027527870988 6.828488870655444 3.2719360013987573
C 4.8753914830848135 3.8509695955419243 3.864576056736224
C 4.007160409647984 1.1227030411632617 3.5369313906978856
C 0.9269342754753579 3.9377414486919373 4.3125647223668375
C 5.4538829255341135 6.530785888579595 3.796485964921193
C 6.3964352540124825 2.1639093068064628 3.4573418700739795
C 6.3220956646611555 5.630832796148043 4.529432668917548
C 2.828604684327745 4.134344561190789 5.891649403400506
C 4.079529814291536 0.5645685683950502 4.92703333154763
C 6.91350965485887 4.536912195768718 3.8000149387662185
C 4.0797805170991905 6.761850428719626 4.346269851269524
C 3.4760534041654085 3.7064665314777785 4.350975217874678
C 6.286463992039988 3.3106316495556944 4.440323530558212
C 1.2928782578066265 5.3308842257593 4.6565633897506995
C 1.9424067236104916 1.567434917241678 4.533923997979928
C 1.1744954344844423 2.7403538785001746 5.094495509450268
C 2.9360129700175226 1.0952879480325333 5.594752704994937
C 2.2367799291128314 5.5479083157183995 5.811479243681042
C 5.85621016800558 5.052581580195861 5.82010949459988
C 5.898242444309709 1.1857303590127841 6.5536357318298935
C 3.6920470674499035 6.206787600375601 5.582633507483642
C 6.127593901792306 3.6246117841191463 5.895426700640386
C 3.801748727143112 4.315279937947339 7.052310143513661
C 5.230660392271426 0.5952493268228871 5.665181018241359
C 4.606932595789906 5.427271190939903 6.359013103868157
C 5.524919771677766 2.583910621226084 6.710274382597682
C 1.9771608945526293 2.9947623803134613 6.245017785619632
C 2.986066151492518 2.0581434943669277 6.653611493369836
C 1.9760349609332017 5.685334207871193 7.312451437136462
C 4.213099845464135 2.863659026124359 7.10431210696702
C 2.7958141164618 4.995854077587243 7.981236343624655
