54
Energy = -421.37843628 eV
C 11.780994329554249 7.83437177975269 7.715918749673479
C 3.3622711107468044 8.113650659385737 7.584788947845006
C 9.52033590448594 9.56783378422635 4.804602119711282
C 6.11540448231016 10.12438053090922 6.413338178367342
C 11.496015019762837 7.871347953168104 6.4883695961650885
C 4.0557765694061425 7.483480729536909 6.520705305632278
C 11.235792061343215 7.4231085614142955 8.921761712043235
C 4.214885721819901 7.620796379938592 8.592214190818535
C 8.710527488884527 9.716229714397905 9.160184516281218
C 5.735771579623866 9.354258437620048 10.225580812613794
C 8.944451223567372 9.529983951433506 7.675516378459739
C 9.843726767693797 8.212820986979064 4.600836766385341
C 5.05073780713658 7.944183840514129 4.224212248569312
C 10.767508065901964 7.4102878042716664 5.38420331025718
C 4.297230841353343 7.699555759327696 5.174634720193485
C 10.047277212754802 6.586571059725391 8.736314570810633
C 4.921284316811202 6.735793456072795 7.51414120337199
C 11.058539935903038 7.843301267353827 10.244417388625708
C 4.655007200407722 7.111084755448037 9.827266738948511
C 10.149031299669716 7.819460681175857 11.140623795965233
C 5.398415815164035 8.000783389155604 10.71507117795687
C 8.108112554788724 9.902562433968487 4.899986462885469
C 7.440817381843638 10.521858174459181 6.0316480565052375
C 7.604278650212525 10.553011581028743 8.858589090275391
C 6.441854404350855 10.246381648545892 9.673819548570506
C 8.088225415019938 10.617826569967773 7.327231293178883
C 6.086500801074789 9.284521580421524 7.3865416822913454
C 8.403809218229718 7.630322906625302 4.530811684482566
C 6.40301058225962 7.89597006842129 3.8254895362847665
C 10.394314932142064 6.0665874025481115 5.741175521983377
C 5.715119439115634 4.937373799267818 5.778511846097478
C 10.031809369934207 5.143991742655175 6.490725096611174
C 5.142483867300364 4.7094369864447785 6.8909056509734175
C 9.489588032607477 4.517060396767381 7.662747252818127
C 4.7182793852459195 5.373504465037765 8.091433063403219
C 9.70928017709675 5.192492141830748 8.951191667730791
C 4.647575777071297 5.643192036530329 9.471263886226374
C 8.783845166374471 8.05532176073903 11.283105177124883
C 6.400365721752411 7.6072051857382395 11.628203041632506
C 7.474871041751066 8.752751703096104 4.231108086857765
C 8.361313549063459 8.572260515689557 10.011366545547995
C 7.160743077895706 6.667177706246095 4.071772976222495
C 6.652007301662347 5.858982479988734 5.215805017639223
C 8.135306341405014 3.923477266245973 7.820591904819101
C 8.225872810234382 5.050538220878543 8.709202231030535
C 7.605116366969927 7.676246911138456 11.976992218521012
C 6.602384525985309 8.235832301271053 8.062339621706458
C 7.143427146062389 6.689523454864841 6.242442091112145
C 7.578113300298213 6.3727134061921955 8.528647210821504
C 8.812447876838542 8.224238178284368 7.157621555257875
C 8.86209389787357 7.2076423112667465 8.205043196639267
C 8.142984778180972 7.600987702082897 6.005665098171755
C 7.474945073300568 7.807611207100322 9.197566340992646
C 6.47496832863421 6.871648444677327 7.516101892674312
