54
Energy = -443.73304093 eV
C 4.003789152210324 3.9107527454641713 0.7871250076072522
C 5.329235728159633 4.420523506478309 1.1819712332969508
C 3.752158994622167 2.5111671051483913 1.0846839055115745
C 4.689284807529177 1.666582663642013 1.8739111741177281
C 3.1314678575805757 5.1122405421869335 0.9075794851360458
C 2.4372666730601242 2.2134382484187283 1.8220630295109357
C 5.856182539160581 2.254713018040509 2.3979639293965747
C 1.8524926855553716 5.378825040859293 1.5570242470893862
C 5.331382751381927 5.8315940805108255 1.372933214703058
C 5.680670407521111 3.7190572628938448 2.442621341917219
C 3.9685874691398295 6.262660030363877 1.2283656852281568
C 1.2071346832658447 4.543209906513916 2.5224904450080445
C 1.9253579063396462 6.686792040075213 2.171115653411678
C 3.2619999736340715 7.164561912297868 2.128383695272383
C 4.11013787327791 0.996907159367908 3.1124908743240867
C 1.5187247953749312 3.1673211643864962 2.6138118334644864
C 2.7443988300415367 1.4295131204513554 3.087796096835031
C 6.154879418092548 6.293213153738572 2.412940702308009
C 1.0878704384178524 5.264134249193962 3.808124883810486
C 4.177158844609986 3.770411918859553 3.288902423622547
C 1.4578289257779646 6.623071889080769 3.5330824845102295
C 6.159267321003521 1.8902243203272884 3.746044233715018
C 6.551750943243581 4.179341809073579 3.545692541517457
C 3.0264638510102517 3.017268785742341 2.9380426686523644
C 2.4273718514060882 7.231750319155627 4.363154479227917
C 6.886798591990517 3.045771737256731 4.363308252393022
C 3.6031460510792006 7.556731944821322 3.507802648240076
C 7.285229790998128 3.5544730457745866 5.682471229499733
C 6.224941796501162 5.304723264652059 4.477396532919403
C 3.8918441562352117 4.189477585902516 4.541811794799901
C 4.964001991767837 1.1726264856210202 4.2424629717931674
C 1.541212303227596 4.708757165066889 5.02794996316159
C 4.750981490683185 7.243817197149675 4.253295167489815
C 5.916756091818871 6.595580461639662 3.7056149608914533
C 2.818817011821105 6.6375683489607225 5.5771549836343866
C 2.0089557563488913 2.5138342602306842 3.909637113842954
C 5.985213542925382 1.020211205843774 6.33920334834441
C 4.785631672258051 5.14257224939635 5.184507670448177
C 2.4013571690707805 3.4671080035678083 5.040234603039063
C 6.97317000644095 3.104546736427058 7.048352254344516
C 2.185929737204489 5.448041534752886 6.080581670046666
C 4.306012425774279 6.624039461277988 5.580659286978185
C 4.769820836621105 1.2578529415646875 5.722658774259543
C 7.04974751736599 4.9837072480027 5.675365264124152
C 6.3701105260480135 4.264066191632164 7.702749939025495
C 6.163998736112803 1.9725778344051823 7.321029867524664
C 2.9030392173922213 3.1730415214875003 6.417665465748865
C 6.416761642915874 5.404388139746186 6.890544260450441
C 4.973597769675821 5.768539701204045 6.630575411920275
C 3.961425422076758 2.237920396081285 6.646719095717137
C 2.90455269882571 4.517057095628457 6.960751813297685
C 4.126355263657493 4.919427554171318 7.572015527541398
C 4.831610685192326 2.5385333215375505 7.749755183182412
C 4.99679838555782 3.934414382931491 8.0600926851507
