54
Energy = -437.4934718 eV
C 4.163479055547145 4.369180252954126 0.6110739529816169
C 3.0783628054880836 3.4931436082514384 0.9751152497814182
C 1.747435305055938 5.216047880067761 2.0124838825549736
C 4.782605456012991 3.141996828699567 1.0275828559792306
C 2.3377379133006104 3.827784143776605 2.1819700069111043
C 2.81764184981333 6.151198675787923 1.645999635897927
C 4.119367921283404 5.605035522914903 1.3152079840218567
C 3.6176848662911776 2.182437291572069 1.0604613651747818
C 7.056766771905328 2.4084482161073177 2.497814748001675
C 2.9915387759121175 7.283575763403654 2.580136879078213
C 4.967108746995008 6.029638309323878 2.445683580124565
C 3.4815192719833017 4.01323326504316 3.32534769623018
C 1.9878157384345143 2.49123311246379 2.839285478271833
C 3.1033831234227454 1.5978888915095786 2.3131431147838497
C 0.8221924259127077 5.757819055885545 2.9384242862137615
C 1.8798529020579247 7.662446640598836 3.391958513345758
C 4.3003955056591066 7.150759643334979 3.132614752153224
C 7.541852267171346 1.3441659199793494 4.5967073033099775
C 7.832573764191457 2.431111920217939 3.6790703058031955
C 5.283884301175236 5.119361342545522 3.462727910213883
C 0.6002753617691009 7.177232644848742 2.948200915197696
C 4.947846035214634 3.6120632480057924 3.415173695717288
C 5.3963515851381665 0.7163292570883799 3.3274210780085083
C 6.0505909288799025 1.4826945403806515 2.3594334492186677
C 5.642548440648831 2.908379392757962 2.2111988089949275
C 7.491502887902345 4.615773994824601 4.958332513647281
C 1.524482490868793 2.595668784770243 4.1794107464016905
C 8.034019603035059 3.375142378907382 4.798914738174647
C 6.219667718320678 0.7732948099922772 4.539376484123609
C 2.195487155975077 1.7060498194764502 5.063842438313029
C 5.150511871678867 5.723595250977756 4.854952713189688
C 7.696018328501163 2.291156417231886 5.758162004828885
C 3.8898176157185245 0.864429673303483 3.302465667501339
C 2.9787713906560254 4.488606477762837 4.4762244174631824
C 0.8485375249939003 5.339962856592337 4.317056257930427
C 6.312997466853117 4.93490124519914 5.532295662973652
C 5.007803265737329 2.8601577502363824 4.895814927446779
C 4.477073900650782 7.119172478242515 4.538659648083557
C 2.017952234005692 7.5178717684158265 4.801800187225078
C 3.8989440046008794 5.113551946379214 5.542147740704217
C 1.5119587620065915 4.044631241152798 4.817290539493496
C 1.186282810640699 6.357257326380866 5.287340532024319
C 4.176038503753033 1.6713802839273062 5.560155768301122
C 3.333949479022775 0.9575445948791586 4.57539357213706
C 5.560952328972887 3.667368976850912 6.122937963922145
C 6.445497205073809 2.423016074640303 6.369255230290078
C 5.594304967468068 1.4141543319797034 5.689261118445031
C 3.323302038688158 7.3101452899968855 5.3574126123650085
C 2.9354741988160993 2.184426681527431 6.235406066371487
C 1.7477177224262586 4.2651296690034535 6.348098793900768
C 4.205000032357192 4.126028621942247 6.607521235817948
C 1.8508969336923353 5.687440743322802 6.385141058458883
C 2.918960846289804 3.469734222391217 6.7675650471646245
C 3.1890191892875266 6.202954519429837 6.297280462588346
