54
Energy = -428.70157506 eV
C 3.414085635674972 5.956392079952573 1.7688711073428416
C 3.8312349889874233 3.3540031817030806 2.0324919958250387
C 7.197265692751723 7.326483323817929 1.1205040479249253
C 3.8007684112194724 7.360396064120628 2.109967593951677
C 1.2406046920044842 3.757081656772422 2.4203480925164427
C 3.200653750082833 2.3288173336577955 2.7282014392211105
C 2.072146655710838 6.005500671923112 2.2270466325875407
C 4.893947894250154 0.026963043141642894 2.502678693758483
C 2.9611313138783015 6.795825419882333 3.101325073371779
C 3.8518107950511133 4.598495129915672 2.413608742275337
C 3.9231014356748677 1.4406147240205058 3.5910481681168585
C 6.7945433580623655 3.3645952626991686 3.869263370229754
C 4.715794265565391 0.27216860700272316 3.929441778311692
C 6.995368916167188 6.638029735118006 2.3567753243713554
C 1.9923338967551865 3.3444220615532236 4.45189874418855
C 1.1761048832859045 5.012140729545471 2.229755687593173
C 1.91209902403046 2.863469185403479 3.141856942545175
C 6.142160583250949 7.669022266817168 1.9685208913714107
C 3.8175556597378875 6.184286949046119 4.207894965237116
C 0.18556331849125918 6.096278514746484 5.536552757764583
C 4.051897292862281 0.9397766160675189 4.869288637628668
C 3.7828269728881834 4.779573198920484 3.800061137321146
C 6.496958614641066 6.587839376737845 4.6322861317812585
C 3.70630680125195 0.8528526895090477 4.644709764055172
C 6.164028292557541 2.393864823256096 4.620351755043293
C 3.175501344298254 3.9463235009859976 4.769933297386592
C 7.040165676890627 5.834291520792142 3.501524206240013
C 5.175772831029221 1.492516122559019 4.203658361151965
C 3.9713769950760702 6.738420468687938 5.640508170569092
C 7.160450978410441 4.467317482416437 3.607220278658628
C 0.21128608106272664 4.867605298949164 5.329397327987539
C 1.863777012029467 7.947654993053029 5.933460153368225
C 3.6402428415815944 4.090232236848712 6.178181100567641
C 3.6519057088640676 0.8528526895090477 6.187758316198903
C 1.429505647868904 3.3929482676115237 6.679152492511379
C 5.063866659392772 7.032331975700367 4.596534337248227
C 5.124314137255451 3.73362167496966 6.446114750230888
C 7.120340767632105 6.778341334593022 5.806015622040177
C 0.9662757288762556 3.7336216749696596 5.449606556943039
C 7.225310179414264 3.0947805864714066 6.867797358777475
C 6.138938575834225 2.8226386975125766 6.057151371217325
C 4.095642667218892 5.63068538635534 6.766738125025455
C 5.468511564722098 4.944971564872332 7.021274622249975
C 0.8503876124641523 7.22567123502812 5.81963903411668
C 3.552778976168448 1.3248791834648102 7.346452874981086
C 2.699891938679514 3.351535273531245 7.0197364574499135
C 3.2745172936888647 2.4977936181821803 3.596681089545671E-4
C 3.1580882324482666 8.053379266771065 5.6178565882725495
C 7.338806949734052 6.533670367673558 7.032461832224357
C 3.4982240490340746 3.3484026886048444 1.0437620498115572
C 7.488480676935536 4.066946779019245 7.551282226805912
C 6.807596121954153 5.274578114856557 7.455529755917883
C 3.6254909559132487 5.662756102951189 0.10742739992507684
C 3.4861915991514825 4.629038800689046 0.8232475254430559
