54
Energy = -434.07821511 eV
C 3.199716050328641 4.340281032855731 1.3719305784995655
C 5.447592513661439 4.724693231480316 1.083158069217973
C 5.238355547602853 3.326314746863672 1.121236916270708
C 3.775745955636957 6.602012693952362 1.5480639118602608
C 3.51405292085851 2.1999658857857693 2.447583629343225
C 3.8426043186772345 3.086251309688919 1.4174583206748612
C 6.6280716780744795 6.327490823532785 2.807066444376082
C 2.279362024841623 4.977074776337208 2.2576941648008493
C 2.6620576276732417 6.383862470810722 2.406638943266709
C 4.139526942685829 5.330869730561455 1.013494506911328
C 4.709493061651538 7.5385324468607084 1.8521476993011792
C 6.211556527366352 2.725664484180384 2.021999777426874
C 6.92309988502334 3.843706442705041 2.6881085214290854
C 5.267586939043262 0.9653256438644823 3.8768491239197
C 6.474904851610549 5.137281025014716 2.0397492019300336
C 5.8370148486802425 7.546430362278738 2.610828053797181
C 3.902748566760944 1.0114137774759675 3.27297473812576
C 0.1012228049325674 5.3983918021088835 4.008569428373873
C 3.078122790922866 7.566262287521861 4.6937458410951365
C 0.3547336592238928 4.033769220807661 4.017157874520618
C 5.791849729588627 3.244065830075168 3.503340355552478
C 1.5746949398452033 4.578033950260695 3.4293252512252477
C 2.3783245361180705 6.846095451622038 3.676954523471477
C 3.426283840991763 2.704793405063925 3.764379704453805
C 7.208864359194668 6.122092190320639 4.123866522671379
C 0.09077050867503697 3.8179634050084603 3.60829646452469
C 4.5369535851185825 3.4762880812883656 4.250696341162912
C 6.043864824605436 1.8890596801595794 3.213005271795238
C 3.6872208378155826 1.2758420959590282 5.664252041160697
C 1.5810722657954568 5.740123594106093 4.36793172010414
C 5.627174181683262 7.600753603232796 5.089891230644625
C 7.63471243740952 3.9232547804367717 5.049531832803914
C 3.12502065173894 1.3637234166002035 4.379480389067331
C 0.09077050867503697 2.9935947124945845 4.868348701926407
C 0.0758264472546639 5.043884605911413 4.311519922953801
C 2.1538853695859213 5.638980207187889 5.79091202353835
C 5.374063628152178 2.891395905750139 5.827501573797607
C 5.511763877496989 0.21624292293807462 3.8381105055552704
C 6.3857476394352775 6.399627563596884 5.306514150025102
C 2.106614504900591 3.150561758610089 6.462322695346584
C 4.3524934540449305 0.101758831886971 4.646288475265726
C 6.482540793547814 3.9154576611116076 5.813429685101185
C 5.001186529875761 5.380623548729434 7.14109103660526
C 2.791687129785549 6.910507715904252 5.972004551374674
C 5.067446729869798 1.4551272142501306 5.277585706509716
C 2.531673765535021 4.495430072576528 6.5780770536440265
C 3.2836019372901672 2.2862087476758894 6.578569636071189
C 6.057592578635666 5.309247312945026 6.164419972632333
C 4.091137099856816 6.390677655598228 7.917938742506141
C 0.9653588836575602 2.81329345389335 5.746845118877384
C 3.4262838409917635 7.1644234576602495 7.154292697273702
C 4.327678584791171 3.102877027018544 6.849838133014503
C 3.9032476774267932 4.396401171038357 7.235057958953344
C 4.550980440335417 5.150927544715706 0.5665764597336804
