54
Energy = -431.25429408 eV
C 2.4059822173516783 3.4101167517310924 1.5876134273692801
C 4.651984703096772 2.8622554892836543 2.127309653968141
C 3.7360579485464194 3.830812865778753 1.3071634079860968
C 6.0145035035404755 4.822326305336887 2.017443587563921
C 4.504476915838836 5.123944157905897 1.8295318528832938
C 6.129920245694353 3.3191591938943255 2.278487960373793
C 2.4047700312876854 2.16893915448052 2.392809439522465
C 1.3670178033415283 4.282976136301724 2.1912697174167475
C 4.317898466955908 6.510776520563473 2.418591717965207
C 3.7442767754487583 1.8561642629763047 2.813661190849283
C 5.524196179858284 6.749278541924792 3.2765479497179206
C 2.8745729560456867 3.7942067294862416 4.0934915905912295
C 3.2614223316409556 7.146241924385541 3.1374941251574064
C 6.651615630504035 5.830387079922676 2.8737102529677356
C 2.2873194199704314 4.752122390788747 3.2426941526835384
C 4.875321183348218 4.096937556018646 2.9829190860531742
C 2.442505989245622 6.095008053839582 3.807048683791655
C 0.7156941169733646 3.58864574733526 3.3505389835276627
C 1.448677821062759 2.3096216504161338 3.4872314127152095
C 7.019621041560177 2.947008285713953 3.3763219469124834
C 1.1804827132679476 5.890570303257241 4.667643381501653
C 7.902131485518231 3.9380521157674995 3.9197928658890775
C 7.476471024634187 5.3674571412030145 3.9340488953731283
C 5.0888643729002725 5.8663455197825165 4.595312555981901
C 3.752744932894297 4.364651985486789 4.989787497873072
C 0.5681529553106831 4.454981740869079 4.552485925728883
C 5.225368495206865 7.968324987389945 4.162714365344921
C 5.092964759103404 4.373779925480909 4.385826850245365
C 3.823068049566618 8.030916435186178 4.160048000686334
C 3.7722110912987743 1.7977942497502912 4.249130101112956
C 2.4192714236092225 2.450826189410827 4.666525766786301
C 6.535497439615457 2.217194941606856 4.690620722365906
C 8.298147776726859 3.608922264929743 5.238539012960727
C 3.591545679701242 5.822838007818831 4.865710780130073
C 1.2458467503685946 4.257393415663781 5.864755159498017
C 7.624080596681914 2.4507093857866624 5.7611899619852736
C 1.6359449009990807 5.735502955148941 5.989128338238672
C 7.37981218438878 5.8119166978481935 5.332770554787035
C 4.975274132070947 1.9243062366008126 5.087412050906157
C 5.643970701799396 3.303763536685513 5.1263004433199555
C 5.243599829323993 7.672869471699656 5.694446208838863
C 7.997528071188356 4.76908018682223 6.103533150848547
C 3.837019685898491 7.6717828956682705 5.794391141077892
C 5.942055884102223 6.330147098987303 5.8570130328363845
C 2.185089132762719 3.2126659591191435 6.039485989468997
C 3.630896146262532 3.786781320339529 6.387638938274568
C 4.888925676843352 2.824726506618315 6.355803773577481
C 3.1356164504177313 6.2939359032656 6.207554356118156
C 7.281747622751478 2.729351755127919 7.107850168686381
C 7.570708276009364 4.239730503610229 7.344506258418949
C 5.366357666019214 5.4472130656013835 7.043880198129608
C 5.917440209144906 2.9911874855200864 7.407927868465997
C 3.9797002092686413 5.2351560892725955 6.982703582781059
C 6.188207511310056 4.4367740428658635 7.616221080022329
