54
Energy = -439.75926779 eV
C 4.047707193071137 3.644412411087889 0.25949031671390366
C 5.269248121419334 3.6141998716926205 0.9161521290832985
C 3.2974712311049643 4.872948037410161 0.4464520936447577
C 3.3213965716671847 2.435144762646616 0.7132583855640138
C 2.002700340766698 4.376640055916543 0.8227380191427923
C 2.032437148240943 2.870768215494291 0.9423876958434659
C 5.392800668460468 4.850192250754788 1.7237554955473866
C 4.265987350880601 5.862966238694992 1.261538695591927
C 4.088821012173611 1.754455202584293 1.7379788015724886
C 5.46604171461843 2.3786808352844147 1.6462293740164364
C 3.4008984785652556 5.576064480451605 2.57765442029199
C 1.4051217019033095 4.447022319003122 2.1384150919598004
C 1.5471466593212622 2.938178803437913 2.2762106542030156
C 4.006802132188357 6.8861899174135495 2.2925826968700167
C 6.401150769687659 2.4294948391304216 2.663118939409161
C 6.534994989380339 5.02268099305653 2.6362423373594854
C 2.013685519251047 5.439237836521581 2.955740781744204
C 4.3521192862238225 4.548577073895228 2.9242764198553903
C 7.042736887857204 3.7073265474346546 3.098150950792862
C 6.581293472182119 5.971655674311894 3.7697530049764243
C 3.4434227691807364 1.4663065125938763 3.003484006821975
C 4.33423342132354 7.174904533796586 3.6789224973259267
C 2.179052421282219 2.1871983325088005 3.3331477798115032
C 4.920479674823169 2.4975283480432755 4.412091311120231
C 5.616903424570925 6.862449586815664 4.339188868090611
C 5.975470786630333 1.575859127103668 3.7971234133959615
C 4.487166577937643 1.1332399227941126 4.088882288792904
C 2.0045638758515323 6.018851316118016 4.244563497228743
C 3.110139273953524 6.975632471194521 4.5768146633178475
C 7.457644201975009 3.8667747650772206 4.4557612476282715
C 7.233484105294807 5.220270520585075 4.836099144632889
C 1.435427476115175 3.851612359619187 5.3561036709578165
C 4.4223369389263265 3.7794313900258434 4.108156064775534
C 1.837649260237726 2.669228442076415 4.651404615600037
C 6.2625647470469605 1.8997154892919499 5.199766238404281
C 1.5641314294942013 5.2723444254057465 5.426323153478499
C 3.2328638446706943 6.775288947500453 6.038077539615252
C 5.572955182568452 6.3679545352749765 5.903669926091655
C 4.860721251400833 1.6357404732691314 5.655466069187296
C 6.613119042759433 5.312911626723662 6.0814142432865825
C 7.0205621496499555 3.0538016833068586 5.583677550012091
C 2.054462191848175 2.7729255230269407 6.03385005217611
C 6.426597307253567 3.9048415155455656 6.573964728861137
C 2.167089254418319 5.894330722155381 6.594163805501765
C 4.069872044706044 4.497341818549161 5.163050228666852
C 4.481063929178961 6.68268568688021 6.943596120725869
C 4.259759654935529 5.664474103175314 5.649075406692458
C 4.392481154243109 2.3496088021436514 6.842910951851764
C 3.0453213231051235 2.7947496666443348 7.065861498695949
C 2.7067046809210216 5.339443362994115 7.753488870610542
C 4.088540842074872 5.782718465388754 7.987523092875486
C 5.286774284620211 3.449184887531154 7.336044113884712
C 4.457638708196265 4.315610167384689 8.116043013434037
C 3.1012881584736878 3.9212507418652414 7.961210660899224
