54
Energy = -422.71664092 eV
C 1.3093802629792448 6.9403483168022015 2.2513861625547165
C 1.8700305095466132 2.1391862553487018 1.205924128749591
C 5.665146109442863 3.7827935473783425 5.627129876707701
C 0.08309569427253699 5.432570521182556 3.7108433382498665
C 7.974913855772202 2.0320365815873798 0.7309344757719956
C 0.3916479880920169 3.0241780180543802 2.6878056337317315
C 6.1517109611948415 2.012539042486354 3.735640073801997
C 5.003599899436151 0.9782669634949442 6.865215780362886
C 3.2598638687686994 6.029346097194082 7.718378496175086
C 5.352451684003876 2.063676794112452 0.49304435383714046
C 6.490230517729304 4.476685324269129 4.588492977716932
C 1.7391399620804642 3.5133289811304156 5.570289534090744
C 0.9284966156352682 6.123916450041136 0.6751880162783384
C 5.788232249807887 3.0367288586976624 1.5111884085812641
C 7.210583940952297 3.1276235882651937 1.0985948368587206
C 3.62343544074814 3.758884629890196 0.8763735626237452
C 3.98398301244984 2.388706511567112 0.041421130913846305
C 1.740102901703826 4.815708493677285 5.029111274949565
C 2.2954333649452083 7.962065136042605 2.070440909430474
C 3.777442168867917 0.436360372378213 4.59127313660431
C 2.9088503427599193 1.3061514074134652 0.577695435898984
C 5.588554411004937 3.333612592432648 4.225180450999166
C 4.6739672165119375 0.08281414021903946 3.4840115993886966
C 0.0899412845898453 0.57721773098111 4.821993117467487
C 4.338935601191739 3.5978154978516432 3.356861104050625
C 0.628281949268256 4.4595534066724305 6.050802342287475
C 2.0350494510664996 1.7420518889772412 6.865215780362887
C 5.629169150995024 1.0460122065476485 1.4699318200982225
C 8.451314111107566 4.901393803664413 4.982124881621208
C 1.34043114151887 0.3384598111974014 4.3226721791292455
C 2.4860055025104972 2.542855849826037 4.962962305174202
C 6.5325817300482205 4.848066004758642 5.964448139457963
C 8.432858305803009 5.9423206270673345 1.3574748625630453
C 2.5023628952310846 1.0864095457355618 4.690486180808416
C 3.1189908063431036 1.713458979701501 7.61581200815287
C 1.4833544083568102 5.073737171799674 3.653444713133577
C 6.311140777620835 1.9844096476412791 2.3768482186113173
C 2.3675575026828666 3.3671477693162144 1.5383668506102224
C 7.939407428708501 5.191682614795738 2.4450054904529224
C 4.606136266719154 0.2105914443595925 2.0476281988243707
C 2.1485735350638877 5.8851896571409865 0.09963529694067391
C 1.8179640579014789 3.7956058243108677 2.8682440714594164
C 3.2322075311786342 5.016479823906586 0.14651269196457847
C 4.721044455583203 3.8069344551197735 1.9482863613155093
C 7.469031145599334 0.860113404624558 5.295365604632133
C 1.5368528699156383 7.943008868608238 3.2141868820487582
C 3.3172343285365296 0.18944525173781068 1.432351040768378
C 4.870346492582351 0.7264537677275656 5.581531178609076
C 5.603264140731652 0.8210241315827749 4.295819205843552
C 0.5333071031098743 2.0111151010728916 1.737363333475939
C 0.7564782521865039 1.451873565184227 7.17654577718322
C 3.050720088585815 3.266443826163519 3.7528265168619113
C 7.747538843109797 3.799689743873429 2.229956158885148
C 8.340744867273905 1.5856269480713292 7.981211890667709
