54
Energy = -437.92759899 eV
C 6.613121409997661 1.1192960295398375 4.1833107809783705
C 3.733340969623276 5.381836641089307 0.7493484805252237
C 4.289630975467407 0.057297702826079516 1.485533945942605
C 1.6965441319289536 5.347409284749158 7.128881396351788
C 6.915240982694056 2.8599001378056674 2.0384101699317694
C 2.945599492612722 4.779455825509404 7.00573504053482
C 3.4103068730431 0.5394487623321754 4.998385606354317
C 4.795478945885432 5.219735476951071 4.653511192021253
C 3.99364881853507 7.166454692436193 3.8313774588840874
C 6.791194584059048 2.8662018638615367 3.5715005659080554
C 0.9775973898437041 1.338937102542979 5.2985475315306845
C 0.8759834574422403 0.05608207578330742 2.5505851404713895
C 5.550573946417418 4.5939272962182685 2.2642771267340542
C 0.22539036680708524 5.171169277731998 1.2490909125096818
C 2.8818665973710096 5.98463627036703 1.7675624737183677
C 2.8942856951475076 6.630473718830353 3.085198736689923
C 1.4335019971225045 1.391416713849378 0.6802173037429077
C 6.381062527799876 1.2684312434480955 5.390370878938879
C 2.140964207040814 3.4837641343126875 5.866919021256715
C 0.9414868262642255 2.6546573995872347 5.77285864795164
C 4.791418784489907 4.504958038936949 1.0411562309962514
C 6.805381224349369 4.352329199161639 2.1133376867969726
C 1.6975652263269663 0.2050830721799199 1.356599056887608
C 0.932063701897088 5.41056297767534 4.885522620892677
C 2.970597351368789 6.84790344383725 1.6896316355587033
C 2.1913973440229007 4.652044645298106 4.812047197082991
C 3.1650377818153057 2.6661017762209283 6.071735841118371
C 5.362019969617945 4.38925252719723 5.560805434573618
C 4.963924797949143 0.1993286428026094 2.7993293271121673
C 6.086228054377051 1.0533590429904287 2.902431032893405
C 4.671703373816779 0.8949901620588018 0.4858166323332957
C 5.610657675182846 3.35197327254943 6.2276633118076505
C 4.965533242793511 5.477051964694423 3.2005372651287045
C 1.9409934514627067 0.4120904862375575 4.872565580902733
C 3.2156112157035044 3.34144780601164 7.010261027641773
C 6.285853356026752 3.4399405960485434 2.578481699811587
C 1.5274889699304812 5.955286126498275 1.1733736084095046
C 0.2809299073385921 2.2926072055738387 0.9619873312469678
C 0.0690183970797087 2.2680279790913493 4.705238004317733
C 2.036512815805605 2.5196363224532816 7.122695585589694
C 3.5841318660046593 5.986558090696623 3.0381365908444025
C 0.5344285512281788 4.560113701231327 7.238763110813884
C 6.103841033912861 2.202461229322291 1.9912175305834734
C 7.0910116714666485 5.17854050642104 4.477137163057711
C 3.3911499728782504 5.452537448734322 4.390739283873822
C 5.400619201499862 1.9767421281194053 6.087650804223226
C 1.6379728541289575 7.00783086500205 3.648197023402503
C 5.257395539489922 2.124310556319792 0.7943875105330028
C 6.613121409997662 4.288757357963141 3.533098148976492
C 2.2652470421150763 3.755391280800454 3.617921399916094
C 0.7364236106534825 3.196948353631353 7.213343446529358
C 3.9794162806097955 1.6102403886410954 5.873651698566499
C 2.723641027541339 2.8881830395089896 2.833578325950894
C 4.56405449289456 3.2654120697043485 0.3592282690265797
