54
Energy = -431.97909156 eV
C 4.360189239779761 5.71293427833575 0.9474624557124266
C 5.1391213024055915 4.601728543279907 1.034783206121615
C 2.9817621700164376 5.87829267442846 1.3494667798003228
C 4.850060789170873 6.741096763919163 1.8995289732786702
C 3.034306149248044 3.4889488295616364 2.2449722616387024
C 4.493841907536482 3.350232550640928 1.4949788331967853
C 4.305095395726472 3.7942742321647236 2.942079971212845
C 3.2139833228580033 7.207521386674909 1.9321673453310053
C 2.314688693705107 4.864215847217929 2.103108089311599
C 6.384879411270438 4.913812944433642 1.778900727802408
C 6.4108044236479325 6.243334740050657 2.328493835578673
C 2.533889470268828 7.6002763287571105 3.0834076365240937
C 6.652959894498423 3.800570760941306 2.622785452398666
C 5.477043978939479 2.847469150783816 2.538954210336115
C 4.628907357014717 1.002877991667022 4.012864700095268
C 2.515764914685211 2.5476886046018477 3.337173043546939
C 4.517720397813513 6.269292313655159 3.269208143041695
C 1.3779722175867182 6.763513030831951 3.5045287824456586
C 1.55028966229709 5.357183919028765 3.259774561785697
C 4.43607206054443 4.957747076643208 3.706991177245549
C 3.29547257666061 1.5592285407805249 3.969194679342808
C 6.787633167304415 6.377352069893384 3.7217397423125065
C 3.1980806874491097 7.951930123138547 4.311807824752549
C 7.114934646976093 3.848277674758874 3.952797047879952
C 6.380990032859545 2.663945270666931 4.695830434276552
C 4.52119081917289 7.204897167810244 4.405458924414088
C 0.9710020795346017 7.097954850106475 4.825532309049709
C 5.618814904932545 1.8744526735561593 3.597364005839002
C 6.780926060005346 1.6971252636128675 5.876312710351898
C 2.2973298456874383 7.391311816726733 5.3168122598489616
C 1.753539745066308 3.1703178231722067 4.424838944325602
C 6.039038134362445 7.284425318901679 4.648814043670333
C 1.5787840070840278 4.593728117663642 4.496426925299182
C 7.173799866735747 5.177516409389717 4.533750890031078
C 4.582293492912353 0.5991911914256242 5.428149781420651
C 3.2849322986203107 1.7022467085144237 5.469626252503018
C 4.676566657207702 4.834671058462017 5.044281426224914
C 5.297271560849064 3.5443774632456058 5.544465540186733
C 4.391628668826042 6.222257093998257 5.656986708911527
C 2.1511338405672356 2.684963818188381 5.713493739275739
C 7.495550154454317 2.415542527778731 6.817851703141013
C 2.114305292029036 5.032039834534724 5.849351521557966
C 5.624116224830477 0.8735444845915745 6.3187974453509685
C 2.867386238815206 6.300316942460513 5.994873652139933
C 5.919799559395592 6.624302232335741 5.893435522977169
C 6.675083366053759 5.423462525975773 5.88994199667798
C 2.4524290743392534 3.835173035967564 6.55520480983837
C 4.319096643463948 2.6664406271909153 6.211036941517484
C 3.7544743108979084 3.6175815075260833 7.272199845180736
C 6.300617567105466 4.303564775951788 6.82043447418267
C 5.1013232534499515 1.8774933892020713 7.222551366832165
C 7.547585816155541 3.5948736276592834 7.258014622072607
C 5.1125430303638595 4.201935618723319 7.762251881125521
C 4.748476468454416 2.9180493001073553 8.216242692720185
