54
Energy = -435.14918241 eV
C 4.358049525603075 2.0887742208207505 1.78686436530662
C 3.4980997724092653 1.1914759099001038 0.9175755491501728
C 2.8903990601375287 4.846716576231375 0.42409178948542453
C 6.285012950265349 3.442486009784359 1.040617023718318
C 2.325246349165513 7.120873048069544 3.8543913777842507
C 1.2624503184355191 2.0370791862978286 5.0748075078696475
C 6.1725306135938025 6.124449297369522 6.284689191986159
C 3.669050105742441 2.566327884557532 6.261087733341586
C 5.910515895226053 3.6678573462106123 6.220289441084273
C 0.8308045718747266 0.7730876986285219 2.961747138217356
C 4.70956829471556 7.333606523075757 4.720562614006546
C 4.51250671352036 3.6036896721299105 6.736978295007458
C 2.825084192152389 5.664887907452188 6.324530451569133
C 2.660870124960419 3.9031867679379255 3.097001158182605
C 6.2743825618710645 2.7274332078561097 5.2000926580622915
C 3.524259564445117 0.1378690207825863 1.8146947494717567
C 5.227033463564445 4.997056511558478 3.7639709187388948
C 1.6384435135000255 5.929397375768023 4.065986197345089
C 4.090646430927513 4.025891686137237 3.570590981089477
C 3.252671803157955 1.4396824311568843 4.0960147682436405
C 0.11668811088791077 3.143700039976222 2.3790375254984
C 6.78191697025291 3.081357253365891 3.8700065529571925
C 4.038848692991942 6.258376727671051 6.6937480413489885
C 5.568029257169818 1.08331819868974 3.639527830277669
C 6.500606643574132 4.374077946360335 3.292030952418166
C 2.4077667029947145 7.625177857846322 2.0184396727688707
C 6.524536701678052 4.93587297377092 6.409593115291451
C 2.3689358728121546 2.954739845080482 5.606042729250244
C 2.5533314288519873 1.7771025734162493 0.058559935967214864
C 1.7735918195317444 5.390111651590395 5.407426838272432
C 5.10597711378633 6.290744053519462 3.9702969044223675
C 0.24190451627547693 3.7751348924486754 3.627460707662867
C 3.110184850777658 3.0054301917506034 4.176382501808684
C 4.210293608522939 0.991542878599514 2.9524716313926396
C 0.43567767153762155 3.2708944284474337 4.929808416293035
C 5.5030017700632 4.624503107653217 0.8858059798674519
C 4.040570732705864 4.547047806472749 1.011332528125633
C 4.130757403574169 1.5084111026282803 5.424227493718317
C 1.8926562569824408 2.8206780859628537 8.276474484476294
C 3.809993954053361 3.5249881089502804 2.152600806890441
C 1.3292133935380928 4.745199052226968 3.078870402565882
C 0.8349069192469168 4.224103656455864 1.6603820723630582
C 1.3509591804289087 4.049802789402205 5.654596051208785
C 5.097649807052633 7.034054326298549 6.144211804612445
C 0.15350059259109064 1.737366030934692 2.2930979569250454
C 6.559176879219037 4.526936601011518 1.9080242874610003
C 3.4256436795507748 7.625177857846323 4.191500649550019
C 5.458551916087816 1.536715829068413 4.981058654348437
C 5.874887281042965 2.254442199469594 1.6372423041083488
C 6.410931714834241 1.9786631227513576 2.934613305154592
C 1.688522654978677 4.11089959101121 0.5543697815837171
C 1.6874684626146703 1.1636797874699976 4.13563808516649
C 3.8488670672800143 4.887446964014771 6.936520580471858
C 1.2426487398491919 7.805445941009305 2.410882789909717
