55
Energy = -443.65818844 eV
C 3.7160654278811847 4.111919260013311 0.25929758034562506
C 4.9670621001039095 3.5216963755501944 0.5718312298708911
C 5.26502972108286 5.7826693783760685 1.1839967322396772
C 3.7827994453729015 5.409423205841102 0.9628868281797666
C 5.972662960363566 4.597060698774949 0.8601214948529115
C 5.010205464310214 2.4105307311102764 1.4737295962297656
C 3.836793023468324 2.27431492411776 2.604103519468264
C 2.921238236155161 3.527007329402006 2.8287328776433194
C 2.8427943532067887 6.538243046028599 0.9050000572034619
C 4.830154970193793 4.8874504535626695 3.102781179441793
C 7.086149256682105 4.4316340255031825 1.747177834853594
C 5.72670309907051 6.052710977209439 2.7269383353780827
C 6.148234424552025 2.3729873639495764 2.3636561707092536
C 3.676869459311933 4.7045968110919185 2.3707395506133624
C 2.526026179870331 7.150248828362043 3.2499783212437316
C 7.2746446051675155 3.191848080303555 2.514550838760922
C 1.5564779666152682 3.837477700908393 3.6455118293199
C 7.124898871281779 5.479600932559728 2.7090564607262273
C 5.291487740649566 2.4896760835987894 3.529808474910521
C 2.4859038778059803 7.207966624417639 1.880812361167417
C 3.5697297554428844 1.4144212376123526 3.928777545873003
C 1.7481734724324012 6.419258761216362 4.246107447981959
C 5.008941160718465 6.6494828232752985 4.081349371132545
C 5.148854336421366 3.863986250061702 4.076702742496455
C 4.8549156025989335 1.4564135216149885 4.492364383144506
C 3.66911734096042 7.116141274728954 4.154678246716439
C 1.0594885262290463 2.6415317306495094 4.4588131212939315
C 0.9984317995088027 5.152321827800055 4.253331727105898
C 7.701462122484298 3.5842802564377556 3.8814538038065343
C 2.8792578347483904 3.5285186761527543 4.326340809426904
C 4.0866055822479295 3.944976993606432 5.094505555593701
C 7.832556978764328 5.044825977747906 3.8639114212897767
C 2.726206009393113 6.667187667688121 5.27036859084681
C 7.889609188795934 5.509835256586911 5.179028870146731
C 5.436020906097413 6.039530078332021 5.4087126533944305
C 7.6142174855626035 3.154055682166043 5.3354898102568304
C 2.4541822762181176 2.0314771787800874 4.786038492661292
C 4.222077667857609 2.7686192702896886 6.200600407569293
C 2.8658250476298415 2.1867934230697523 6.2343640898246875
C 0.3750976888870094 4.669401093361527 5.403628856557417
C 0.34526428626845235 3.189352894726646 5.498056413871473
C 4.342855183849341 5.171970178523933 6.05610692645549
C 2.270775872281248 5.07467196286615 7.177530418832967
C 5.327902985081443 1.9073576968033361 5.7970950142330695
C 7.961140831682398 4.345089366576411 6.030179282874449
C 0.9041757344716653 4.6873426389057276 6.816982585440529
C 6.690453989730188 5.8775536989701065 5.964371993399852
C 3.0721924679666177 5.88427836666533 6.341427135539616
C 6.476786470453827 2.637205384061834 6.146101969054922
C 3.02798898353864 3.9716868413722253 7.677545619609745
C 2.165384982949523 2.8303776379307233 7.2223918458643865
C 4.533714597962349 3.932195364207255 7.149631678749632
C 0.8188839342390282 3.2693248080445763 6.908210941545088
C 6.9301791123241685 4.767791316680139 6.957375921046161
C 6.042622595841544 3.7249740265909224 7.183007027990744
