55
Energy = -449.06978374 eV
C 3.3765440184952653 3.387635025234327 0.9103937616825476
C 2.62937384653293 2.273493350531381 1.2438775750645112
C 4.653382924602502 3.1853830090644633 1.6725172990223056
C 2.6820231397183147 4.57752124948417 1.361913785723171
C 5.013257972231258 5.613443616241303 1.6987117698178624
C 4.718846711051075 1.6789444715897481 2.1689372889888183
C 3.3229193110695996 1.2709520635586498 2.013028452300367
C 5.713248325625266 4.257220432744649 1.7495116229286751
C 6.863510925575651 3.9318509179760035 2.5512368274455284
C 3.526889455196625 5.701677341996423 1.5263331322860931
C 4.243993937407739 3.5930933436786936 3.1357671528540982
C 1.6322866420341755 4.160771773752015 2.3557301285870405
C 5.440704597544988 6.6717164973020395 2.5706094972714206
C 1.6140210147149288 2.672495311586887 2.2433936849567426
C 5.259457486161746 3.3386120003643063 4.047871459510291
C 2.3524840081138705 1.7235363766768397 3.060907524620166
C 6.53326578592731 2.746771048456568 3.5778227767440356
C 7.3144115295068435 5.058634655960367 3.360156363431333
C 4.251743640906596 7.230891597227278 3.2119881173700082
C 3.0317613418719733 6.710584100684772 2.45164917786948
C 5.065377895830545 4.550590952310276 4.720974989777926
C 6.627198889722062 6.414666440488016 3.4105155633286506
C 3.740171445839619 4.673999030276472 4.0725814835721925
C 6.138952923206238 5.357136167452127 4.387069815587187
C 1.2360591967886703 4.9912582166396 3.480437530806043
C 1.930820202012821 6.373987827727395 3.4999679578265224
C 5.621937858804877 1.4919033258122176 3.260798579324266
C 3.9552641120537224 7.695554298657071 4.611831321317636
C 3.388697697253386 6.014251725779352 3.781692887136402
C 2.59439392932728 6.934734766574745 4.773359234505451
C 2.657555399117738 1.8008496405127281 4.424190736713106
C 6.922365918362381 6.520747321903186 4.9470949052378215
C 2.7634712870357374 4.185629514499888 5.008662115505466
C 5.15023814510297 1.2190034304320485 4.618419505058452
C 7.5633819419485855 5.096581678859688 4.853317495783135
C 1.3217425308047743 4.27960250647919 4.952673038341097
C 6.984551154895729 2.7266582800411565 5.124709480500305
C 2.1062701490447133 2.8782525885029635 5.274505911884098
C 3.77886628931523 1.2671220440838113 5.127223219684159
C 6.401968460882551 4.412243825073916 6.892683923443744
C 4.689262198283705 7.422415473865181 5.799218623788295
C 6.041846280612992 6.884735451708353 6.050361916669202
C 2.551945704729056 6.367003460425237 6.111402915832939
C 5.984264852312211 1.862242325365465 5.672720406876177
C 5.325809962162088 3.5466008028757727 7.367145513733053
C 7.2729422151158145 3.962703844061146 5.79939977974015
C 2.1650052535061026 4.943804710910109 6.175818530026423
C 3.8053720980795585 1.8310297038493366 6.477445926711579
C 2.7088906706564972 2.702766755328116 6.660323840320086
C 5.9233885548439265 5.80923734947455 7.017131976358811
C 3.7947154570021113 6.6761703261972425 6.69880460089272
C 4.556542769970795 5.753555858652515 7.473300294748672
C 2.852632519161642 4.000712722587277 7.205405212978922
C 5.149260604354787 2.260282808323915 6.793220588253127
C 4.145808558743975 4.39783638133324 7.654332520436549
