55
Energy = -435.93207181 eV
C 3.8743061269981194 5.764882618289993 0.5552653108932362
C 4.233727136730455 7.0713732566148995 0.978331510418154
C 2.2120196508356034 4.029046631589344 0.987304826408292
C 2.4677669557171122 5.457269695409487 1.0004542366523774
C 5.6285510659984865 6.8433575069722785 1.4021316189929967
C 5.13636576877214 5.345541194255453 1.4338651132448184
C 4.504542247058621 2.937764924932346 1.828175715103709
C 2.026728153423221 1.8839107936771124 2.850828406403779
C 2.1769036406652713 6.385971608081255 2.11919202885142
C 1.7350238402402518 3.228506753332192 2.17394031466334
C 3.4108099302025554 1.1922698282380395 3.0896055167485477
C 4.618224254894323 1.6111194074499864 2.5216262149568416
C 5.6985484211855875 3.8725007994700436 1.6000515967282627
C 3.2846287820301776 7.299270658717643 2.1089783894160816
C 6.701233143690956 3.415430917339037 2.663997710478529
C 4.507539672255229 5.5879319158289364 2.8924271758731988
C 3.389640804282086 4.704075594126535 3.0518331513628167
C 1.2122922456473955 4.1500198606024945 3.275859462571311
C 5.768672480031625 7.2373782816253085 2.7850698950931636
C 5.88866725009884 2.101952001126485 3.3234660701942067
C 3.343784132643154 0.7587098917308167 4.571359140379806
C 2.061407667209151 5.422522658923788 3.3927140496269512
C 3.2534732531338757 3.707951716666932 1.9322119306005003
C 7.320787077144964 4.138097200107066 3.828515547237249
C 1.354807774898438 2.020822162440186 4.255149037871114
C 6.447629178567899 6.7667803920446294 3.969784316225101
C 4.282064342320137 7.1599112855631715 3.2170350339190255
C 7.0917174128983795 5.512437658350183 4.38843273904465
C 5.236407685835476 3.4485460047774215 3.0785520426869306
C 4.194788378464183 7.226871017577874 4.689364227664925
C 2.6785386600518337 2.026936608020879 4.96630456403405
C 5.515950641872177 7.07602864670908 5.084356682177056
C 4.440359237892505 3.960592714324768 5.236718897613674
C 0.9346282607349199 0.7732750910611365 5.08504123380629
C 1.0342863561987437 3.4976194669113623 4.452503052811975
C 4.639914334587795 4.479439597483589 3.8683370445543392
C 7.09526957191944 3.221373971295832 4.942238315801822
C 2.3008460826371757 5.60674730300951 4.968089766484954
C 2.1176221837292504 7.841117108964013 5.104330019689574
C 6.7165709384921986 5.302214308946778 5.837117542915918
C 6.2849460660776035 2.0712845218024394 4.737163581859327
C 3.3564145395843763 6.346352895723727 5.506897982528171
C 3.1704712275302938 3.371946767228956 5.18813308167008
C 5.6313327778986935 6.190266387017328 6.219726860689997
C 1.9599428882846526 4.211081891087492 5.473621175689056
C 5.280606986391864 1.9435039621182502 5.836065073094298
C 6.672356653466591 3.954528835419219 6.115607420485604
C 4.131831826142036 1.1904577427019722 5.885497607933136
C 4.331232401206405 5.732732666887695 6.542188921846019
C 1.643420685389568 0.7121601053160795 6.420033014501084
C 5.314890133519926 3.3795480837497944 6.367765045602931
C 2.2127367850269 7.299270658717643 6.467502673630649
C 2.773816520212026 3.4728198280101577 6.6536693284789
C 2.752227500547531 1.8380245877606052 6.4725565984460065
C 4.137351337854686 4.2732943710428515 6.793635254465654
