55
Energy = -434.79544842 eV
C 4.52667957436376 3.9054959743084194 1.5897642094611446
C 6.126341463266286 5.81859056156624 1.8170716874297779
C 4.794887050071739 5.374232834799028 1.6124455750634412
C 8.174752520237858 3.5520065641869483 1.8117886153014235
C 2.5548770703418113 4.859442564999286 2.3100721609155084
C 3.109797475328067 3.5591044965878464 1.8163230172337752
C 3.5917523004185394 5.94266482590631 2.220644748823408
C 5.454589076347405 2.8336460501967724 2.161414768958625
C 6.287147946099049 6.900582287747892 2.741328285031857
C 8.553949089534207 3.0184524164236075 2.9069557544512006
C 7.24926394211697 4.742997536386474 2.263990170542693
C 3.81689591238076 6.924955175487213 3.3302527063232117
C 8.168900866759888 5.539937114022421 3.155175464010856
C 4.55659464052176 1.855920270311387 2.753107220912486
C 3.152371289024139 2.22719668790135 2.4156458671790935
C 4.89986945565213 3.9266789676435225 3.0771886711541176
C 5.200471972855225 7.283915558684841 3.6000903109268543
C 1.645505010306801 4.959730919399475 3.4221711789754727
C 6.2918199997677675 3.7649693721207473 3.13855681371707
C 7.536120367697973 6.762084740251786 3.4646576214086973
C 2.4438960221191364 1.8727576453782995 3.668584148022982
C 3.974060827715628 3.8990637750607546 4.132846748076104
C 8.279313340064284 3.3750879115292096 4.22781200183456
C 2.7893320697467154 3.1439100376707656 4.476391991018726
C 1.5161229260491351 3.9399950609669228 4.53504747498474
C 8.487432059614031 4.8006245486806955 4.379453213963526
C 1.7572053220310873 6.039717830204875 4.376465978257071
C 4.143185028609146 4.94690989580765 4.898652563533918
C 2.8680267892562314 6.933454256687289 4.446481860695444
C 4.753969067647384 1.5423703674849902 4.231652413364649
C 1.3588295028147548 2.341229609465065 4.765251712612903
C 3.4161979006803675 1.356760275857935 4.659388905331571
C 6.689090656264233 3.329992419856259 4.5979445621735895
C 7.74607398881698 5.47839721780143 5.405289849136565
C 5.818754721552756 6.980986738856785 4.995999909478165
C 7.280946901837585 6.731376200394803 4.864096483562075
C 2.783907825071972 2.1530400692007907 5.713225887611528
C 1.685153025277275 5.028781986293379 5.586858257026213
C 5.393888401093824 5.5232339969577104 5.135524280831561
C 5.56784745620375 2.365134292697895 5.135990175600578
C 3.1643226365446595 5.340297903186237 5.886897037010784
C 3.4115544456942453 6.814285945131957 5.99564227779748
C 6.527840958877663 4.571479167092248 5.617320426072521
C 4.981456946305843 6.58410230150442 6.1913815365664675
C 3.530586895884748 2.6827358363594467 6.871613625730437
C 1.4228266437612573 4.823045871461899 7.048343030314695
C 5.789182773044787 4.088203378169796 6.852756131077339
C 5.004519946825416 2.923656673912981 6.447296891155111
C 2.8530144343152464 6.913359148812791 7.525462032130124
C 3.7279746816789583 4.8890521953063 7.123400255612157
C 2.8445719693351403 3.799330465543675 7.581821281200831
C 5.0440046419712905 5.485978230163861 7.377260889253321
C 1.812307073734684 5.80885959319774 7.939199160944244
C 3.86114017955301 5.992736786970472 8.254492156752741
C 2.827349515489073 4.9959220459752265 8.693984602019903
