55
Energy = -447.24554854 eV
C 5.7045825968882005 4.092410317453917 1.5564212267696207
C 4.177346024510655 2.2621144579682175 1.5647406690810697
C 4.270479886116336 4.560139256436671 1.69613671039116
C 5.601745073910817 2.704608799527229 1.6171455637263434
C 2.0670806989515826 3.6227999844540344 2.1658678335852857
C 3.32923117249287 3.4195393662015974 1.5254970129219843
C 4.904420930900116 6.803882229923566 2.300877998549711
C 6.406268189965931 4.835757371847089 2.681150455324763
C 3.885157136825622 5.949719898328134 1.8518696487749842
C 6.061774142644319 2.1114121089699736 2.9044125719112146
C 3.969495495375861 1.1794987608276597 2.5108602795864203
C 1.6305559939068761 4.910664105317253 2.686735368550873
C 2.616591157312697 6.1787937769584405 2.6969232618968544
C 6.126153368634298 6.270036377307084 2.9315328218523513
C 4.776603098562784 4.3550538809654 3.264878546818379
C 4.982293992759751 3.0178866566072204 3.871835478046557
C 2.8268379430266286 1.5189988919022908 3.436420512348784
C 1.7972859529483962 2.588350546108711 3.185029186055175
C 5.2414640007414794 0.8451500742809029 3.175643087954899
C 7.291214990243871 4.090709692440839 3.614912971545072
C 7.245218799314102 2.6574131973933155 3.6802514096416936
C 4.326298618791399 7.79961863870759 3.128356416057385
C 2.8988881304766534 7.705514945683323 3.249618513757382
C 1.2200552773415283 4.61982338532099 4.093962586635163
C 3.645538331568087 2.5419638977543695 4.209527227823566
C 4.975886762067242 7.733171368141199 4.417081202671145
C 4.097691302251174 5.0840097554981805 4.298652227361446
C 6.066192619928177 6.746847283782185 4.308321523174771
C 2.6257420834331495 8.008341215081138 4.609845660105956
C 5.362506943781122 0.48902963318647763 4.529978331368156
C 1.4650971418227625 3.2674720591731923 4.417641381389116
C 4.259027725815438 0.6822955085448842 5.500127601845266
C 3.936353442088026 7.909671120351148 5.4025778775156725
C 7.218090727197988 4.673203491042452 4.961262515952814
C 3.0854030531004444 1.36611138301843 4.963901203431239
C 1.6717413646461696 7.257198400444358 5.336278205565661
C 1.6719999600602318 5.701543772138017 5.04110460893412
C 6.492226615871949 5.814517920688286 5.357866707487068
C 2.918939749674 5.694675729829815 4.111847279356098
C 4.567108204677554 4.518331855928748 5.51593761885008
C 5.421998073001705 3.37562933624071 5.264079719701281
C 7.170863328230096 2.2047343005146716 5.089416297463426
C 5.147655551428152 1.3914585648963225 6.376710927112817
C 6.325550737846854 1.1319258544195654 5.448911037041414
C 6.86971134096532 3.518931619344455 5.792462226649674
C 2.6838404391520303 2.8551707306652485 5.322165705633729
C 5.48686957921822 5.293743529328065 6.51566085175706
C 3.564043241887194 3.6487139649278912 6.381803350945357
C 3.661388571637395 7.200563396268672 6.637521418984271
C 2.1918665918686386 6.967641515474496 6.616328529264613
C 2.0121970446126407 5.554263991589674 6.5607967422859925
C 6.0505067327557684 3.8623037912375944 7.062998274913118
C 4.895496481531474 2.822385180048569 6.668161776103768
C 3.1247558883750135 4.895507681383488 7.089277711111759
C 4.247435222418766 5.9595129536817595 7.071441651972079
