55
Energy = -456.24744806 eV
C 4.576069230949611 3.4176201589705686 1.277595696648207
C 5.125004390520717 4.760383850502727 1.3822575910014914
C 2.317907411224824 4.175887709622818 1.8993528888829159
C 3.1832743384397557 3.059159403891218 1.692273131751433
C 5.392582941714629 2.3515599650128136 1.7153899991876675
C 2.7510817258064098 5.535320481017528 1.53727067028184
C 4.157359152255829 5.8722787538905035 1.3299559157801253
C 6.441757944422473 4.8580082132322495 2.1679904649534603
C 6.76965445449893 2.3912808120827025 2.152355426826407
C 7.191550218769932 3.699020722215612 2.593820822196928
C 3.1334316491427767 1.978042124704675 2.642813950937176
C 2.213076219422488 6.394181891915386 2.660629230529536
C 1.4451771735537318 4.2299929071380165 3.1386495137689567
C 2.875695924947693 4.9387183444085245 3.198014608182952
C 4.329277421539665 7.0005042005104645 2.225185175398399
C 4.535969397312964 1.5188554066176558 2.6431028923607247
C 6.485358439020196 5.9495309349893315 3.1155853597871737
C 3.173212566271391 7.415095910065751 3.0270973929358904
C 1.2607269521140212 5.669848014919747 3.544253799171849
C 1.4847924186220776 3.153983826543718 4.123362595383878
C 4.752646350394282 3.6981665535828574 4.306032488537063
C 2.3807395278964925 2.051915517313464 3.940071175555113
C 7.638415005194322 3.5359289651374697 4.022562984044198
C 4.957618721429112 2.5403763759417455 3.63719462065446
C 6.832719224429232 5.771121238238453 4.506279388226231
C 5.341602715934081 6.774480837530427 3.153017883426056
C 5.536006044485966 1.1098604699644536 3.6870915584795267
C 6.911367113088502 1.480191239197245 3.241851686500074
C 3.9867804260936555 4.880844743986535 3.9860717223185707
C 7.3536671352798955 4.543435006331906 4.986654436767383
C 7.430353165528376 2.1489326093689676 4.401100981008487
C 3.433633311984851 7.354619130890667 4.539424816357274
C 5.650835027355393 6.222968209118104 5.371167340481433
C 2.9361343264033777 1.7655327543346522 5.290689293733088
C 1.4246959200990215 3.5826489975958693 5.515746825764315
C 5.445773370306743 1.0422415575168984 5.153493308168036
C 4.260702383589431 1.5055016152793745 5.778382521168478
C 5.117410993826723 3.782624078058833 5.691678821587351
C 1.2314558226995402 6.021603002626175 4.899369300593085
C 2.3736819789859966 2.760780446596355 6.208342842535319
C 4.624119601234086 7.389863473624161 5.701813001068706
C 4.574519165767734 6.206202904936161 4.32492180578413
C 6.663976686078331 4.182238152807605 6.270944576752004
C 6.625902858616277 1.7888927561647818 5.556534632505548
C 2.196190278049974 7.01802427955594 5.337992339278486
C 1.27458609558754 4.935995247700268 5.914888896510389
C 5.465039188199286 5.118078194966264 6.406728000648751
C 4.636165169018085 2.666731080692342 6.664153701815002
C 3.3162824125915495 3.294970260304218 7.141863665550807
C 3.930133899046713 6.8083542796996355 6.847902108252595
C 6.205491940983602 2.8059211038046703 6.502490224032702
C 3.2172141601743096 4.6672291832610355 7.462649850587059
C 2.055769272885274 5.409623844077302 7.012281240734822
C 2.523347914926714 6.742189525667813 6.664125399685266
C 4.381513256299853 5.552089166891093 7.336979869936376
