55
Energy = -439.92010834 eV
C 3.3177525217036985 5.699447178085322 6.324470930838047
C 6.983095155270172 0.7852056175681266 6.167717517164645
C 2.984932393370039 1.081550576494787 5.370726865628297
C 5.4402715677049045 7.427293780134245 1.8019068233364819
C 4.682266282196153 0.9699062650573539 5.240683896104075
C 3.215442019259868 0.11965319874450119 7.237800866655885
C 2.7251320848134952 5.990178817310254 3.0402598251547577
C 6.9535784821157876 5.264769592440758 6.728204443944618
C 5.884366260278502 6.1664934168261345 1.219551459176339
C 2.35364702637262 4.6276419524204035 3.2067290086388303
C 4.967296397976166 3.37717971185518 4.072179392255847
C 4.695210604545111 5.292693475590248 1.2031527063375895
C 3.710490883562598 6.630138826098626 5.306460135900521
C 1.7738884753817403 3.310974496648147 5.223228326223915
C 6.112104956269296 3.3645127480625105 0.866161032138284
C 5.722969603098095 4.511468899910807 4.483325453885335
C 0.06426958606594538 7.242751998805765 0.2526015335456561
C 3.063510945419836 6.494524501427554 7.533452966410569
C 4.690021295302425 3.428984790622715 6.223723942257499
C 3.6138382215966995 4.350172225494782 6.560199040703257
C 7.186527566258861 3.3109744966481465 0.261122371542258
C 2.8703089020735013 6.947648999359665 3.7406728763247816
C 4.012486963163967 3.5224733168201636 7.541431263401103
C 4.912164114911348 0.3278667131460491 4.040180344436904
C 4.599462595946154 6.7293544098263 4.18252474109466
C 6.7963255415399315 6.201052274317405 0.17602805948763584
C 7.778444334455389 6.047920968576707 5.601500315569312
C 2.2718164682586153 2.399104909976818 3.3222983264578363
C 1.2007891445747423 4.07925281686552 6.345804892456782
C 4.820103525615553 3.946032559537264 0.8613334499186467
C 0.09340355906124878 4.0487347952859105 7.135528003553638
C 5.861138362223376 4.424104244539144 5.898153523804817
C 3.700880795140108 6.260993122859315 0.9644009963643129
C 2.3967927745585866 6.878544259581588 7.414474512558685
C 1.4234639521014416 5.431019241632401 5.590810900617893
C 1.897700006821084 4.507650017172072 4.478433549310326
C 2.8564458492759672 7.479814978979584 5.044431668163226
C 2.207359753107017 1.553927503560944 6.238074299009208
C 6.926921964518447 6.509502773703662 4.4724292431677615
C 2.2295697064506865 0.2882470077755824 0.3203300650289902
C 1.441477632091933 1.228807007655651 7.355356997544947
C 0.09904940951253179 0.702876655280289 7.355473315399189
C 5.766845345236006 5.880322129017777 4.032501466569481
C 1.9736524817591679 2.1853302458713775 4.511428713210352
C 4.495968051540073 2.6982224081610595 4.965427010343902
C 1.4092770919552633 6.949118690979159 0.6941253247193331
C 5.2414566089170895 2.1853302458713775 7.196025850406413
C 4.106686440613862 7.577333459813003 1.4961544381921192
C 3.758310468587583 0.8357367710593637 0.5846951316022518
C 4.380224592626694 1.9980107081146135 0.295971887475574
C 2.494324957985345 3.372848097265292 2.585689157352701
C 7.312481440113863 7.488951807430797 5.357129386717401
C 3.70199210076973 0.17534730876772012 5.915132201428104
C 2.4007683245955778 6.529128786262327 6.050654572321181
C 5.753231008511638 1.543788291651475 6.0863822152401506
