55
Energy = -439.88555754 eV
C 3.2802075464443217 5.278421427749986 1.950963959760353
C 5.755135855055595 4.414215651916235 1.872306079051622
C 4.26754848428785 4.276731097298715 1.4877313704361785
C 6.696686538513424 5.6435509388648954 1.9978008049008744
C 3.8170369032760214 2.9450018915048157 1.773318779287927
C 2.560768131075765 3.089710644850432 2.514006821693824
C 3.6602584253894643 6.4764520994259005 2.8751756790133074
C 5.040798367273295 6.986469687549219 3.5406617677922925
C 4.716466063927551 2.0698447760284386 2.742865958248627
C 2.1850301752660055 4.539950583673045 2.6002248968440704
C 6.66396531303724 3.1330820735867277 1.9153444417965868
C 6.40833003336618 6.774751882783476 2.8952391372172728
C 4.481295633901355 5.593397723008447 3.851642432166173
C 5.383859826361872 4.518109593705787 3.3893372810803095
C 7.955503942778075 5.054708064414372 2.555101720321003
C 6.1753402625499785 1.9241406779551717 2.438170799759991
C 1.3843971706951117 5.033208313262307 3.7039002692652336
C 2.4428309780823887 2.155071157352815 3.7189746561420147
C 3.714044302059843 1.3744110592377503 3.9636442984526408
C 7.765851150490993 3.63323451183124 2.7814820856504734
C 2.6180240629964007 7.131366165288889 3.681717131533212
C 3.27318969330736 3.432249774603719 3.8162413057814266
C 4.589651639927271 7.722847229783664 4.922260546378655
C 4.7728740211755465 3.222807958976651 3.7386715182387658
C 6.935355502399626 1.6645591190046625 3.7303052321670522
C 6.549304227538853 4.925522401310776 4.486402668282055
C 7.287191014992749 5.823940931446092 3.5607808508226215
C 1.4691424589676731 6.41385474580991 4.066691050733288
C 4.364572784153172 5.242336690002338 5.276945529511644
C 6.361133129115498 1.0331203107204712 4.795800830055945
C 5.452267130694696 3.0760784227433535 5.046950069697743
C 4.024955583146632 1.4524063012460886 5.34587881020889
C 3.1934072920425924 7.781001551940378 4.869219084125798
C 2.2678412709220948 3.11907415415379 4.920576767243193
C 1.3007539309026774 6.554419991506542 5.491784599133856
C 6.910492133993939 3.6338463238264755 5.141739265903769
C 7.683290595535401 2.900922267443171 4.0177119387175315
C 1.4098546102092504 4.3053586208627665 4.9824485427829455
C 5.471950242431537 1.752464551167701 5.745887697053254
C 5.184871226885754 7.407621415267723 6.297220257806302
C 6.419684183882654 6.630202249655385 6.344314449308937
C 4.352725566948326 3.825443776936162 5.725531824201774
C 5.8162180361292535 5.599591276222202 5.560614574791001
C 2.3345247393227893 7.404473895160905 5.999835616252119
C 1.4904679798245701 5.250762658513771 6.07924545140415
C 3.3056459816517947 2.6596084239448388 5.958840420662269
C 5.575904673395652 2.803692834080134 7.103117198599619
C 6.063672734293329 5.26532798927335 7.116612337411663
C 6.548907400889751 3.822400035220427 6.865485479011289
C 2.898477444700767 6.820795019360298 7.1380733600917
C 4.301121400341688 6.895046415955271 7.3262178279077865
C 3.6210582843343566 4.666663698357648 7.686787454510035
C 4.075766621460644 3.3551045129216974 7.1234387555443455
C 4.758429557803066 5.58821860072052 7.745823644374088
C 2.4657382816335742 5.406226372356366 7.226755212653958
