55
Energy = -436.86879241 eV
C 3.386708626104029 2.3983459137991803 0.7267178368244033
C 6.159896657218857 3.190660514180081 1.9845341613064302
C 4.092981420046702 4.707667970565272 1.6329041682849392
C 6.58550557437695 5.523100883381029 2.27806973614703
C 5.636052197216986 4.541632989456197 1.6348603345869153
C 4.2755345277355925 1.8923904507579379 1.4945234407412635
C 2.302576152352501 3.3679133464981117 2.769475781158107
C 3.2078600445373024 3.5701412630311453 1.6105286390931481
C 5.363929689948167 2.0340577337395906 2.2964378959530345
C 4.139657323715145 8.33933361209618 2.442952748739758
C 7.257709158549776 3.260511004019204 2.947236382002913
C 3.579771542394895 5.819364572262458 2.628786286916501
C 7.505482834422325 4.744994725568936 3.163539523969441
C 2.0829837274426173 2.3069565352645878 3.7887530828134
C 3.247924303275628 7.3460490357456 2.7758292980557937
C 1.7273610055477664 4.405262761166173 3.6169448633401915
C 2.401408211328375 5.633153263296304 3.632708221387856
C 6.038627625911085 6.5973022816788855 3.2711105106690286
C 4.770669990291809 5.759929707058958 3.5397158651770524
C 5.347345154662625 8.008071096074138 3.409333974061222
C 5.197455162417046 9.106344637780493 2.364575428562511
C 5.314559786521754 1.9257804746680844 3.8241500540355875
C 6.463855973199146 4.041615245083149 4.086156842954201
C 6.760044272917766 2.5581121094574257 4.270536259505198
C 7.410307625615074 5.171530139118781 4.705777022100564
C 5.127020768617534 4.3402289847747095 4.021038602943843
C 1.3881119122245316 3.374672129385587 4.645806404444017
C 0.6864778573962724 5.690093914343601 7.167433172110717
C 4.411928664045284 3.135201184900213 4.290873535512093
C 4.917317928115391 7.9184502376063515 4.84671259358458
C 2.706096947061804 7.070125346527168 4.101491642095813
C 2.8640120782391794 1.2325357852173484 4.424248027567322
C 4.389662367906202 1.0562128778292013 4.590553038904739
C 7.241085219255043 2.785301189183605 5.6745826910970205
C 3.6318198455100794 3.438518918480154 5.365576802909844
C 4.616466888900265 5.358977136493853 4.862568550133184
C 3.5675478636507534 7.479237606193519 5.240521954906466
C 6.676587634097361 6.435808065970085 4.664305077069484
C 7.472580032400807 4.296701460433942 5.890578542551996
C 5.851925006204263 7.1335131062594535 5.605551501092965
C 6.269113256211026 2.821831557488604 6.740223624924574
C 1.591654896688615 4.856860150811853 6.7130194475948155
C 6.467834031122657 4.28604124078657 6.959404485201292
C 1.5845067221932483 3.543289365151111 6.019774511800187
C 3.5973362702428533 4.806778108289608 5.561682842329594
C 4.411049584180932 1.089257207460834 6.0915237375244
C 3.0308862287082383 1.4019514754252411 5.871470921815148
C 2.791236399196409 2.711443012184267 6.442670059933631
C 3.7580637958274776 6.757254840161855 6.5489720789720645
C 5.424907790817808 5.170574134787827 7.3601479131600644
C 3.0984443296370565 5.381784171643889 6.81472550822036
C 3.9503516815096282 3.083140193179024 7.383631814008776
C 5.009945957523885 2.1583284942896284 6.929335280869452
C 5.152697262671613 6.514609360787492 6.7815281220213635
C 4.136678815886034 4.5006131019982085 7.573445780106636
