6
Energy = -43.38764221 eV
C 4.301372122592789 3.380358667061931 4.568531236129563
C 3.6803527878411937 5.102425033680584 4.12185558859836
C 5.46277574185753 4.860811072499671 4.663730593069964
C 4.725089033615474 5.90655227815101 4.296827096912763
C 3.139961921677295 3.888839530176682 4.167234078531718
C 5.577230600666082 3.558483316473528 4.904384667781322
