6
Energy = -43.03605806 eV
C 6.485884830710625 5.555632870213552 4.007215045053624
C 1.3136679765152794 1.8099264829227208 3.1256143328922326
C 4.270844182934143 4.199341064746326 3.84742788395897
C 2.232448216410891 2.6835912074475328 3.456198863633076
C 3.2315857182334558 3.473858814269482 3.6837857166511947
C 5.358985387893184 4.886964061340843 3.9945437751492885
