6
Energy = -41.35221956 eV
C 3.3128759561206618 1.5469451182496912 3.858701394124399
C 3.824434373726952 5.539911604350388 3.2718249660968723
C 3.6507229686237306 2.9002814493365454 3.687720183453618
C 2.4787574068445526 5.305852997052472 3.317316776724329
C 4.6381712941060655 1.8853517035211727 3.811679646730638
C 3.3560405231016084 4.216728807768905 3.494743788256572
