7
Energy = -46.45329402 eV
C 3.179737990519461 4.405820641347104 5.909512469703817
C 5.595939081992845 4.036616349014509 4.481843475195799
C 4.454489304033433 4.816436060220388 5.100890734831465
C 3.2884712867370345 3.7931851884812104 4.770911247116221
C 6.118888764834619 5.380649516882708 4.088518164586011
C 4.248695769553617 3.8278596439652377 3.6991666696071324
C 4.67549283034676 5.342139368392424 3.6991406713708592
