7
Energy = -51.36353578 eV
C 5.41658375409215 3.3882825137224035 5.718812253911876
C 5.688528569921171 3.9185482868077313 4.464175882743343
C 3.7686138906527007 5.456145594144349 5.75247975134322
C 4.519350217292242 4.373105299693814 5.93056506393279
C 5.37971500175415 4.8683347164225745 3.66390358134479
C 4.683632876640173 6.009708623097193 3.2797312001848273
C 4.1418298324674385 5.838878748723303 4.521565794172535
