8
Energy = -59.36927141 eV
C 3.5592296907257674 2.803911766145652 5.2141074827168135
C 3.296809494066211 3.187412649033471 6.42362241135726
C 2.9460382253726127 3.836293443511706 7.498530456356417
C 3.7378369534492784 2.619339299906246 3.963926609292485
C 2.7391137731828863 4.5199865188218755 7.498530456356418
C 3.7462461735213424 2.76847777353057 2.6857829727185436
C 3.230662081989506 3.7756296509907745 0.38478345318748497
C 3.5487095881495914 3.198594983639382 1.4984811329692904
