8
Energy = -54.01730193 eV
C 2.818953953924173 2.960589293433651 5.720751719439466
C 4.753969506195503 4.438774217594047 4.532879883277669
C 3.710839333661534 3.542706222333059 4.81535204104609
C 5.229406948924229 5.76292313127649 4.927452099488341
C 2.810892717694442 2.56905935752242 4.410050620545376
C 4.456937766893789 5.940894895409113 3.568534461296252
C 5.560089537906994 4.865736628406529 3.3700876996794316
C 6.443728577290734 5.787590090284419 4.102215355829664
