9
Energy = -62.32627679 eV
C 5.552049978373707 6.226861234112506 5.107076371780872
C 6.050092661962642 5.00241237609008 4.332190902610338
C 5.99625802011645 5.175922529073726 5.868888659852358
C 4.478047086342726 5.45134460093827 5.8756260352978975
C 2.983074996755037 2.9696335873913573 3.4358476628303483
C 4.083787477861868 3.6350433213335234 2.9976157296429187
C 3.8460005989652144 4.534410399509631 5.006016802545176
C 4.946585764538 4.221224317299256 3.927271522835657
C 2.772042573058083 4.006125942609547 4.284278302282752
