9
Energy = -61.91554026 eV
C 5.612439344521334 5.601993616406799 4.904719992541751
C 5.056878190645835 5.638322440275878 3.582781620864873
C 5.611978213784445 4.212761909140645 5.448746769797037
C 4.181318920209937 5.953441936264753 4.674644773214681
C 5.17337417477853 3.402902219915631 4.275279171643662
C 4.779948060390929 4.247603664873619 3.1852540575760555
C 4.314359122314554 4.282378852080806 6.129087077823486
C 3.391496764245115 4.757192891226732 5.091918146032951
C 3.743671390519569 3.7531738370592915 4.044627639616628
