9
Energy = -62.40421983 eV
C 7.447711011299581 5.38198743647314 5.897031914485585
C 6.617017947604171 5.328310796596883 4.7198458346348975
C 6.152994383816014 4.771019314019567 6.0635961801276
C 5.327072828002646 4.7469360236332205 4.900708917504023
C 4.148299675786189 4.4062484366601105 4.353585422488161
C 3.374952011012299 4.44234004669677 3.09383517353912
C 2.834303071750935 3.801627891989202 4.648874836531128
C 2.645670203310351 3.16165143783136 3.3158410364465394
C 2.614540656755481 5.243874103837116 4.160263309275506
