11
Energy = -10.49991458 eV
Ca 10.460253995740954 7.901359539356264 8.569129034920586
Ca 8.930669480850952 9.034947111362305 5.380446417731616
Ca 10.85796493965981 11.44261407377877 8.154672507278399
Ca 8.642328591909319 5.582989114275886 6.714166128435311
Ca 9.311348693463614 4.804197995515506 10.293761426098106
Ca 9.24281869029924 9.496609774746824 11.50599746250244
Ca 6.697375413282936 7.25165100453823 9.7966983294047
Ca 6.595592457789502 5.9917142477839125 3.7978715851945144
Ca 5.350826822679864 4.51425728128895 7.531011925871002
Ca 5.422803068530637 8.129894667752723 6.5061500122080105
Ca 7.33190693611801 10.571787807398334 8.455531908786435
