11
Energy = -10.59835994 eV
Ca 12.421223754931265 9.950828844303434 9.65782904957558
Ca 11.384134013015933 7.80462314171303 6.837210452628248
Ca 9.16991406226976 10.633253311821353 7.957695768202983
Ca 9.539872580865179 7.421792669793785 10.071817328518934
Ca 8.83167896444937 5.1755229306414945 7.104162816411727
Ca 8.105396081352726 8.254120664710136 5.050789464725416
Ca 6.075766329096992 4.936374311012443 9.603500100839952
Ca 5.4158122090212215 5.765366299802387 5.8792599763502045
Ca 6.563850532168563 8.210067189611479 8.347364854358966
Ca 4.505648876141773 9.421062411570828 5.657879950891036
Ca 3.0579809332462213 7.100639871211613 8.324553260007368
