15
Energy = -16.23087329 eV
Ca 6.112656073139575 12.099820557558418 8.200817568012225
Ca 7.250560026448118 9.444734772153634 11.08601210390869
Ca 4.239695387181471 6.383172421281968 6.191492260494211
Ca 5.005968167076018 6.190583138932147 10.022743670074988
Ca 8.648195349605324 10.848291825803827 5.757087064818365
Ca 12.982581101433597 9.671599068179324 8.469812944190073
Ca 9.695868098525441 11.501990317281651 9.204828013559212
Ca 9.877965448845389 7.9791378094616725 7.930241938713182
Ca 8.660192046053682 6.0249549620674685 10.903394393471306
Ca 6.5250425599424124 8.553691231718766 7.782819366625226
Ca 7.586203072713453 7.379276956869609 4.6139593742135965
Ca 7.56456208281499 4.983976173475265 7.571218498696166
Ca 10.974211812642816 8.874368121542107 11.519090353305202
Ca 4.927593140378125 10.10746700110196 5.045555621534286
Ca 12.262344496782372 5.918696711220408 9.618737040779232
