19
Energy = -22.07322912 eV
Ca 8.459237145630462 4.774406889105783 5.423313347435928
Ca 8.106283908521538 7.956789629548468 3.5892735876914763
Ca 5.188380202525416 6.716263143252189 5.812410723104056
Ca 5.08990349180638 3.1427247762341217 6.599171020831993
Ca 11.05780368290337 7.805081279198514 6.168751603626382
Ca 5.624754258510834 10.357398091915568 4.812764431729375
Ca 7.343508897977681 4.952019310654187 8.858502136034213
Ca 6.519350600890084 7.574793460404643 11.257285853803713
Ca 9.763985870459633 5.613220146629211 11.57337169873516
Ca 12.309208095977452 7.70654555742433 9.719333295936217
Ca 9.92447917388309 9.224637869729438 12.119079014926431
Ca 7.214078684722663 11.146170662239694 10.688716077488177
Ca 11.024152820269594 4.572812574474385 8.208395235349759
Ca 4.45963070722711 9.542175549680678 8.41815053198103
Ca 3.762494642090795 5.751026976442976 9.12615759612529
Ca 7.026171629696613 12.499513628001079 7.370250922426312
Ca 7.84171548498467 8.676716953985222 7.535644950023613
Ca 10.489836902051572 10.868732665899708 8.658967623901095
Ca 9.403414128997039 11.110715663140416 4.920801471510054
