14
Energy = -15.1435964 eV
Ca 3.476837736403918 11.078436552638756 8.389247249457178
Ca 6.874720947764739 7.175972794925739 4.449750605989335
Ca 4.840566468147934 8.074211333895024 10.17265473923353
Ca 9.497009617899124 4.573466735547599 5.441397008927697
Ca 6.7413279060975135 9.671847274910672 7.418661704047327
Ca 3.7420839626485334 7.663581253066685 6.589478623236885
Ca 9.853458680595995 8.000445531229854 6.798978894929517
Ca 10.348095273528662 5.114218500094076 9.074472005919919
Ca 12.31169293070962 8.295949690423921 9.556916971955822
Ca 12.93466654894799 6.000674205231998 6.507666920426196
Ca 6.864258484092171 5.890296364614682 7.857936563130429
Ca 9.95206177867338 11.2385768678509 8.931029419746263
Ca 6.565648830012944 11.385243028422302 10.70016179268264
Ca 8.601712292693495 8.184816993770792 10.391527985803517
