15
Energy = -16.37506939 eV
Ca 5.692849687884017 10.195265348333352 5.747575985280576
Ca 7.839977725239407 12.301772876219397 8.18858578778619
Ca 9.33136401148972 10.066071672216912 5.778355137443282
Ca 11.994099975297233 10.514414244009009 8.405609242088337
Ca 7.520648205946816 7.194997217767529 3.9683119670663736
Ca 5.1583954129451035 9.17247269178706 9.385245488340072
Ca 4.119086884179209 6.6861156103551895 6.032050189124439
Ca 7.207775534541365 7.29191276753408 7.383314314150222
Ca 7.10074395692753 4.056391534156844 6.179566974119646
Ca 8.985443148172616 9.187067853082086 9.547372943080687
Ca 5.205385996003564 5.1739429094461 9.403579282796406
Ca 10.753246843410587 6.932364584993821 6.9632239881429685
Ca 7.402298214718528 6.994903192116252 11.8611264907635
Ca 11.685933485913688 7.251356968089849 10.74957673181084
Ca 8.994525347315838 4.864129323906775 9.464926887364603
