13
Energy = -13.97617943 eV
Ca 12.986189449190679 9.632361661100658 9.586493170605184
Ca 12.974079916458134 7.247325178233882 6.552460059095446
Ca 10.556007882754267 10.01664221854017 6.840119891923166
Ca 9.355522158207702 10.516047157966039 10.416279631912444
Ca 10.302171531846508 7.108383663752357 9.128783854251036
Ca 9.338120724831656 6.663115242847779 5.516442369052269
Ca 7.256764010040681 8.65681349657387 7.922082939049446
Ca 7.102300604208075 5.059754026401598 8.301950045947274
Ca 7.112128705100647 7.442520340668927 11.327295583933525
Ca 5.383388923044722 10.660851916906728 10.312899973632481
Ca 5.3689101299710265 6.807198730885229 5.4176957071736345
Ca 4.2879761416750934 10.298535986968222 6.636113297281818
Ca 4.107334019350535 7.30988983196339 8.9907863315475
