16
Energy = -18.09744184 eV
Ca 10.194454249254548 11.387447089070655 5.793376019983434
Ca 10.062497263652357 9.602988317649602 9.14856039433493
Ca 7.045803387108854 10.320904437111555 11.469785589066971
Ca 6.826371967577533 10.962694195410995 7.7763779158977275
Ca 12.202213970680468 8.178210531015859 6.328700042856267
Ca 10.567991777989636 8.776239563854999 2.9766417537678396
Ca 8.592425730153645 8.129067999083972 5.988686096995254
Ca 3.830810412518844 9.243888200262536 9.655109090421089
Ca 10.404562747728987 5.291483516752214 4.625280900629608
Ca 6.905865383211534 7.482193643969832 9.0811172959665
Ca 4.763222654507641 7.988203331521643 6.185087158358291
Ca 10.137114899361535 5.750864493756703 8.39986343684601
Ca 3.8922453568039215 5.442211613007743 8.854980873604568
Ca 5.3918297920258835 6.8496407378796045 12.199830791209054
Ca 7.110010276632123 3.9961142248917865 10.203871248920471
Ca 6.923411269974068 4.760310359999293 6.505285755754377
