11
Energy = -11.0153525 eV
Ca 2.809669986424849 3.070300655170853 7.97839831166504
Ca 5.501460071948964 5.48983454835625 6.438323665023057
Ca 8.952651000014498 4.55919192818178 5.803988552756788
Ca 5.989207052411177 1.9011950776251678 6.185311880700284
Ca 7.468137335375211 7.263429747335719 3.8279718976622745
Ca 4.950446160552592 9.026039695623949 5.821633290853678
Ca 8.36737628779786 8.055990052506607 7.26506515852779
Ca 6.497999742994527 3.872064463504209 2.8974318892961937
Ca 1.9875135426744583 6.366935626714519 6.203565794017116
Ca 3.1943415003367046 3.429727713709914 4.377175107256719
Ca 3.9885064204762504 6.6725992384199735 2.9084439071055335
