15
Energy = -16.51949942 eV
Ca 6.922864874896646 4.825997405713891 7.083814054906578
Ca 8.996090849201275 8.906643469975634 2.7994214848551233
Ca 3.9812321646119093 6.845532405742981 6.197976858369987
Ca 7.497547910091767 4.865644568750147 10.867465051367965
Ca 11.029824407057053 9.410856420577737 5.955672990837157
Ca 8.278268233431183 11.869694471854041 5.186721865868361
Ca 8.553854740123828 8.31319320840543 11.970512448422255
Ca 4.968523324803698 6.959369151927161 12.618441888550896
Ca 3.9640433764100673 4.884067682699469 9.506153116509989
Ca 6.478596554701095 5.892584771311105 3.4718437857766964
Ca 9.75114377785867 6.937730806528398 8.63682951430754
Ca 6.098572894362141 7.877602769972706 9.24668999135784
Ca 9.973421055124167 5.8788822119478255 4.945544948989084
Ca 7.503586715046127 8.363368508860185 5.992181275074862
Ca 8.857565116198503 10.569290732878017 8.784222258974607
