13
Energy = -13.81049562 eV
Ca 11.506189887843384 8.786197720943118 7.034148726887099
Ca 10.161293436959673 5.048216150824302 7.405885727176085
Ca 10.206205581083399 7.37944402112955 10.452279583501966
Ca 9.16834499102674 7.206174036561174 4.198992037400378
Ca 9.103208573385029 10.705723057944322 9.48307453950094
Ca 8.357842281574841 10.767435423114916 5.711887709929664
Ca 8.16592550892473 7.838709451540801 7.494742086204677
Ca 7.164856588374533 8.806771384887895 12.072894716195252
Ca 6.578809652697777 4.927981897786646 6.052827767853456
Ca 5.4957490833064515 8.276161514293936 5.114056700791535
Ca 6.710184968643223 5.8359341725623395 9.83341883942831
Ca 5.501762312872795 9.492249785143239 8.796031845441206
Ca 3.6330210719931437 6.417743113149297 7.785990008155635
