18
Energy = -20.55009337 eV
Ca 9.455901227133475 11.213945346245504 3.3833298671042593
Ca 10.955353028326078 9.027304623812569 6.072776427232385
Ca 5.938067923811893 11.902470228477405 4.039922986843437
Ca 8.32291521665914 11.417035275075058 6.984255902281519
Ca 7.295333956771018 8.508090272190122 4.906026749696949
Ca 9.181338739975994 5.774455989658792 6.691110211330358
Ca 10.36784401434999 9.437426736452073 9.82628281392625
Ca 12.486340594493528 6.539786263425041 8.39934323174487
Ca 7.315752129042577 8.084111282976945 8.7699631190394
Ca 7.473498875940188 8.209231688708558 12.4174571206621
Ca 4.736348601022328 10.087977426899032 7.144507936063888
Ca 11.105949370081941 3.0104760316454677 8.239970681292915
Ca 6.693914069480947 11.242913142770831 10.378775437432735
Ca 7.32823088129732 3.1043982583033904 8.40669135830337
Ca 9.466212324538612 5.597201089017211 10.427064145759514
Ca 4.094949955484137 8.425858868539006 10.480351999901938
Ca 4.979664696651295 6.018145013622816 7.251260898273203
Ca 5.726419530274534 5.201632539335189 10.924376692912393
