13
Energy = -14.09604459 eV
Ca 5.906963692312924 5.906706590180203 5.906906140516118
Ca 7.819136954662292 8.993431824034458 5.82784095688552
Ca 7.819110618664142 2.820138175224292 5.827807438342362
Ca 3.994489361273228 8.993346981067099 5.985823855117428
Ca 3.9944666165475193 2.8202828727328306 5.985791533665211
Ca 8.896083137393976 5.906833481807825 7.764350317967712
Ca 9.035732027409212 5.9068107370821155 3.836106010659853
Ca 2.777908771573897 5.906804751627793 7.977308965973345
Ca 2.917521714519175 5.906782006902341 4.049341746386147
Ca 5.790226257728745 7.835906895224223 9.054344445426274
Ca 6.023253888314154 7.835929966159958 2.7591527886776177
Ca 5.790191542094772 3.9776906371233594 9.054406694149334
Ca 6.0232215668616815 3.9776412301894792 2.759125255588655
