10
Energy = -9.54470902 eV
Ca 8.415723777892065 6.790292863525828 7.804253176309279
Ca 7.336662897124914 8.953547695660664 4.964981122051498
Ca 6.745885491926527 5.32599651676233 4.233900124174423
Ca 5.142509685505796 8.507310540529824 8.170130717127638
Ca 5.434174202754725 4.804651504130827 7.675981417135725
Ca 2.091032757090028 6.129792939487324 7.620964619990389
Ca 3.932903640090967 7.4754565042956935 4.796997506542508
Ca 3.3772547989597137 3.785478595547808 4.804239581206117
Ca 10.182416939507194 6.2926655430281135 4.672015682303918
Ca 8.67725489706224 3.270626384945623 6.592355141072669
