15
Energy = -15.1619019 eV
Ca 5.4623738640919 5.462447254360972 5.4624333823666955
Ca 9.112172421461393 5.089741363630314 5.475594570996687
Ca 1.812192204268009 5.83481428079652 5.448875713282472
Ca 7.0317709389495535 8.778642341340559 5.4444199440181436
Ca 3.378375963183559 9.156585789782651 5.427282648204264
Ca 7.546343343801405 1.7679164466278012 5.49748951892749
Ca 3.893083428159437 2.146063752462825 5.480025871199266
Ca 4.410887761027421 7.331359245846514 8.440399548390204
Ca 8.064488954919282 6.957498335639788 8.459536005796288
Ca 6.495822181793037 3.6351327269325076 8.482560739925747
Ca 2.840472758753833 4.011095798256404 8.463941352448341
Ca 4.428948213742279 7.289362116156248 2.442032240593155
Ca 8.084240289666628 6.913700431220575 2.4606248988694492
Ca 6.513714664433547 3.593491695808286 2.48457474462106
Ca 2.8599404380872 3.966976555191743 2.4650358928419513
