12
Energy = -11.60592656 eV
Ca 5.357169331275547 6.556300376518021 8.482103796383269
Ca 8.018504290957216 5.611607639463692 6.241116207862227
Ca 4.689229036298191 6.624015341333788 4.765502577320314
Ca 9.232253568395805 7.686026244977629 3.6716356718824725
Ca 10.010456536130473 8.969239251510754 7.1338771935855485
Ca 7.352909813934853 9.916872322617516 9.378657501107456
Ca 6.1261034936485474 7.8435870811494555 11.9433709905461
Ca 10.686079640090767 8.904857360037424 10.848381711256934
Ca 6.6429657545105805 9.328438895017564 5.890698216261852
Ca 3.746929122531375 9.677367765995024 8.2958740332942
Ca 11.622872410630977 5.849475376266872 7.328463083984657
Ca 8.724477159992535 6.2040019531925426 9.729356536897404
