11
Energy = -11.2479309 eV
Ca 10.165866740447827 5.332360912936603 6.710272590950556
Ca 8.699061977357283 5.211843689511026 10.380299149530485
Ca 8.648339880467926 8.197428976312349 8.320088021821306
Ca 11.513786645397216 8.79438830850213 6.082228986650184
Ca 6.371556417009038 5.572962461695157 7.335426197966537
Ca 8.137181302113664 7.798183032365834 4.724409914857503
Ca 9.190567805540303 8.60427868518537 11.933805528139557
Ca 5.81739790881492 7.609645462893281 10.556601035919668
Ca 8.614399852193012 11.187377949738355 6.266285220267276
Ca 7.1563762041671115 11.069756037505885 9.93993394590377
Ca 5.413046081105412 9.195064125183686 7.064350502695869
