12
Energy = -11.89645299 eV
Ca 10.297837103010142 7.997210227870374 7.7427184803531
Ca 10.373113759037652 9.527433883245953 4.502826492475175
Ca 11.366198246880632 10.74640578561113 9.940677306695965
Ca 8.518846292002806 6.024637578144787 5.415166954612883
Ca 9.587029538281083 7.404544637153962 11.253617637877872
Ca 8.118974418561915 4.870792420282954 8.967942281551123
Ca 7.817447649030608 10.419909705713158 11.089490756455143
Ca 8.60709446903049 11.273717265134477 7.424668976498021
Ca 6.736275793957136 8.999841778243894 5.101030431584448
Ca 5.930814607215465 6.6695958763894865 11.650315346678006
Ca 5.04049581941198 5.599992246996564 6.813234111341851
Ca 6.7611796254994685 8.208028553805232 8.569726854568767
