16
Energy = -17.96816864 eV
Ca 7.283235655138863 10.490337742386235 7.867656226334946
Ca 4.622555133028148 7.88918116231413 6.237682497705232
Ca 4.552090357953148 4.927593066083713 9.180610600521868
Ca 8.552093197166787 9.248083489212384 11.11124333872199
Ca 9.871105575671558 8.636673020456685 5.893910328317494
Ca 6.005214932253638 4.084264132886709 5.841736621116681
Ca 7.35419047673428 6.846201449462869 3.8643375709818892
Ca 9.74414004048345 4.792273349790524 5.848946958192897
Ca 10.64981958764688 6.655792726395145 9.357345093756981
Ca 7.424829964189738 6.758639677658163 8.002167960997637
Ca 6.894744662711759 10.45623385313094 4.173723545227023
Ca 11.052672168362575 10.59950351046836 8.817295436954982
Ca 9.722606155920655 12.346632617865065 5.768822371934272
Ca 8.141366079142147 3.3465119690719956 8.91753275774965
Ca 7.361555841307166 5.829483502313563 11.603415855760941
Ca 5.0110785258561865 8.497487789465197 10.246283503992903
