14
Energy = -14.67665184 eV
Ca 12.007604021342706 8.769526262994502 6.473348365728545
Ca 8.280985664389767 7.922444587038259 7.7421979152898315
Ca 11.435779717712096 5.518058557768143 8.420564297568282
Ca 9.055840778281196 10.533154442128778 4.772819891254122
Ca 11.531933142645645 8.78423886947786 10.117496565456522
Ca 5.5500736875527386 9.010685487880648 5.009287530703871
Ca 10.195332231741553 11.51964155485178 8.11897038720714
Ca 4.962589710317775 5.76807924499448 6.975873577006119
Ca 9.277145288831097 6.195574818812258 11.320904292300423
Ca 7.911821292535085 4.027127806902341 8.689312776591972
Ca 4.404931840004757 9.0722577358574 8.496320452075773
Ca 5.726827201280981 6.351553964686925 10.526765345704746
Ca 7.685816416209964 9.81685622866258 10.684002506536892
Ca 6.643512786879492 11.681048296908743 7.303433963863387
