17
Energy = -19.10028874 eV
Ca 3.8001037964689175 7.086281096520698 6.450748085719951
Ca 6.64387920809644 4.615675377769126 6.72686226751895
Ca 7.545831192163016 7.974889986540107 5.202422540230971
Ca 4.5057731692043435 5.31760508489908 9.863220233788839
Ca 3.5130031742341847 9.242599621101514 9.691816653643553
Ca 5.129939990815531 10.618500360765765 6.470157735972096
Ca 8.592493044098555 5.274496943532045 9.828174688600907
Ca 10.298115932438149 5.720745975160868 6.351962496679419
Ca 6.507211209742178 7.85866342632928 8.591363784471557
Ca 8.880057148391424 11.346963392725142 6.1112447828009335
Ca 9.79663218529444 8.676797124164192 8.336455396047098
Ca 7.093714366116234 11.209444105411722 9.574609664538432
Ca 12.21342141893216 6.267527728620704 9.506314211002353
Ca 12.469556105208499 9.270602045608447 6.4593649633693335
Ca 9.459269976349315 8.732431321672689 11.677410116009066
Ca 10.758181774399766 12.028186837430768 9.260865122959059
Ca 13.10484274139746 9.596275360021176 10.347577600398923
