18
Energy = -20.49710867 eV
Ca 10.870899553457948 9.592933479062143 6.269884479116201
Ca 9.355043685257861 8.221039396490236 3.1393878349691033
Ca 11.695487526739345 9.749641613133823 10.015762432723264
Ca 10.379293270892319 5.8703640172537375 6.209395802000419
Ca 7.70799840116382 11.27329743138067 4.849576185391503
Ca 8.86752973045823 11.685017045270444 8.35575731076843
Ca 7.251643957030909 5.208368186715901 3.8076271368140904
Ca 5.531371181139508 8.59126829066465 3.191147413545627
Ca 7.402654464149226 7.937193562705195 6.1693385192021815
Ca 4.216367969782302 6.279478829616365 5.952025229438377
Ca 7.186893614944548 4.318132594486854 7.437156361829071
Ca 8.648111684408553 7.807487978181582 9.450624526569545
Ca 8.421811086559174 10.729761736074884 11.805213952141788
Ca 10.146090100844438 7.486638797388179 12.757387630005361
Ca 5.607332092426314 9.814036785466968 8.927038000715491
Ca 8.10691727582937 4.6112620917898495 11.147793731708338
Ca 4.983074483311898 6.124236842738311 9.586266458185596
Ca 6.3811434903678315 7.806192511905964 12.455064214938185
