19
Energy = -22.12849091 eV
Ca 10.385511496496196 4.152665729918486 7.6049248727312
Ca 6.972513760631626 5.7329531897988435 7.26920122749576
Ca 8.81894856653816 4.89526933450974 4.166816358197734
Ca 11.867068323483792 6.647825253539856 5.617500948506501
Ca 5.9310553177161855 7.621475454244625 10.315982627056924
Ca 8.837305305141554 5.3390237446159166 10.657412073430644
Ca 3.3886956746245165 7.0319409905445145 7.562173054793896
Ca 5.462693114192687 6.9664478140886885 4.186022276895782
Ca 12.180355217523125 7.208810581982605 9.54324505376818
Ca 11.109458091320022 11.16319520730622 9.963264328602676
Ca 7.231137759903497 11.255835233963738 10.119705686872926
Ca 8.993982606423128 11.944619132936127 6.871845721386995
Ca 12.15724136177254 10.120365275303252 6.584993536733922
Ca 5.534559776706041 9.85512236901033 13.171136046568224
Ca 9.137868986161239 8.694048406119936 12.112423143381726
Ca 3.5447730812630622 10.326323218952023 9.83488065899261
Ca 5.947076012299037 9.551255244949813 6.972517244981635
Ca 9.228719151295753 8.465584586511959 8.34643463864488
Ca 8.87733501497502 8.63353785017128 4.705819119425302
