19
Energy = -22.39482906 eV
Ca 6.604338941117402 9.563326859906722 4.001450853868978
Ca 8.30665475497662 6.36834410588806 3.9250678895441133
Ca 10.361485657595772 9.165959152101685 5.546320977696082
Ca 3.9847950803812315 6.937271540979586 5.696800635956948
Ca 4.531380434778256 10.747776364648217 6.882041772432273
Ca 7.994716872139402 11.818420056848405 6.5114186417914715
Ca 6.794918976024998 4.031700355349206 6.2385167058766955
Ca 10.497068843134782 5.600972528731336 6.976738213957079
Ca 6.863432641822981 7.685783261868571 7.30450529800847
Ca 9.586464416710353 8.43463647381385 8.966617615430817
Ca 11.14189133244643 6.077680612832882 11.04071023279791
Ca 12.954117173464459 8.409067948608838 8.590715664056749
Ca 3.969514746703703 8.555141386353325 9.69170570091919
Ca 4.722550369721261 5.064814340527721 9.182277159168148
Ca 7.099363770090226 10.83894569017348 9.950290919235151
Ca 10.941719284395832 11.668698976399961 8.755249232936693
Ca 8.256459939124968 4.274773064329746 9.57359053946578
Ca 10.423850118929845 9.7136769018227 12.004183774388071
Ca 7.211869229241018 7.289602961614558 11.408390755268229
