17
Energy = -18.8167844 eV
Ca 14.678607211181012 5.16379164611597 5.159035116145899
Ca 10.884382247186435 4.583138720457398 4.550816964848157
Ca 12.147535439951143 7.817337929513774 5.495795237000645
Ca 12.49098147625259 4.780891644344158 8.041616715066835
Ca 10.025943026077254 6.651122698860385 11.188722684424121
Ca 10.480190981086018 10.509947561922955 11.17198798643677
Ca 7.216623316020502 9.205930140291178 12.397200206804465
Ca 8.07137413443375 8.82397152567219 8.920400856786708
Ca 12.399689228458467 8.327206366173817 8.952581101687857
Ca 10.25139707109309 10.839203146827005 7.099507732843115
Ca 9.098248127390436 5.775202801933458 7.551627159460779
Ca 6.269861980563665 6.12553243641 10.359862940182303
Ca 7.387774075858767 12.165310036300996 9.78845518551146
Ca 8.555981837562477 8.13155007926322 4.796452809647781
Ca 4.588939555736776 9.51770005623667 9.583853063419827
Ca 5.56567024067002 7.137894858678028 6.732100930511661
Ca 6.347611419456951 10.76466812452564 6.350189700302884
