12
Energy = -12.07041978 eV
Ca 10.44561492658798 11.858758815405084 6.702393468711007
Ca 7.193274942363023 12.294589620215362 8.315514121292859
Ca 9.329703338428807 9.292621437796077 9.344933778097982
Ca 11.256087255064651 8.330139367844763 5.918846284989589
Ca 7.721126471105738 9.322105781498733 6.060352462118419
Ca 5.440037252428213 9.122283623764211 9.28152576142701
Ca 7.340600155147801 6.29179221318581 10.750071854314955
Ca 9.581041991212704 5.838469716809457 7.975792916034558
Ca 3.9022276989066316 5.453311123707292 9.90720446024647
Ca 5.875623498414657 6.3504688891022445 6.989928763457713
Ca 8.503623717651795 5.933519489317513 4.4690800979691385
Ca 6.866675065433267 3.2795608366643783 8.465488252279963
