16
Energy = -17.9485782 eV
Ca 6.440011173666747 10.481832806168102 13.045007882552593
Ca 10.072243568071109 9.695359539130093 13.4029703668793
Ca 5.436589909756192 9.599986765012002 9.429919883023265
Ca 7.167632959002787 11.5752261056163 6.704627806170326
Ca 8.603154614578958 5.771327046822847 4.603773267653653
Ca 7.900516346709342 7.4992608631747135 11.329238940371411
Ca 9.06081325969888 9.457548396924192 4.17637513504052
Ca 5.692733408207444 7.820921574858118 5.6151024699906245
Ca 8.456210871321074 8.403968306914617 7.659241537587361
Ca 6.126018851868672 3.6415255641030364 6.052754013646677
Ca 11.570544512424808 7.394480008978539 6.190842864694554
Ca 5.642954098695737 5.885489965836861 8.821017650028013
Ca 9.168537740412434 4.99761203354953 8.241671247746284
Ca 8.7652282170415 11.159667064752066 10.244483157215075
Ca 10.976644567358363 11.043508120907987 7.137208491693604
Ca 11.246100798844221 8.283294534808933 9.963944837253205
