21
Energy = -25.18810192 eV
Ca 9.694436771526973 4.156953781480027 8.562949691739442
Ca 9.388991504220535 4.277308039162632 4.636782372623545
Ca 12.40857813879079 5.873375669451117 6.008431298884991
Ca 6.230010847484334 5.0664872220002986 6.868662915163611
Ca 9.386797042227073 6.167385828327009 11.904704275384388
Ca 11.99758185206923 7.098569646008238 9.4936712059591
Ca 10.499370523018253 7.86303878085442 3.488995993449608
Ca 6.47002508788305 4.41563394151143 10.582096381817262
Ca 6.881054608069353 6.860000186108572 3.6100603497734536
Ca 9.148813239515494 7.2093040396352075 6.799604128643902
Ca 11.418469604346155 9.873576664952997 6.872142670198901
Ca 6.651964185249277 9.008900960199773 8.50147960153701
Ca 4.318290645148818 8.434976702036096 5.926385762057416
Ca 3.762359382205117 6.466591422586604 9.222891951023847
Ca 7.834212133553988 10.189717571861285 5.10200659509875
Ca 9.577483952254822 9.658877188410404 10.526887183011688
Ca 6.072518203036406 8.108961261719873 11.904651277459912
Ca 8.810404162105165 12.350981715163574 8.027961352681748
Ca 3.3603588748102573 10.091660950031383 9.672265009961217
Ca 5.202221715119311 12.114702735726292 7.13228172635776
Ca 6.365015880213328 11.852857941054388 10.848835373708766
