25
Energy = -30.84903853 eV
Ca 3.7210002330103014 4.712046741838087 9.445602777152644
Ca 3.622969084094308 5.538114286251274 5.756950925866816
Ca 4.797788227614981 8.043646178704257 8.27142594787775
Ca 5.596340637849108 2.778273216370169 6.749571561250276
Ca 7.438700230049322 4.300253695516459 9.628889390543593
Ca 5.9030327681567965 7.136591803033202 11.832755742408057
Ca 5.321561589750289 8.447886816537105 4.363430966508198
Ca 7.72038496491039 6.351994141664448 6.532119567670255
Ca 6.305858636338324 10.950371718603426 10.39247061583295
Ca 7.00498788841706 4.765301562580617 3.6012938522663465
Ca 9.225073225552599 2.8287330762438883 6.424510306327357
Ca 7.466279566722158 13.816199321689705 8.121335983437472
Ca 10.997012340900941 14.80388737835694 8.70824151603104
Ca 8.68149153835272 13.719191828240362 11.713882566770073
Ca 8.52781058771383 7.985424180781265 9.576949370512546
Ca 7.407059439645999 10.267012975797815 6.780976294051604
Ca 10.178866847249122 12.379263832245446 5.7083246112233486
Ca 9.046903815376021 9.82936662810552 12.70485856999753
Ca 8.979522690147016 8.784498020212272 3.7337670235956795
Ca 9.676651298674729 5.951993456191783 12.270299950286887
Ca 11.02135347057547 5.312312935399633 8.576184899118656
Ca 9.937834749640633 11.369740726796156 9.323645384731332
Ca 10.89868241480445 5.5963869788600595 4.690430530846211
Ca 12.02254718677569 8.451948414386504 10.621903585528786
Ca 11.010927387398947 8.715381957963208 6.847237765473563
