20
Energy = -24.10058971 eV
Ca 11.824105704869856 7.124220223589425 8.58182247591711
Ca 11.650212526580159 10.219873486030373 6.507577569156803
Ca 9.926286278968774 10.429200415208788 9.856089984793352
Ca 9.729645368589956 7.268713518346787 5.154317134824329
Ca 10.153577281664473 7.490639069365313 12.122532766780935
Ca 10.464451668145585 3.9799788131594993 10.749257652466076
Ca 9.94354591557814 4.051333886911819 7.003371701661213
Ca 9.036804779615135 10.909063895395544 3.863833564150681
Ca 8.333633608827139 6.5133790158697895 9.13443877566247
Ca 7.149084948705415 5.221704101595785 12.343807641702947
Ca 9.167773402599998 13.027278547976618 7.012170084530265
Ca 7.8465532521266965 9.595577034213656 7.086292207347631
Ca 7.019891813639306 3.1003365953149706 9.187387366911553
Ca 5.734913027277384 12.163288744050753 5.446927451837418
Ca 6.4658471464054905 8.876523793975355 11.022503734570783
Ca 4.547151762594184 5.926614547272929 9.686015084152427
Ca 6.270627020073692 5.7327631683891696 6.34615301166402
Ca 6.0231887047911945 8.658401447148105 4.074342831960027
Ca 6.237529453587567 12.09742263213483 9.188043504286572
Ca 4.333888592870159 9.034990282091833 7.608127843073822
