23
Energy = -28.55671574 eV
Ca 11.366487845220327 10.57283510764867 11.435764497987119
Ca 8.430591296325305 7.904475902845262 12.145686997271119
Ca 11.500118620081631 7.086565207370089 10.015718316389922
Ca 7.9124497636846245 11.93744765249099 11.92612905246775
Ca 10.123810525010066 13.086432940228796 8.876055256420157
Ca 11.963189074926515 9.945696637110101 7.567982956724055
Ca 8.627720963527231 9.774812657797655 9.148487132577879
Ca 5.244122505561608 9.568645632991082 10.49647182411616
Ca 8.550683907458255 4.627537218598543 9.743326164959285
Ca 11.205001176013027 8.699949012607703 4.032619054812692
Ca 6.4139751458807295 12.638839851640723 8.46951179199184
Ca 5.296184018826845 5.8522106541696175 11.464757404696917
Ca 9.681205910023822 7.06694523760423 6.842674233285699
Ca 10.456837135855778 5.0460232338610504 3.8539310314938566
Ca 6.359584884706593 6.896674038195202 8.116338273106386
Ca 8.625302128844673 10.91218496262802 5.773623926482654
Ca 13.108405355824274 6.380782652653902 6.438783154099857
Ca 4.9808555683082485 9.710624008503139 6.507857540924209
Ca 2.8856793443989623 7.093583229452651 8.77011675410013
Ca 7.4631284192646525 4.12446041935636 5.8991369315956375
Ca 4.761839472156326 3.647629132776151 8.437073031327497
Ca 7.383889837142122 7.580582122054467 4.184320219315124
Ca 4.126580007089116 5.906972114127036 5.371614660254557
