25
Energy = -30.55019937 eV
Ca 11.829749865952898 10.080266047676131 13.223821760894493
Ca 8.524862820479317 8.422288960855282 12.495011688563828
Ca 12.896474033586586 12.082045005523998 10.249366860313009
Ca 9.210381291549442 11.833680361731172 11.081444097744907
Ca 5.673786628395761 10.853791065939376 11.76901592019374
Ca 5.247206429111569 7.00813575055062 11.017579656758453
Ca 8.834360149325729 5.829628827048602 9.619890375804193
Ca 11.19032293978155 8.7962228928019 9.759614885097662
Ca 5.854937755999156 3.652299448173078 9.3886290257068
Ca 7.425973716070913 9.158818260737362 8.88671047977473
Ca 10.233255675046179 11.843263091436771 7.57349471217053
Ca 3.5857292742564377 9.731381364564415 8.978151909330998
Ca 11.955810006784052 5.457110650598914 7.733858069091843
Ca 6.35929997909569 12.362454723009762 7.994830945648806
Ca 9.919794829682282 8.322234870958326 6.215028913558074
Ca 8.895782839806857 2.9329213275949404 6.949892571624621
Ca 8.045022152054914 11.199814528333452 4.61409935866221
Ca 7.053212781325797 5.865877496477322 6.290843279867749
Ca 3.6343614792870578 6.159475136656226 7.650736678751059
Ca 10.461663784815423 5.213316944461752 4.342754347188257
Ca 4.890698685423099 2.8594718651133606 5.944560979710215
Ca 5.2975269103807925 9.139731985799887 5.736449831967279
Ca 7.711282459065683 7.665655842937076 3.119349431771146
Ca 7.328074400422808 3.7064400959267223 3.2543490998179285
Ca 4.307945335530122 5.974195585935693 3.8439505678030796
