23
Energy = -27.67068291 eV
Ca 4.4563975748964575 8.027456544229139 1.0044629812518444
Ca 8.151855412795815 6.830167200318394 2.054745915686889
Ca 4.9786764695717425 5.08641104487911 3.00607878346006
Ca 5.656956629890328 4.485542949721472 10.471625879895965
Ca 3.814745146872521 8.022355224157282 4.95243854045218
Ca 10.913032920773782 5.993826749450977 5.354778542909267
Ca 6.379967946657813 10.03912040975622 3.234495341223572
Ca 9.876298332825247 9.59440308181619 4.303136075743459
Ca 4.939701513883741 4.5048168976596825 6.771193485185567
Ca 4.548213059457095 7.652226660630148 8.751416732085895
Ca 5.565034617331988 10.864945704429111 10.831478467558346
Ca 6.911743081319741 10.374749873366127 7.127993815029331
Ca 5.393333055924205 7.480416752822128 12.601319919605896
Ca 8.025313773047609 3.7134568870362163 4.579637719943643
Ca 7.309484645651824 7.148725717358942 5.552745545621117
Ca 8.540355637431276 5.002550010466657 8.236246865197716
Ca 7.842958402433473 8.20032067840697 10.077048006811816
Ca 8.3229104457675 9.713431975772965 13.311614722843059
Ca 9.263028824680271 11.5613439064298 10.024184699089076
Ca 10.489235866003328 8.699962535705742 7.7586712191116955
Ca 12.006855789813082 5.648771728470205 9.203585670678056
Ca 9.030269006015418 5.730809123502381 12.152262751236021
Ca 11.369163223983078 8.662285893651195 11.375778997991782
