25
Energy = -31.8282916 eV
Ca 8.242294837251038 6.780840551710858 4.190716903845456
Ca 10.129066184702637 3.7726631157731676 5.874766209686975
Ca 6.1387650407115935 8.371689330373261 6.949024102936139
Ca 9.24662713958864 13.018816131623336 4.64875013223604
Ca 10.297251172377875 9.778258934515359 2.7499018833363946
Ca 11.915512998232447 7.2987434154025985 5.275401616357738
Ca 3.248099282227238 6.3389833260410775 8.061061095067332
Ca 9.338183576545404 6.6132564190910035 7.844014674412612
Ca 8.5962883937228 3.4279424053517054 9.562680454030591
Ca 4.730142030268874 3.2619102103424815 9.920062786968728
Ca 9.372798554276516 9.857724469645898 6.22478893070858
Ca 4.323313803164358 6.948784226436363 4.2558913064046395
Ca 6.8709179981834225 4.518047620877273 12.934752048952388
Ca 6.432958985835748 6.43771253126743 9.996087219165831
Ca 6.575323218237674 10.245550566966134 3.7886167649968785
Ca 9.85401557711949 6.693910511853627 11.51320700639278
Ca 12.600439100639521 11.159198036802039 5.5830249171377515
Ca 3.510950691838843 6.348070713884815 11.986184681549354
Ca 11.915358973323787 9.060573370581325 8.869172419439266
Ca 6.36099641353889 4.567081246113002 6.61870317771883
Ca 6.638743943537896 8.393878779890498 13.040933304032444
Ca 6.541023325052899 12.035829723047714 7.368560215455465
Ca 10.320059630495091 12.62851704239112 8.35342119227255
Ca 4.47077081032384 9.637017101890526 9.997264438970198
Ca 8.298546168891534 9.788341573695359 9.904173892480555
