23
Energy = -28.55416237 eV
Ca 3.408601828557126 7.8259533828895 7.422017561028108
Ca 2.5801844554740527 6.299082340353599 11.050353822414248
Ca 4.332908408744895 9.68093924531622 10.811956945118608
Ca 3.889687191552809 4.035572624829312 8.172710775788325
Ca 6.753255379426607 9.551560419461133 7.814161786047786
Ca 5.598031034257931 9.098823173118792 4.256654836357089
Ca 6.406721937942497 5.998238357998246 6.180745717627943
Ca 5.4836123206690415 7.169222698301335 13.426103117612188
Ca 5.943769762556677 6.589545218549082 9.844198845262415
Ca 8.183236769668527 9.258517286884686 11.315752965441751
Ca 5.1915183251729955 3.665650598054476 11.806029979213669
Ca 9.107902399909147 8.445393395290807 5.2392728517456915
Ca 7.712362533565419 6.27123442195311 2.6335892779149197
Ca 8.180571445344041 11.954400644785844 5.168882940930087
Ca 8.80055111189296 9.929572893567343 1.9734269032318137
Ca 8.619072251380768 5.422856490185084 12.043754829722433
Ca 10.381972943400903 10.55998541369972 8.096050220987419
Ca 11.436604759740268 7.31189675463253 2.7473721427056046
Ca 7.713935351220521 3.538124319931094 8.665615506571429
Ca 9.900853018745316 4.795090970138656 5.502041893740623
Ca 9.377970945426823 6.919568915855194 8.601540238059496
Ca 11.727896833287746 10.807220118620013 4.319733673150937
Ca 12.448828282295825 7.7033240029814385 6.411805271032179
