21
Energy = -25.33716383 eV
Ca 7.49115733689949 4.256948924370164 2.362669566651928
Ca 4.278051766129355 10.380204806044413 3.0888404433102874
Ca 6.853204308491347 7.9718026301678755 1.9055841870283874
Ca 10.265801746385021 3.4221179949073823 4.971108985872549
Ca 8.823132448808272 6.756959524669661 4.939812036296931
Ca 4.202294302220039 6.108010658965774 3.7007285261360834
Ca 6.522623788630807 3.715861359205291 5.79815026988722
Ca 7.999337795208416 10.772794987823627 4.066424398347848
Ca 5.36042295478259 11.82966375958697 6.565495013537916
Ca 5.82793071841408 8.42428570360668 5.6987380126033615
Ca 8.594294194474188 9.508489116851088 7.708155019149345
Ca 2.4866258560834402 9.199381753575858 6.209700035930103
Ca 9.143587874834875 2.3442223222171332 8.317484875574902
Ca 7.24529386795441 6.013311422197034 8.496888738008412
Ca 10.707809545471658 5.844020735290758 8.312621728705539
Ca 8.486273814177437 7.980831315549572 11.171429649737501
Ca 3.7687036687718516 5.857149987781382 7.6677394007468305
Ca 5.128788491156403 9.114303424536512 9.261273103879802
Ca 5.637571033372687 2.8751584978958777 9.486301852084559
Ca 8.628644065348354 4.218255170643384 11.435719503686693
Ca 5.162594745829303 6.020370227557794 11.44927897626829
