22
Energy = -27.33230226 eV
Ca 3.721101463836179 3.099117766698758 6.030580623528757
Ca 3.0564989734437735 9.1769245189779 8.600249746075356
Ca 4.642709012463639 6.649498344267472 6.169549033130541
Ca 3.029493613639056 5.253983028073772 9.138872086471508
Ca 6.221832697508064 10.067236948403677 6.586317032647678
Ca 6.1105937147708715 11.259445235752063 10.168897376167655
Ca 6.049445242929928 7.473686693312616 9.739069049145085
Ca 7.142312927206828 7.976937215400331 3.4795710617792324
Ca 8.29957019813125 6.9094633238445144 6.776450224289217
Ca 7.145849646706486 4.217686258347554 4.574645993795671
Ca 8.636918269439773 12.893391538266693 7.584125172090282
Ca 9.88843164321097 9.987125958386189 5.343527399586326
Ca 9.137459429733765 9.58281318307416 9.009024413273664
Ca 6.576104988172042 4.031613752288019 8.357447374641895
Ca 9.839399962456836 12.276865624446915 11.203612265306843
Ca 10.545650989776474 6.330467167346523 4.069955129970072
Ca 8.287266911247048 8.956368453135585 12.467619415891702
Ca 12.134858702848708 11.378686693445475 8.2281921381712
Ca 10.260177220970316 3.9503307119259925 7.059298825464146
Ca 9.512307108312717 5.952733728168513 10.286144135123694
Ca 11.867986326750446 7.459711842231031 7.606365251165627
Ca 11.889143434734827 8.89947501351086 11.220280781297687
