20
Energy = -23.73620088 eV
Ca 11.024368054176174 3.6077278126020182 9.800017816874945
Ca 11.26240979831135 6.741083926954772 4.357429382099572
Ca 8.828310142676253 8.340749635771026 6.5704904626593805
Ca 9.960443773221343 6.843736032658103 11.320716604969755
Ca 5.8106551028894176 9.695620174943372 5.316669430607939
Ca 7.534703718634218 6.495739155980204 3.6924456216352777
Ca 11.981238084189707 10.094752166257496 6.037920332729836
Ca 9.303594044732266 9.781224640452438 3.2451874994729906
Ca 5.513234504310355 6.087418804912249 6.950433054578651
Ca 8.794814059051959 12.052651361727667 6.193739845298533
Ca 7.313998997151537 4.461037313049733 10.06210135528503
Ca 3.5052424148225674 9.082688123508396 8.228916828705515
Ca 6.607305763660915 6.85542268570432 13.069302076846258
Ca 11.844301315726266 6.931503825767814 8.190488725404988
Ca 6.258488774638316 11.538359408690448 8.793109988863517
Ca 3.9062752546204322 6.19329746635382 10.555996935040614
Ca 9.961812986943581 10.259896301904492 9.486141785370345
Ca 4.572691994127869 9.813773456019911 11.816585090369175
Ca 9.105676455440213 4.641762339287618 6.770197573225348
Ca 6.861343366555205 8.093488936301865 9.636881863942804
