28
Energy = -35.45500951 eV
Ca 7.10456698280864 7.316097121995268 1.9779468587865503
Ca 10.186175510862478 7.279448328527726 4.09500865578968
Ca 8.36102531266153 10.64072466841085 3.628977878956636
Ca 11.766339525725432 10.13200062003069 6.108692676134496
Ca 13.314460984368223 6.5189143407943915 6.1978261492873
Ca 7.342436327302383 4.931862871176555 4.991785658027051
Ca 4.40305495955052 9.76080152969151 2.5696689226278457
Ca 10.721170995497108 3.924566802716544 6.08870185567861
Ca 3.952337901158932 6.162805506030003 3.6949712796285272
Ca 13.386239322807905 8.304289633035912 9.339395445848492
Ca 6.300753155760364 8.350228110857405 5.504381957839207
Ca 5.152803112093231 11.85283917118738 5.499199060742092
Ca 8.243541113913585 10.707421430996709 7.577422087430545
Ca 9.973547921735278 7.327192837792033 7.757070219212413
Ca 11.087491394302182 11.144120411422877 9.747167326073043
Ca 11.705108549338632 4.778883747233139 9.66057499028599
Ca 2.6044140749361446 8.849645048906408 5.983909795806227
Ca 4.727923430028755 10.038455899108474 8.81358872686726
Ca 10.39028569818569 7.952374929131931 11.564350776924535
Ca 7.907217018232494 4.07709790320202 8.65668398417505
Ca 7.03694325407179 7.4685491021765085 10.02371371990882
Ca 7.619860683312462 10.719854643767352 11.436070068818648
Ca 4.634830808504251 5.827973786139267 7.570409716631762
Ca 8.751397612869772 4.559131378640095 12.122721120898177
Ca 2.1556037688522607 7.435364191475269 9.70880064786597
Ca 7.278604288190326 7.507101424988106 13.761618188806596
Ca 4.258441979115088 8.872924608293209 12.360639839929481
Ca 4.8895496223377375 5.069401709826278 11.474334664440715
