22
Energy = -26.23685226 eV
Ca 9.775063925105256 4.720095542837968 5.731101795222709
Ca 9.38562127428588 2.936900048003516 8.892314182894454
Ca 11.623900823704995 6.145686953972482 8.726256582349246
Ca 11.014143310345448 8.141083200285058 5.270942349439439
Ca 7.248260092409552 6.793158594176919 4.041980695507209
Ca 6.254377565412188 4.265156877596029 6.983995828041198
Ca 9.858232660140734 4.9084280228681925 12.003676082129386
Ca 6.375198613590527 3.6307517429432368 10.84332144532339
Ca 11.613532110294585 9.815787692373991 8.595573584817762
Ca 8.582596571425645 10.36594603404902 3.16686809625442
Ca 8.035502920255238 6.569513220466892 9.195773204854124
Ca 10.493162224957594 11.980853632773524 5.881118050723677
Ca 7.824504889437462 9.266395772287039 6.674446352827088
Ca 6.773742268241082 6.684292075034171 12.883457978743303
Ca 9.73025383648752 8.795908235920052 11.560381498708892
Ca 4.42613631901125 6.842758348354519 9.754765438303739
Ca 4.133309688899149 7.145214563255683 6.116692305512654
Ca 5.057744630674957 10.01665364561901 4.0628347381230965
Ca 6.914630139594121 12.766599194187084 5.735794117154798
Ca 8.501209960938782 11.829016256504676 9.195461025848807
Ca 6.154108031437012 9.864516491823274 11.203846909751938
Ca 4.614963896749479 10.448430673848268 7.923587904384362
