27
Energy = -34.30292744 eV
Ca 5.350180511737816 6.338068260085739 5.175505267470955
Ca 3.7993925298994187 8.552354349862025 7.903368939694277
Ca 6.927139000998426 12.969834443149836 10.730239814042232
Ca 6.55597485766699 3.1374764283850665 6.801438039501494
Ca 8.664633658669954 12.667628194905602 7.188551646713133
Ca 11.67362897231687 7.162393589011151 3.8714066211009515
Ca 10.55291543213367 9.346059752870683 7.141472383899903
Ca 3.3218150782844194 4.758725090042019 8.127207275173992
Ca 4.010787786224457 10.625763586451015 11.048140343202515
Ca 7.263659654408764 9.329515121223896 12.5632173865451
Ca 7.629138253163608 5.514705820605892 12.454963017278066
Ca 12.431394714287975 12.389075862789808 7.334688288975098
Ca 4.8510484882861915 12.196691719181333 7.615090606767966
Ca 10.529065407622754 10.776017037454773 3.9644329722454663
Ca 7.000702831153594 9.673193191404403 5.4397739604155655
Ca 13.396323839139752 9.334885506244477 9.471487807217184
Ca 4.248240701346751 6.864171543471496 11.478295356032378
Ca 9.94694583926498 7.498107113373848 10.216179784503877
Ca 5.665604730889445 3.042380622705744 10.527001274913149
Ca 7.1145634544225445 9.763942068008575 9.03301240707353
Ca 10.2644733041309 11.291181502771355 10.399896948594938
Ca 8.209226199412232 7.548845773563092 2.6752877086874407
Ca 6.5517270148990825 6.153392754326792 8.868166394887178
Ca 9.375936556611062 3.8822419310852743 9.303405040751953
Ca 13.952251186462378 9.338903770541956 5.727100000452493
Ca 12.434335188877066 6.167084789688539 7.542086863107709
Ca 8.918570756414505 6.195665080697101 6.15187956423004
