24
Energy = -29.93282891 eV
Ca 4.233833645607372 2.9981633774289063 7.300197299639927
Ca 6.401201132875728 3.5862893591138723 10.38277439527149
Ca 3.1714167716495236 6.600888256246393 5.971739999912693
Ca 3.723273108518555 6.301008423787757 9.64959813369963
Ca 6.632461484161171 5.534489584088961 7.367026114449798
Ca 8.272442519581782 2.2726028173079644 7.213102149220833
Ca 1.9325721537832687 9.55873143969178 8.208724083763377
Ca 7.233574748407875 7.369230390822563 10.65850116455517
Ca 9.072009250988925 5.087598235978455 4.498655001027725
Ca 6.378732404612594 7.7787380053353585 4.263864842773933
Ca 3.683732168032835 10.412069930766204 4.8885368091793815
Ca 5.411386747439376 8.953837435686172 7.686568581824962
Ca 9.872286530867434 4.943809691033595 9.503491360399082
Ca 11.813698652040186 3.6315203845406026 6.622467766935331
Ca 4.6548334020954325 12.415379504582488 7.977129427762056
Ca 9.264363585371818 7.8292338206279 7.082900430376902
Ca 4.508695114178146 10.039043752860245 10.963366219627181
Ca 9.746767606222004 8.974292790950734 3.437706543075743
Ca 10.761970107133854 8.652086891629324 10.521472176160371
Ca 7.571652812534741 11.10317202172394 5.594273155987625
Ca 12.394624652173283 6.867434177633812 4.820440364732678
Ca 13.006160106917251 6.736792042335165 8.3774621842717
Ca 8.057160986480868 10.885109737046257 9.330141482709939
Ca 11.492036311645952 10.387496476753379 6.9100529479667765
