28
Energy = -35.41243435 eV
Ca 9.95167691042469 7.396646326580348 3.89414482236087
Ca 12.10738737361156 5.8799444876636064 6.959594834678561
Ca 9.246609783259675 3.9850549577131624 5.629118364240671
Ca 6.337260804505447 9.228491338236708 3.364513912989995
Ca 6.343104126513883 5.599374854925459 4.082038773410829
Ca 9.19195301947085 11.084814954235727 4.814837739054591
Ca 11.897619652314537 9.60701471164108 6.79319910064644
Ca 9.598793709700177 4.1916727602949955 9.341775171405825
Ca 14.408610177326238 8.114549076549045 9.265120324054521
Ca 13.104826013186019 4.935610322539331 10.684572297862458
Ca 8.246793664533865 7.763448559741285 7.020195257372405
Ca 10.766566103477714 7.683492559662064 9.860244153222485
Ca 2.970279466386513 7.088266654681616 3.0156814876460003
Ca 9.030883327362384 11.160133218117206 8.653394568329322
Ca 5.899415394195491 11.339322337786884 6.460243393849796
Ca 4.450381260727164 7.907671212564757 6.2796053095998
Ca 10.160879938772153 5.640688331286686 12.897819418391586
Ca 12.91015216735273 8.166045650755017 12.793452326470069
Ca 6.153218356302353 4.730606543151015 7.789232667255559
Ca 12.270790041160893 11.000463760820024 10.399233835901919
Ca 7.012862139298674 6.35357016244404 10.998375983156379
Ca 5.870471765787577 9.45616178011724 9.711872997314899
Ca 2.757839395612189 10.551275590281023 4.393394099239142
Ca 2.902645243486454 4.64307802002955 5.891453941031163
Ca 9.00477523981091 9.482282731195017 12.265823751665263
Ca 0.7871929699857535 7.711443482336968 6.142024218435539
Ca 2.517856149278273 10.344747471478218 8.171394518730686
Ca 3.229854760453778 6.65244741769434 9.37899085379299
