26
Energy = -32.97117221 eV
Ca 3.846821544918009 6.554265948854941 10.391857455995453
Ca 4.861315999313534 5.734236814733601 6.812259136345929
Ca 7.412956865069472 6.780968948276254 9.426024661195763
Ca 1.783308616531495 7.992604541348459 7.420142548453358
Ca 2.61408093440324 10.305841400786052 10.439319427031657
Ca 5.096085730179276 9.28155495567064 8.144508267056931
Ca 6.160720792814939 3.3340596006815453 9.371819803976335
Ca 6.658566938277341 5.460631798252284 3.517883628961147
Ca 2.888031484978704 11.672355484977428 6.77558895191086
Ca 6.295789887872416 9.469504174779763 11.668491305661169
Ca 5.553741032869413 12.640593603569112 9.420491304672673
Ca 4.338127121510578 8.767698159553682 4.528212722228514
Ca 5.581821910120471 2.2590185458500884 5.5999762055190025
Ca 6.759976226307455 11.66268741843853 5.776529462710498
Ca 10.201796937752126 8.152048137207387 11.449120240756578
Ca 10.140911894534685 4.417550002835047 10.094798257232434
Ca 8.675878847893296 10.426035483505759 8.817800948506132
Ca 8.48728772187809 4.443698604064647 6.625072820488055
Ca 10.67075285441342 7.327927761188922 7.826748908889274
Ca 7.696648224727584 8.08126018712634 5.858027067448371
Ca 13.474134431230777 6.532585510528401 9.829787321142673
Ca 12.547424638183749 10.199287691651222 8.999647867258302
Ca 10.64164301682031 10.258691808192507 5.526668869172543
Ca 12.361429593193654 4.286724426484065 6.851744339873926
Ca 10.587878664873173 6.491626598689839 4.180114578091539
Ca 13.738325037236162 7.859432363206681 6.144480043820187
