29
Energy = -37.28071449 eV
Ca 8.279405031453514 3.9444228076617636 11.081375749591546
Ca 10.1691946531361 6.326942844425774 13.828697083130796
Ca 6.33337389334872 6.1577137893980405 13.599554930080853
Ca 11.865968050963923 6.1522514208505505 10.361790498401211
Ca 4.733115426117329 5.571551254977439 10.22749376760621
Ca 6.24096819239662 3.312797668982589 7.817394188663965
Ca 9.383017915638852 5.342890828078883 7.6808509738907915
Ca 8.010953011904071 9.583497649058623 13.904328624805217
Ca 8.385398785627883 7.49237716200469 10.959165334561765
Ca 10.672292391928586 4.784494486328042 3.9803393491248
Ca 5.015168432395503 9.161658877064056 11.450011836656865
Ca 11.251102082967094 9.565492114609052 12.049053726546198
Ca 6.964914382512332 5.136611115177499 4.736620163059727
Ca 3.6768940402761627 5.990661187162853 6.364578712224694
Ca 9.350501568839192 7.968999678598736 5.061171093212913
Ca 8.372222416687274 7.004393486911425 1.7558263814767203
Ca 2.369946567750176 8.340110308793918 8.961397727682801
Ca 12.722418661711352 7.021429367253565 6.342322432071411
Ca 2.3916959501289146 9.611896906436604 5.497377949210923
Ca 5.733236866924822 8.645277449229999 4.250243668286372
Ca 6.459274165789781 7.912965531745416 7.873400962303367
Ca 10.434380986061159 9.055254926307416 8.409138646303271
Ca 11.943822755837097 8.162988357091878 2.5745274933496463
Ca 7.966094497950373 11.125472999876642 10.275969769960184
Ca 11.664812892673687 10.766231473407931 5.2588399496004
Ca 4.640587557637184 11.222139386032287 8.094173536790224
Ca 8.632591731162584 10.74456500677563 2.788702485940664
Ca 5.068014461319001 12.245863134419402 4.369100215025237
Ca 7.9876011885093305 11.208502771333542 6.433681136612839
