24
Energy = -28.96219927 eV
Ca 5.792784970643724 7.658054872671714 10.722822267702957
Ca 4.439654567147824 4.586341463559633 9.05446101095546
Ca 5.079230329177966 4.995015895925004 5.26997133115463
Ca 11.10588137052672 11.160560980625473 10.904912306386041
Ca 3.973332682156057 10.753294519326474 9.641490220066988
Ca 9.385863326266277 7.859323822324024 11.364926904844479
Ca 6.770169492626181 2.4490714363279094 7.250370485481523
Ca 9.422138531241444 13.711943813288908 8.924241290416221
Ca 7.9559900376023815 10.014390537222338 8.271546340757599
Ca 4.619222028183421 11.16246310309414 5.858161912047107
Ca 7.857813137268006 4.073876949544594 10.761427514664096
Ca 8.88207907667374 4.732804897595662 4.699981851363846
Ca 6.7969889860161645 8.296964320021564 4.81173208221672
Ca 12.212960192193528 5.413126057490471 6.518245480825067
Ca 8.334038507535453 12.087507132214347 5.407503521884822
Ca 4.1785681173084175 7.854144927497006 7.394456765790223
Ca 10.392809536869727 8.508173454117728 5.43444520614475
Ca 5.945086170810385 13.508248571910404 8.307118311642823
Ca 10.249399668633172 2.653297086865455 7.856641596379967
Ca 11.988583371047397 8.30654746463946 8.76911872707225
Ca 8.243016305031581 6.146665107493018 7.898357007350518
Ca 7.301302611904718 11.428380483244002 11.467412802611811
Ca 11.572450793973786 4.998947330686143 10.30717210617978
Ca 11.751458637777732 11.575101201524443 7.115722822603162
