21
Energy = -25.91629797 eV
Ca 11.245171221318529 8.811310046215175 4.611095071953228
Ca 12.512777109575563 5.54792331162121 6.267996141628647
Ca 10.073816015091591 11.364044736313133 7.391823445295201
Ca 13.17377575338076 9.19011020501377 7.970217237816399
Ca 8.961305945902048 5.80043564941791 4.7635376944155245
Ca 12.128444504807572 6.026988224231064 9.998692174395192
Ca 12.538096648082849 12.643163801411013 9.814292548035839
Ca 7.419501552971616 9.40957791745974 5.516914049927855
Ca 9.25013438652122 4.061033233227576 8.230769784731104
Ca 9.909181030221893 7.599310131505459 7.677120973329101
Ca 5.801502782174332 3.8932726959212127 10.209305473202225
Ca 8.323157392838317 6.541556468115838 10.944652504974288
Ca 6.376345444239957 12.701579656844588 7.516875335973592
Ca 6.30630768049304 6.452453678144285 7.611677629002377
Ca 10.66158407007347 9.58023346823234 10.802966039981142
Ca 8.648372834896566 12.781098289247279 10.669453245012475
Ca 7.2194413210840285 9.731973982739959 9.271155331222808
Ca 4.692767449991659 7.6594429946960565 10.882161773497298
Ca 4.702198326885572 11.746937123004468 10.878125718011864
Ca 7.285310633385014 9.832129329292428 12.848954895118109
Ca 4.066305126183976 9.71163741300136 7.641565154229964
