29
Energy = -37.83515742 eV
Ca 12.78731115916126 8.396227623374733 11.516192827653201
Ca 11.28485180884196 11.421017740916067 9.450189624098684
Ca 12.478451221259816 8.440235734212568 7.3938219255896795
Ca 11.78199064071224 11.712503570704483 5.279508720075354
Ca 11.768403427250242 5.189328274505075 9.751033366021916
Ca 9.610013420872699 10.091714827848605 12.876773604291367
Ca 9.642571380501511 6.106522883078361 12.928890133705327
Ca 7.3630221521250565 11.183949517219082 9.922429123935796
Ca 10.549221249075176 8.27119494114666 3.7614227068518504
Ca 9.694657070138364 8.139125864793284 9.911098555773828
Ca 9.645677152579427 6.039235611554514 6.680009351386536
Ca 8.064644450147094 11.136476390436746 3.384003238783553
Ca 9.14514831707973 9.999944940498779 6.760258182759511
Ca 7.858044909737377 4.840117387117609 9.828584904096953
Ca 6.922922780647628 7.889985399783354 4.683044418580988
Ca 6.436013343244124 7.9365558999581225 11.916949373388002
Ca 6.091964418476559 4.676153253883559 6.494298536776633
Ca 5.075051042336419 2.3117355547564973 9.29004531642007
Ca 8.333646069007242 4.88394560149847 3.269453447232457
Ca 6.547407551651638 7.979262257514003 8.236452894305405
Ca 5.834529978020078 4.243314067639233 12.745382416298614
Ca 5.487974478446424 11.014851320672339 6.3841821625518085
Ca 3.778332026898263 9.773663539554112 9.622183568625033
Ca 7.324065187217152 7.90964558742494 1.2070211928300516
Ca 2.5678360508554503 3.9481966884111444 6.5955614630168595
Ca 4.354153923619856 9.620939648475654 2.9539303681303157
Ca 4.040802862544204 5.8101914735976035 9.671846833816744
Ca 4.479891539717324 5.644170203566043 3.1939896802534613
Ca 3.4502389470493977 7.662385592121778 6.280110466158263
