29
Energy = -37.5810156 eV
Ca 9.368223565717804 10.198148380586304 3.2436832257432475
Ca 12.27322838838793 10.127806056056807 5.816523049912394
Ca 9.131080367849403 11.960608460826819 6.950245871028321
Ca 6.140283040760554 12.064894154329513 4.693853060334465
Ca 12.168835622667618 11.343357610764304 9.275326599662957
Ca 5.4616562542843505 8.955629864249968 2.6848576490515588
Ca 8.213976369439207 6.538457388496957 2.567982184708888
Ca 10.708301459010586 6.898620223858162 5.204505843759578
Ca 11.512257189853344 8.722923818468283 11.86183872912885
Ca 7.387458972523242 8.78732066563435 5.770529940459404
Ca 13.145362608178488 7.406104357678358 8.44183306675435
Ca 9.849169009580773 8.607408608624471 8.606578138138085
Ca 8.584801764730038 11.244865761379677 10.763390036844532
Ca 5.505032711151294 11.895798787568994 8.449810296846406
Ca 5.125489580950481 10.700014147662701 12.209550161258393
Ca 11.598492451865855 4.0276253826510855 7.246138547257268
Ca 7.9519710462367925 5.527192622536106 7.574238119306785
Ca 3.828451642820098 9.182906971547867 6.209556928673891
Ca 8.60605507379254 3.393924348411404 4.856002763037439
Ca 6.0371243084450805 8.44204057131637 9.436141634886935
Ca 5.313839522384923 5.761874341825052 4.8675564346511475
Ca 2.5445368491575806 9.575168915196654 9.746958822297064
Ca 7.850165137084243 7.85316307822456 12.490850484902627
Ca 10.275761891203262 5.4006956420523515 10.524269469693426
Ca 3.9624892638748084 7.1404215674224965 12.205946165330534
Ca 8.809999999418144 2.213564737041289 8.803973535967689
Ca 5.483460942503692 2.845029004888139 7.262608041177215
Ca 3.596913256462744 5.974465810517474 8.441399261164818
Ca 6.413088284227672 4.65661404486937 10.717365303093477
