24
Energy = -29.51234983 eV
Ca 7.923524762098478 9.998886288292615 9.500807733601285
Ca 9.764076402960448 7.661003617821746 11.915150184772259
Ca 6.548034762085096 6.573257327144426 10.229622788124148
Ca 9.475671086989829 12.576816695531262 7.386000475481028
Ca 4.222044391350099 9.61420741580956 10.269671083010062
Ca 11.566266416245774 9.678965823243322 9.213097720317627
Ca 9.418116769071018 3.8089473303754153 10.763297706680984
Ca 5.342171389427292 12.325412782738214 7.5111997118976594
Ca 5.599287851057967 8.87765862980553 6.902995252180362
Ca 12.784063763995492 6.132477737082794 10.414938104022495
Ca 3.280334401532728 6.320454990464715 8.567178343641157
Ca 7.461186457989822 11.682496176456683 4.398779480853321
Ca 9.72461431674526 6.4162325735751 8.417804239555203
Ca 3.9630249824813513 10.696167822489643 4.12565366443502
Ca 12.835513901242157 7.144777336282177 6.6647839076942486
Ca 5.604933584419851 3.127902543210949 9.367589150741754
Ca 9.451195436404161 9.065945182084697 6.033512889179632
Ca 12.044363835257892 3.6019438187719466 7.7543244626570855
Ca 2.0777467793015827 9.82576217492389 7.252930429945118
Ca 6.8413270636533765 7.9440921995915135 3.5741710703548444
Ca 6.436997899248484 5.435028463484872 6.488779765674203
Ca 8.591199299841778 2.5664462513592303 7.254960179986081
Ca 3.2594855624834227 7.047126165803834 4.818640029329616
Ca 9.840200426082609 5.402652147028929 4.895594686166462
