27
Energy = -34.36907705 eV
Ca 13.457225069553008 8.870604779140681 3.5491689778206528
Ca 12.804025910094643 10.251635568001095 7.4327619995680605
Ca 13.386323186343176 6.395206553353607 6.407887939579506
Ca 11.042472536046544 11.69152936808767 4.226666984338769
Ca 9.899129140765215 8.825141288624414 1.992441838899306
Ca 11.301183411756751 5.589707342152861 3.321411150057982
Ca 9.15907699024735 11.720938582198317 7.5258670365918965
Ca 10.492233139586917 8.348802874667346 5.515303947828772
Ca 11.213880208561399 7.202862065551671 9.444738533830186
Ca 10.659572486738858 10.675926221623914 10.669543269762858
Ca 9.774769298859157 4.8627980248445315 6.789238460238141
Ca 7.377880983544796 10.26779205419837 4.572023021171468
Ca 7.913671367138451 8.187396151548707 8.037384658509263
Ca 7.5320368981983625 6.517131016665039 4.2708631019271035
Ca 8.490752682646859 7.9764610210334315 12.07713355915113
Ca 6.77740764785478 10.876095023092379 10.445851784207317
Ca 8.220279899549242 4.699675552952566 10.24137905849593
Ca 5.274882405056649 11.79253623630529 7.263205601678111
Ca 5.9485144441664675 4.789372842870465 7.249717390326586
Ca 5.329755202083134 7.000236373217367 10.255859771178791
Ca 5.909338197166339 5.4202552614890305 13.444600968526528
Ca 4.870846219785669 9.075113282478796 13.19461441782868
Ca 4.598873892672997 8.246569368564918 6.34748025399881
Ca 3.091623372802639 9.714496392243806 9.741446077496136
Ca 4.420051249187599 3.5124121797767462 10.553054473483838
Ca 2.383489479130712 5.958923107851368 8.458051947510773
Ca 2.366832941601342 6.426003654559518 12.213192472630048
