28
Energy = -35.15895682 eV
Ca 7.369056719970962 10.184638925887503 3.723718073745894
Ca 8.62365242536379 6.871311241812236 2.517885338080921
Ca 4.049262396950475 10.49548129361948 5.419623083805988
Ca 11.257959400663378 5.320009700983923 4.55126308675393
Ca 6.249073679850194 13.474523610829936 5.488727132531546
Ca 10.959861397067074 9.224421475674186 4.827598246368398
Ca 9.957787495899762 12.850929504450274 5.156543090202048
Ca 7.866411985768855 10.648365003482349 7.2264797003896515
Ca 5.22237261221144 7.0156357664132045 4.257293214987478
Ca 8.44409872586308 7.045451688559898 6.2131419389350055
Ca 5.070917139958719 11.917886813415967 8.934579377234149
Ca 8.713590854143776 8.078238242716443 9.892273796926
Ca 8.50010629437918 14.070261955962414 8.396265275225709
Ca 8.269160780296298 11.53166376668248 11.003996380401373
Ca 11.794597996661384 7.054413183911521 7.924887983573036
Ca 11.174350186089262 10.957869588104264 8.392241790204361
Ca 10.579186384022439 5.119603172281039 11.029664592616514
Ca 5.5075714710817865 9.04077829612901 11.545183741268664
Ca 10.087944108817009 3.5762024358204347 7.6523734730697015
Ca 5.225268987160886 8.079650677409123 7.933606029741605
Ca 7.023129221432567 4.864019161804742 8.928816889987672
Ca 6.922355255936271 5.484476684560153 12.374164938358009
Ca 7.482436993169214 3.8818421611987963 4.788465516890077
Ca 8.440372089287953 2.1028826427615734 10.897955378429172
Ca 3.6327996770833018 5.977858524043398 10.46216430833086
Ca 6.75234162471806 1.439383658121699 7.5730616368736055
Ca 4.175635629511488 4.293212897950506 6.926892257974078
Ca 4.750421290649347 2.504627605658172 10.574629931782557
