25
Energy = -31.25974662 eV
Ca 11.736267937227389 4.364411450928372 5.196745320355907
Ca 11.828146507704613 3.1811222181921375 8.81858974861558
Ca 12.440021261179458 6.780780950031567 8.053607253677821
Ca 8.763282754002278 2.960427873039165 6.576995421653389
Ca 11.643207690452728 7.848864299241325 4.2004136609334575
Ca 8.201636584899243 5.762276312116532 3.8560709745729502
Ca 11.627166622268955 5.78214385077412 11.751653532887396
Ca 9.082700127247241 7.2625642903897125 6.842469832253452
Ca 10.019027068481847 8.800980712796605 10.191410511466666
Ca 11.309657865133428 10.397181687058122 6.895247374627916
Ca 8.743575860554404 5.021715611304892 9.73934093138677
Ca 7.82693685634965 7.210382685900868 12.767092458869612
Ca 5.8402844154641045 5.068911904673239 7.209167445572121
Ca 5.069202333519172 5.00694163306104 11.037961944921385
Ca 8.522993327259226 10.010670171868664 4.26081525840996
Ca 6.359383753566826 7.933651704214327 9.510554604702167
Ca 7.763933649332765 10.766989982223734 7.816375967169261
Ca 5.445598017218109 8.5206543987244 5.876954227318617
Ca 6.988989461787043 10.992940604523636 11.490752638988765
Ca 9.124430291226224 13.487402394148162 5.940257710345915
Ca 4.05794069373657 8.595409826643671 12.155733085099135
Ca 2.9604340299168457 7.2129107655714435 8.671737661487192
Ca 5.525589029359375 12.343992773615417 5.498737560771343
Ca 4.189252637188007 10.88925321042888 8.862376937188596
Ca 6.522045724333642 13.974495668778165 8.842143348116833
