21
Energy = -24.99643002 eV
Ca 7.602383433725815 10.61878259973024 11.932891889373039
Ca 7.144563056235128 9.954602920179124 7.734846376369791
Ca 8.852109872313262 10.824307141772895 4.455749905282422
Ca 4.353243607486894 9.13574855376388 10.521026336735307
Ca 10.542358609918947 9.715156005321179 9.599503059902538
Ca 6.100523659984715 7.287370842277228 13.417525244463233
Ca 6.6332512051583 9.499768312528488 1.5410334234545413
Ca 9.936694476103838 7.673482959329196 12.909212874704181
Ca 7.6199382375393645 7.582211154508702 10.236004394534865
Ca 10.131928793533742 7.836244473961581 6.421792537473447
Ca 8.059264264114901 4.441444050325455 11.736198170901371
Ca 4.627930193648771 5.410442011659145 10.273001469642118
Ca 3.7667418534955233 7.5045701656763315 3.180914825090516
Ca 10.854968046691033 5.946982416073757 9.56634570453818
Ca 7.028307040318329 7.580377089280583 4.6006026734539915
Ca 9.869616167528118 7.750334035008198 2.4087608304067514
Ca 4.341535406571018 7.388476765917823 7.151841181104091
Ca 7.490537838725809 5.259352420859046 7.707720436038191
Ca 6.755732614787028 5.646120934614876 1.5660751736196292
Ca 9.116685772171815 4.605582047769424 4.357606098271261
Ca 5.190404274375019 4.408424056175772 4.889436737097683
