55
Energy = -407.41769626 eV
Ca 8.164697008377257 10.88350731713918 15.169433194146311
Ca 15.227184509009748 13.231039282721198 10.886532555951037
Ca 13.179380520093707 8.76956217522076 16.06107364704017
Ca 10.309936229855682 10.975699267755093 8.939471151124419
Ca 15.274316651833866 13.458674782981646 14.36400971530835
Ca 12.551354855566634 12.77173169796731 6.225593147637288
Ca 10.188546754684161 11.037247168830906 12.865034197454877
Ca 8.102504865548058 10.619186631214914 10.640854180852621
Ca 12.582111897269792 13.292551351942201 9.25289233901688
Ca 13.216110436070142 11.179046373679732 17.822511288500046
Ca 10.42244859493654 11.462150192967618 16.729940644208217
Ca 12.803311428878352 13.80717632737862 12.635057146574987
Ca 10.149561036800337 15.789082754654084 9.200874766271639
Ca 8.034414547008403 15.44752591754944 11.180926808482061
Ca 12.700161254423238 13.720550777409846 16.085455052443876
Ca 10.654692769343596 16.361175915445155 12.491019390524924
Ca 13.070186134770857 10.547900869160362 7.836875494731566
Ca 17.57709845498521 13.065368838686803 9.45273259336452
Ca 15.393861066984096 10.461186282275184 9.341418547621492
Ca 12.561696992664467 10.970212025649245 10.993436243174278
Ca 17.94027461992002 13.110799794915476 12.621369960114311
Ca 14.90854918479335 10.983622963046868 12.759114590941724
Ca 12.648695251543527 11.194450064199614 14.634881134917155
Ca 8.11280955638683 13.301361605519784 9.264988480026009
Ca 15.48965507065306 10.917119088707766 16.26956617503177
Ca 12.663726596752124 15.450187950979497 7.36288060893716
Ca 8.218064781145143 13.739847315947383 16.157807852349432
Ca 15.311738868967856 15.526402095734396 9.026861049363221
Ca 12.83673628513284 16.248383146873916 10.298868720944583
Ca 10.334841978019726 14.29796121368006 18.04945424042922
Ca 15.005592613691707 15.939712119829958 12.465007157249312
Ca 12.915026434603497 16.489575054413816 14.634147314744904
Ca 12.718025346898214 13.575546542929995 19.153755733613984
Ca 10.252704859037799 8.650892828856186 11.064973688675655
Ca 17.48825600695508 10.57391148161896 11.250811371602927
Ca 17.643137121382996 13.463920141523445 15.785759038747337
Ca 10.308717298803705 8.881493800572676 14.932183497836018
Ca 17.50329297249467 10.747251293371296 14.28151892727025
Ca 15.195945441456509 13.632716321366027 17.722333094259174
Ca 10.180794039826303 13.61653116989879 7.2776676027944855
Ca 17.490983996714718 15.502795665892346 10.994074977935883
Ca 8.10743466249749 15.61928110964394 13.9841274614724
Ca 10.199489420738058 13.49997343428987 11.154438408471407
Ca 7.978661084079986 9.157341134978005 13.001371652938296
Ca 10.269849989120496 16.200148854858373 15.863604622010998
Ca 10.280152427957558 13.683431804460927 14.23630545334097
Ca 7.54138133078416 12.770846075383687 12.790742089218439
Ca 12.817095749012111 16.094206194329427 17.67594571628971
Ca 15.425107269606597 8.372555659113885 11.497683350044339
Ca 13.119837419979456 8.388294586047115 9.911628352413913
Ca 15.415467388062563 15.951969489176664 15.947441263339348
Ca 15.424147122436773 8.560373658570699 14.42467005645258
Ca 12.707360310212623 8.512379404868124 12.98672963958841
Ca 17.52095648548479 15.698374421679176 13.945248730644026
Ca 15.052632505744244 12.986484062091298 7.587613381560698
