55
Energy = -401.82837162 eV
Ca 15.212395403824267 15.545785745790436 15.369482941938632
Ca 10.124300732873351 10.892754216598695 13.63230067687838
Ca 14.982643184815037 10.632192695418846 18.16468763875946
Ca 10.126595117483328 15.489105938132312 16.74152819929451
Ca 15.129069687715859 13.943971868234504 12.090767084418212
Ca 15.220666336164436 13.951273150842155 17.94971324076376
Ca 15.221004078817128 18.53285293385175 15.320940812846741
Ca 15.285087085132169 16.92178645062444 12.605190616699591
Ca 17.547579058894673 18.403457725594475 17.19145796536741
Ca 15.224425339942202 12.350675099634168 15.375050624441753
Ca 15.295094420316682 10.969516141958364 12.615307836992619
Ca 12.695061819944018 15.495647137799057 18.67935811720449
Ca 10.133313123844664 12.389684275832286 16.742423527824194
Ca 17.611608814198057 15.441621678938034 11.295446653188657
Ca 10.321194351894793 13.944012003753876 19.17148170494553
Ca 15.244148899236285 9.363398299842155 15.336478094797007
Ca 17.619159907755247 12.455340476280444 11.300394148361715
Ca 17.740507610035394 12.440439668649189 17.202657536792202
Ca 12.625109805965804 13.944143456931714 16.005264025149515
Ca 10.024172261691655 15.368949838436933 11.033049565940457
Ca 17.56789951634154 9.507961597535488 17.2004894449319
Ca 12.614523090820247 16.989001657299934 15.601947927955647
Ca 10.030956696738299 12.502479566556469 11.037117638742666
Ca 14.96624381143892 17.2688164843026 18.151919173856434
Ca 12.63421548820522 10.89687645564989 15.613212310179044
Ca 12.604677565991363 13.936977691302866 9.990043292325293
Ca 17.732700404761296 15.471000944392276 17.197564515755264
Ca 17.46718556750011 13.955084164096753 14.046961883526375
Ca 17.431514926955725 13.949445127304456 8.697777876670266
Ca 10.16314448985315 13.93556705075261 8.191321846450123
Ca 17.71565544107204 17.01720189944562 14.545114822412307
Ca 12.879357987652313 17.11005425961903 10.162773459376886
Ca 10.347353266657413 16.90511036762549 8.566041079682284
Ca 17.731111748786933 10.888748371252484 14.550243240815218
Ca 10.2638747335097 18.321860273978405 10.901155046538664
Ca 10.368003626081789 10.963246791400222 8.577293194628497
Ca 12.631029023124842 15.476735645250475 12.864615697199861
Ca 12.900418530128697 10.766440735155292 10.172904165612897
Ca 12.754548272486415 15.53478016579553 7.448324718329185
Ca 12.55717763029158 18.49954399109085 12.876599269371786
Ca 10.291037489316809 9.548781967547706 10.91281377043454
Ca 12.761839919231635 12.343070896405937 7.451337593309734
Ca 12.634381537601264 12.409903117585682 12.873810167955698
Ca 15.162173820874042 15.724094743532783 9.422446958393657
Ca 15.27160807459995 13.942253472346104 7.088660906205136
Ca 12.577555486762542 9.384079045614982 12.889091725168617
Ca 15.17401153246392 12.16615432858493 9.425137126334675
Ca 17.865398639879103 13.958968360708713 20.000818652018857
Ca 10.264734984077798 13.94185627727865 13.990963616676984
Ca 12.703195317629412 12.400380975443408 18.687336988719746
Ca 17.460818767926817 16.961737121861976 19.638734936649332
Ca 10.11016047282566 16.98296715273271 13.62221485447971
Ca 15.243642688641778 15.382490441135763 20.563933055701646
Ca 17.47785424002173 10.952195153995442 19.645773521245314
Ca 15.253932941990847 12.524599675061783 20.56759928252804
