55
Energy = -408.87970671 eV
Ca 8.857612349045613 11.374480077701323 16.225351572763298
Ca 15.831468931881151 13.723031692309043 11.780195351980375
Ca 14.55731817394359 9.181697715230953 15.54405933559714
Ca 11.202886471079054 11.660590455678546 9.451043776881056
Ca 15.629253884157938 13.836505086356096 14.916469241549386
Ca 14.270167665733323 14.747022905441911 7.4262171691254855
Ca 10.816573592373437 11.69225930684171 13.671686102792384
Ca 8.60035015542426 11.678276891717548 11.272384215954947
Ca 13.246005843530762 14.363638583925232 10.13862415504269
Ca 13.908381906916059 11.679917644405545 17.917002473012523
Ca 11.048280257136092 12.413536759163183 17.641309010204747
Ca 13.170447122382674 14.627634355884775 13.296474141921404
Ca 10.282324113856575 16.356887479216283 9.889710507353294
Ca 8.126825482475365 14.82991317010575 11.755411252793953
Ca 12.97923006352941 14.607781293785703 16.433273721060516
Ca 10.470914868077674 16.811650509601797 13.003683824288427
Ca 13.981323831878388 11.835110554272717 8.545682966881545
Ca 18.47172976827774 12.543985790096151 10.574832048371126
Ca 16.152394553671435 10.790099573224525 10.280704681311928
Ca 13.414134199517644 11.693065541059534 11.781743422192887
Ca 18.8829048900551 13.367377234324662 13.214720886186598
Ca 16.238513394583833 11.45590214108605 13.602119528299529
Ca 13.339693581845173 11.895451443354808 15.017736640081349
Ca 9.112606254649396 13.712088284815758 9.208879974420807
Ca 16.458603397725284 11.322561724624862 16.783154582968898
Ca 12.803629129987542 16.895170439502937 8.50654889818907
Ca 8.543099182295473 14.283425730549832 16.886581124074148
Ca 15.470847712515054 16.446748642361584 9.666418277132806
Ca 12.868403296381057 17.213178364431947 11.374056435133202
Ca 10.734078583645132 15.298571668293436 18.511125033122592
Ca 15.49217378247171 16.62420514682833 12.768727816138252
Ca 13.064239062543471 17.351919110344276 14.766890619895022
Ca 13.047514850381798 14.048437799887783 19.31923444911746
Ca 10.685571121387776 9.572933100674613 11.271769990873874
Ca 18.31778562697714 10.111480301042302 12.35726501161221
Ca 18.25214077475645 13.792237385102792 16.097964538816864
Ca 11.335184548381063 9.84950109291845 16.143970412548487
Ca 18.911893473254885 11.17484776750238 15.122131980277068
Ca 15.608764402954169 14.300527179802387 17.930077732141466
Ca 11.355030955719814 14.518047327109384 7.767900021022598
Ca 18.028878736610437 15.417371293115885 11.080090386914994
Ca 8.064636523418228 15.93660941414353 14.532420701618262
Ca 10.746489760609542 13.895037799411748 11.694752944032745
Ca 9.00256809123039 9.722596434110395 13.777833026998335
Ca 10.453848449876794 16.961275675899103 16.212742204128475
Ca 10.457751299591227 14.32701442998877 14.846324601446737
Ca 7.861000145338103 12.808604577078047 14.028952920985898
Ca 13.25643392154997 16.865712766134315 17.957653405176195
Ca 15.472776993707424 8.768886708087726 12.538882949093708
Ca 13.417722442921011 9.320860030077666 10.232018540942637
Ca 15.618703721103966 16.57104268470537 15.933279809608582
Ca 17.221652262985298 9.026786782736128 14.92824800308943
Ca 12.52328045840073 9.145974231163597 13.4264494210073
Ca 17.917925259560633 15.900864933052627 14.078705490266396
Ca 16.444151854991226 13.67778614901251 8.896633850853908
