55
Energy = -78.66345101 eV
Ca 0.2852218166067104 2.8788673704844085 9.483650605654542
Ca 2.5165717177767752 13.293161055815034 3.8770435062612356
Ca 0.5808677633170981 2.637093034166392 5.296470982015534
Ca 2.8605907883543344 0.5202454007205395 7.708313057103788
Ca 13.6625165158908 5.994222001347624 7.22770661005406
Ca 6.002513144786765 13.267367992381375 9.793841590430985
Ca 2.714611361014329 2.6432456014071892 1.488832299833465
Ca 6.011609279131567 13.153397691997267 5.838887162331
Ca 4.062954950976351 2.7302322517308313 10.957428466377689
Ca 2.9552551309416146 4.263335456547897 7.6373875815292696
Ca 2.1701412058613525 6.013092898351121 10.797924571581778
Ca 4.175116173804763 2.4673574655131145 4.776889341023023
Ca 6.00886931196343 0.5118104172988375 2.169416924941105
Ca 0.26045641119952884 9.139317073523152 9.379213229106789
Ca 2.6315202299397824 6.005432047568496 3.8853527202087714
Ca 6.005969536294575 2.437070421862765 7.901851731513765
Ca 0.5796249629759953 9.36806750629348 5.28678159501402
Ca 2.9569645910870452 7.743411208085673 7.621877757224539
Ca 6.007224841549607 2.742127738825042 12.876339708027087
Ca 9.509533702623783 13.324209663935239 3.869185923197683
Ca 3.9534197138900256 6.0082847568438265 13.63241459898298
Ca 9.162466002103582 0.517609699855628 7.711548450544352
Ca 7.941292271335326 2.7270073873451683 10.961949264731963
Ca 6.001676454922961 6.005985880747189 12.873548582366869
Ca 6.0039360559601445 4.260896906816448 2.2355061206861233
Ca 7.839260286004354 2.472415933198596 4.776266555107499
Ca 6.001671337728189 6.001462486486357 9.469702930152295
Ca 2.7129269597598316 9.371747627124384 1.4787938738246553
Ca 4.044514686997343 9.277262151743958 10.950955328193293
Ca 6.0037528515118375 6.005172496664482 5.737780443689016
Ca 2.85614168599678 11.491827852425642 7.697391077005549
Ca 4.17120616140556 9.5461495433343 4.76850097204042
Ca 9.299714969758288 2.6454251573320313 1.4874214478029189
Ca 9.05306267539383 4.262555810012891 7.642993429576321
Ca 6.003576450556265 7.759912317433435 2.2355479942704206
Ca 2.5079825281740744 12.558457776924417 3.871133040021503
Ca 6.000738727072957 9.564522694703253 7.8987647903520966
Ca 8.052021727920511 6.008004992074213 13.634381017181
Ca 11.434389189434935 2.648521002913436 5.299774078217831
Ca 9.818696913851715 6.001003115549198 10.817754026311263
Ca 11.726938998791098 2.8787490612081075 9.493217649279883
Ca 9.379311733449336 6.00685730929291 3.893899955312822
Ca 6.0033995093134145 9.277240692017388 12.87354858236687
Ca 7.938854621478375 9.270730641240107 10.9643323428089
Ca 9.055347568463452 7.744506425723131 7.640857395045908
Ca 5.998645104602139 12.57059718335286 9.805966044123785
Ca 7.839520996431327 9.535639321409334 4.776449411181
Ca 9.299254245165768 9.369192345499458 1.4885268304624066
Ca 6.006374092431617 11.503840567056704 2.1627412265936674
Ca 9.15802744311326 11.481504576849467 7.714529512912495
Ca 12.190596481367843 6.003311012998436 7.258211236440538
Ca 11.726766582840623 9.129410213485368 9.494256946237366
Ca 6.00658245009021 12.699473487001327 5.840600429560711
Ca 9.512411537670182 12.536027521290237 3.870634927913698
Ca 11.435544249732327 9.362815885102146 5.302890256184237
