5
Energy = -3.23703968 eV
Ca 5.896204084906095 9.893196561613472 7.85029214412233
Ca 9.691595126417113 4.751440131027142 8.336799679230882
Ca 8.90050771531451 8.091988848051473 6.5969318692262915
Ca 7.953287883115142 7.729362233395428 10.073850383697303
Ca 9.212479346834256 11.027407070279558 8.871036764355436
