5
Energy = -3.60826046 eV
Ca 6.301824437220407 2.6980315722343455 4.512963148137646
Ca 7.296516406361868 6.278750775699845 4.739224773104026
Ca 3.7756367172668424 5.422699368742834 4.293400615464218
Ca 5.419856345580123 4.784015657302297 7.480319831458911
Ca 4.694119879335957 8.304456057928263 6.46204541760041
