55
Energy = -409.91314374 eV
Ca 15.695736044104882 9.350802093529838 9.677310375442623
Ca 17.092852757934946 14.535559283466434 15.337884922473732
Ca 11.785290223031492 11.906486661003493 15.497725790762058
Ca 8.405616608840411 14.589123659110998 15.641705207702556
Ca 11.211822262809102 10.911286233527356 18.26812930885139
Ca 16.116609062110488 12.434110920304915 8.554745112008426
Ca 17.528740451854826 11.743404949409515 14.352760399626016
Ca 13.455467932671226 12.863990447179782 18.294528529038175
Ca 12.807667013279417 15.83062744530424 17.567076417738104
Ca 11.131459741007273 11.182950587668433 9.693418564352823
Ca 15.174135168197402 16.99517285194677 10.349731619932964
Ca 12.06800985333764 17.97305662079045 15.442810197361574
Ca 12.982538994329794 16.26766858486886 8.209071636081987
Ca 11.345276533803993 7.344002428053737 13.663970181875719
Ca 8.948255398602253 10.728675767014067 11.488123650850785
Ca 16.06163319735741 12.144025368740662 17.02079854404081
Ca 9.195933975669792 15.371169335867505 12.594537745177943
Ca 11.776595998314681 10.217155604335597 12.95607668215165
Ca 13.899843117836074 13.950525256118622 9.880714861493404
Ca 12.856303535520185 8.776807625544205 9.258309380507852
Ca 17.16827596225421 14.709979179480417 10.336608802085333
Ca 9.163789329627791 9.316122968777506 14.009525414476615
Ca 15.502280814263209 14.962298285777127 17.75019546387054
Ca 14.893491015165297 16.84606295307203 15.4928678276156
Ca 10.971372715738806 17.965878467940374 12.686600408459734
Ca 9.093213747532488 11.113718506723458 16.439591198001075
Ca 13.998270677022715 11.08189194802341 11.016287333699363
Ca 13.716183909084966 7.944158806373527 11.833135697790393
Ca 11.0334459282555 15.76348921813806 10.401635810545631
Ca 9.135178269568168 13.3374370960149 10.586852436502609
Ca 11.350738540572571 13.687145215170561 8.230388144626827
Ca 14.472730413300063 11.227067263150516 14.218506057850545
Ca 10.591158547004051 13.670954994280526 17.57100065221192
Ca 10.641455191291465 8.360084550820874 11.098771849817117
Ca 9.124474386629435 17.324752790045615 14.780266041077414
Ca 11.260622338190325 8.883714616037391 16.139528198991677
Ca 14.014702469918602 14.038707254677883 15.344839769573461
Ca 16.24986651845164 9.257600696279265 12.850743623208428
Ca 18.33755407480032 14.068207922357823 12.770334729778652
Ca 13.867074459321122 10.06506550557785 17.278677962841243
Ca 15.400206478058495 13.71305640759117 12.54708165820222
Ca 16.33891259961311 9.50261866965242 15.776729896752736
Ca 13.279291054448326 15.927183976735165 12.609973386768093
Ca 12.671338946804767 18.241128904414666 10.492345618497396
Ca 13.98104072959638 18.591672542188345 13.080669162305048
Ca 9.987366911483623 16.504523244188874 17.214553442827555
Ca 11.203893413866286 15.113273468662694 14.794305370405533
Ca 13.900306161069349 8.270109776774463 14.811973302033886
Ca 17.099793195970072 11.677981264963318 11.294162021799561
Ca 13.941354318646512 13.820651806465051 6.844233142132842
Ca 9.252531084924136 12.523675440708715 13.748239124558996
Ca 15.805828343742396 15.450941754502997 7.942833595722436
Ca 13.578002086809777 11.221911523105844 7.989224759529127
Ca 11.851559038341822 13.163445046803998 12.175031911582252
Ca 16.48802534619591 16.44200309891469 12.99797394456515
