55
Energy = -409.60600357 eV
Ca 14.466931077736534 8.276582158332184 8.286715334767552
Ca 15.95657509749089 13.326500448295546 14.135604501666048
Ca 10.49209497593951 10.964156276773599 14.250838512975319
Ca 7.207611409572057 13.1221851059486 14.589195941273845
Ca 9.985951848504607 9.769614462840213 16.959561868636104
Ca 14.90514663506561 11.275480235595111 7.303183929291574
Ca 16.27966576456954 10.517953879348976 13.090156631321335
Ca 12.24700287034926 11.74216722037302 17.04706408175931
Ca 11.588439620603094 14.626261367189835 16.24033065091615
Ca 9.709645058433296 9.591172274569328 8.187257788115389
Ca 14.086953432668851 15.940689897362125 9.206764775231834
Ca 10.88260538086204 16.546456514463916 13.808087513074538
Ca 11.756499425143474 15.150151225744887 7.307926742098558
Ca 10.139638476915927 6.034246690234916 12.329083938219812
Ca 7.538724284316961 9.199381773073496 10.070691233170388
Ca 14.869590050101467 10.93307537841407 15.731385277302165
Ca 7.403936729173427 13.788796125386535 11.51537118315059
Ca 10.406206752712277 8.942866968510238 11.484189206581048
Ca 12.795512494766902 12.85554980084356 8.830079703247973
Ca 11.656783221455193 7.504429965783259 7.932216564419608
Ca 15.996566601592598 13.547846538154891 9.193781101765895
Ca 7.833103876487639 7.687294172567393 12.351243618707164
Ca 14.3243101297158 13.778113998650985 16.47491189174803
Ca 13.798817028026333 15.658712638422772 14.188222266006608
Ca 9.157400016662894 16.238179344929996 11.366071937176697
Ca 7.826147141551233 10.261835524730005 15.290159409968936
Ca 12.737672073582502 9.87701416270074 9.706928185723964
Ca 12.464964102043625 6.687977450396935 10.477606087567702
Ca 9.681552180691563 14.38005189894475 9.456004415933855
Ca 7.9993739301725455 11.858781726070955 9.326323266282738
Ca 10.17598796837164 12.336865091589967 7.347575222310054
Ca 13.097630941750282 9.969213187987748 12.965337740166701
Ca 9.364512110815939 12.610443346941892 16.697203730957966
Ca 9.316089621964137 6.908493953511748 9.69208508924246
Ca 7.616830313675305 15.921536377516329 13.597311584043066
Ca 9.912471470671946 8.060746157198992 14.538678352023075
Ca 12.816697296679298 12.833583375950703 14.102679485744261
Ca 14.934878725048605 8.181140713161735 11.496980232666825
Ca 17.201460878557878 12.752307909850298 11.563307700668135
Ca 12.608061779342039 8.975641672328354 15.984985226847286
Ca 14.239771843921323 12.382668154873972 11.406611977525092
Ca 15.004467692139967 8.269536629542316 14.456854075319333
Ca 12.110601311294142 14.743196209901583 11.45529771308383
Ca 11.380743312620607 17.007838453435124 9.64049699801311
Ca 13.282782617297935 17.355766404897086 11.773334166364055
Ca 8.827449165846451 15.30461373995272 15.885909916525344
Ca 9.839863859773933 13.849196550663603 13.390446557779866
Ca 12.57144734575036 7.100561285929115 13.441355795163473
Ca 15.996807750975039 10.455001234023877 9.968167823644919
Ca 12.622904132804418 12.663646484802273 5.8305504443088205
Ca 7.925634482598799 10.90598227663347 12.447855578214352
Ca 14.533637426609781 14.317571995833934 6.816233293489258
Ca 12.328684521581327 9.979842067267633 6.689846103127248
Ca 10.657900576168537 11.845875765166475 10.963836748928378
Ca 15.480230347329867 15.228174916883257 11.753070066239921
