55
Energy = -408.88312255 eV
Ca 15.632073560827253 20.75101220722276 20.165152487494638
Ca 17.301484298964375 21.308956163198353 17.88973861668181
Ca 18.327150524131785 19.738992944406032 20.64369009173002
Ca 18.110426002313538 16.872516345475482 21.362341531831646
Ca 15.507233747190904 18.24335759340081 21.543447687505207
Ca 19.939224775944922 19.911530980283718 17.755907758963396
Ca 20.183019177782636 17.45627270811621 19.45003930696283
Ca 13.173550878469568 19.18053157535726 19.787633932851286
Ca 14.405860781435486 20.824084232426603 17.54722889916868
Ca 16.066132293506907 21.358313987828932 14.721879598942477
Ca 16.12450094996698 18.744428044026275 16.15937536229294
Ca 18.633139668910445 20.7685122990428 15.432821645560386
Ca 15.891200362784897 15.359660454004398 20.710067254636517
Ca 21.9726712933229 17.93805979674562 17.27129859551926
Ca 16.914306950477833 18.20446170519908 18.857534386715866
Ca 12.324485714452011 18.99048069565463 16.72810054215929
Ca 11.14823903055332 17.33999236948643 18.817280309810556
Ca 18.914619413467136 14.751191501867842 19.51181281264027
Ca 13.03934761795835 16.269588378229013 20.807330833674133
Ca 20.904237900883686 19.166158663601454 14.822121424838034
Ca 19.146657754480646 17.192606887708724 16.235931250170562
Ca 13.50749314506154 20.480753343968615 14.736974742340085
Ca 21.093486140810988 15.171267649869232 17.53480379924719
Ca 17.771877300798288 18.75622426571548 13.684105148739205
Ca 14.07825197777265 16.808803190035228 18.149475855155384
Ca 14.381692734599445 17.00825263001315 14.386489079653302
Ca 14.869718777565263 19.33855308554613 12.525939521754944
Ca 12.089736380268755 18.41207960805034 13.44957575920653
Ca 14.03076011709532 13.698136311017906 19.416960304674593
Ca 11.80892395074389 14.648379380459957 18.29251677916384
Ca 11.561655906167966 16.27126421733179 15.93142118730801
Ca 16.783065561366417 15.46506595146972 17.719326504418266
Ca 17.36871877843543 15.553461008149844 14.621615189963913
Ca 14.199183349350763 14.549038252747401 16.325705626532475
Ca 21.940681101297013 16.465818926137295 14.947667487425896
Ca 19.703746919544965 16.804625465038647 13.094705526113662
Ca 20.164741098228735 14.389075572095166 14.493262574301047
Ca 13.406410633396703 11.87584777493996 17.027112642952318
Ca 18.764281934311537 13.38529759648472 16.763987151519846
Ca 16.306519979444072 12.374815925898245 18.207719250664542
Ca 11.81505066732137 15.49803703604874 13.151991139128663
Ca 16.550140383718507 16.752104071378675 11.872525394176463
Ca 13.660607260068108 16.477028724894446 11.346977835424969
Ca 14.954041411750774 14.426354500059146 13.187077250481114
Ca 12.07056467988647 13.241130932492116 14.727152706513214
Ca 16.155260222363438 12.549442885425416 15.210273527547232
Ca 17.92414558663268 14.10859166180149 11.961227973511896
Ca 18.045622527486636 10.587855258501254 16.343037599369648
Ca 15.270081637289781 9.938321358538301 16.4901497248182
Ca 18.575254640543026 11.861078363103195 13.658660262476458
Ca 15.494541930605973 14.350529474788635 10.352955617347106
Ca 13.053816004698195 13.119416072965125 11.70957923348573
Ca 13.808195148091375 10.999540846090719 13.974094424271298
Ca 15.948597550512742 11.79911318522899 11.891109954860125
Ca 16.544163292246655 9.82457736773326 13.95368032260342
