55
Energy = -409.59337935 eV
Ca 12.303672640322068 12.303672640322068 12.303672640322068
Ca 12.303672640322068 13.89948968284743 14.884965204030246
Ca 12.303672640322068 13.89948968284743 9.722380076614076
Ca 12.303672640322068 10.707855597796879 14.884965204030246
Ca 12.303672640322068 10.707855597796879 9.722380076614076
Ca 13.89948968284743 14.884965204030246 12.303672640322068
Ca 10.707855597796879 14.884965204030246 12.303672640322068
Ca 13.89948968284743 9.722380076614076 12.303672640322068
Ca 10.707855597796879 9.722380076614076 12.303672640322068
Ca 14.884965204030246 12.303672640322068 13.89948968284743
Ca 14.884965204030246 12.303672640322068 10.707855597796879
Ca 9.722380076614076 12.303672640322068 13.89948968284743
Ca 9.722380076614076 12.303672640322068 10.707855597796879
Ca 7.3782710249504815 12.303672640322068 9.258347615389841
Ca 12.303672640322068 15.348996562723103 17.229074255693828
Ca 12.303672640322068 15.348996562723103 7.3782710249504815
Ca 12.303672640322068 9.258347615389841 17.229074255693828
Ca 12.303672640322068 9.258347615389841 7.3782710249504815
Ca 15.348996562723103 17.229074255693828 12.303672640322068
Ca 9.258347615389841 17.229074255693828 12.303672640322068
Ca 15.348996562723103 7.3782710249504815 12.303672640322068
Ca 9.258347615389841 7.3782710249504815 12.303672640322068
Ca 17.229074255693828 12.303672640322068 15.348996562723103
Ca 17.229074255693828 12.303672640322068 9.258347615389841
Ca 7.3782710249504815 12.303672640322068 15.348996562723103
Ca 12.303672640322068 17.483698033660716 12.303672640322068
Ca 12.303672640322068 7.12364614445223 12.303672640322068
Ca 7.12364614445223 12.303672640322068 12.303672640322068
Ca 17.483698033660716 12.303672640322068 12.303672640322068
Ca 12.303672640322068 12.303672640322068 7.12364614445223
Ca 12.303672640322068 12.303672640322068 17.483698033660716
Ca 13.905273818515118 8.111401716802591 14.894641706947889
Ca 10.702070359597824 8.111401716802591 14.894641706947889
Ca 13.905273818515118 8.111401716802591 9.712703573696425
Ca 10.702070359597824 8.111401716802591 9.712703573696425
Ca 16.495943563842065 9.712703573696425 10.702070359597824
Ca 16.495943563842065 9.712703573696425 13.905273818515118
Ca 8.111401716802591 9.712703573696425 10.702070359597824
Ca 8.111401716802591 9.712703573696425 13.905273818515118
Ca 13.905273818515118 16.495943563842065 9.712703573696425
Ca 13.905273818515118 16.495943563842065 14.894641706947889
Ca 10.702070359597824 16.495943563842065 9.712703573696425
Ca 10.702070359597824 16.495943563842065 14.894641706947889
Ca 9.712703573696425 13.905273818515118 8.111401716802591
Ca 14.894641706947889 13.905273818515118 8.111401716802591
Ca 9.712703573696425 10.702070359597824 8.111401716802591
Ca 14.894641706947889 10.702070359597824 8.111401716802591
Ca 8.111401716802591 14.894641706947889 13.905273818515118
Ca 8.111401716802591 14.894641706947889 10.702070359597824
Ca 9.712703573696425 10.702070359597824 16.495943563842065
Ca 14.894641706947889 10.702070359597824 16.495943563842065
Ca 14.894641706947889 13.905273818515118 16.495943563842065
Ca 9.712703573696425 13.905273818515118 16.495943563842065
Ca 16.495943563842065 14.894641706947889 10.702070359597824
Ca 16.495943563842065 14.894641706947889 13.905273818515118
