55
Energy = -404.47898721 eV
Ca 13.883771906747368 14.083158772982829 13.744987919538543
Ca 8.382852031563138 8.906057801864234 11.984347767156759
Ca 13.876727736229302 8.841182277328183 15.638435680410241
Ca 8.603221342888697 13.545684563833415 14.508820949267674
Ca 13.420938827728062 12.284796012948846 10.973056154608354
Ca 14.01826848498509 12.38500966958451 16.12713160649115
Ca 13.62139507094519 16.995795193774974 13.348326881131824
Ca 13.318917932327443 15.399713948382116 10.988172876298046
Ca 15.683863493673858 16.472682380333406 15.194205919702958
Ca 13.495946444095829 10.527513459996149 13.426519969092933
Ca 13.461521709933393 8.94507155727614 10.899946073587106
Ca 11.262406923110742 13.671537669399125 16.39477449335657
Ca 8.515053486332906 10.63929071299267 14.439015492113223
Ca 16.054820083783053 13.60545312359526 10.366691387342843
Ca 9.209172388429355 11.894358440824542 16.87054556989101
Ca 13.790370683234247 7.41305512245778 13.262579712031362
Ca 16.026441116600488 10.667125746579012 10.488414899525898
Ca 16.53883696201828 10.654391397973736 15.672876287081177
Ca 11.093016972146891 12.122891740351994 13.63339799146776
Ca 7.47527420871763 13.763853248371289 9.437562475762519
Ca 16.270031771815994 7.673523522466844 15.912787548516896
Ca 11.115206141875476 15.275539734952353 13.650586864044838
Ca 7.929100305340042 10.814375927155856 9.403561419196846
Ca 12.98961789021607 16.060858723832265 16.211005844487932
Ca 11.0201593104594 8.828748667406686 13.626469507669682
Ca 10.650870719014105 12.248666758978365 8.40986854773383
Ca 16.922467703161345 13.833879198180659 15.27258854420481
Ca 16.18131628583534 12.170387698417182 12.982665820720237
Ca 15.607904996289463 12.100070691782948 8.06753583088019
Ca 8.392919369539666 12.374225749880841 6.567072355787843
Ca 16.27925984892598 15.379891824075274 12.705750704534378
Ca 11.384826073702781 16.051565354283444 8.436503342914602
Ca 8.921536162091227 15.030919850770069 7.304463066939439
Ca 16.13334880842041 9.097605894867499 13.289641554877734
Ca 8.733933087225628 16.37146650843508 9.537138621903049
Ca 8.816482180094605 9.559354020255789 7.09725359126643
Ca 10.566441024916138 14.014038856551577 10.822914073310807
Ca 11.28642306439545 8.608811954382206 8.29421415625063
Ca 11.103613355629397 13.880968631531724 5.9791444196530525
Ca 10.76967723803384 16.940957034710465 11.323268922147342
Ca 8.759240687890903 7.950542396530254 9.393489232054895
Ca 10.946464561838937 10.849182914815248 5.814882496387759
Ca 10.79579925122539 10.351999638957922 10.923879527789257
Ca 13.38533024681088 14.068326114375939 8.286358916289045
Ca 13.423004258890195 12.21865056775796 6.170836520224088
Ca 10.854271487977037 7.339807408571804 11.188768204083306
Ca 13.248295148464118 10.530176961360505 8.488214198020364
Ca 15.670159635730004 12.459784982787037 18.470202595983018
Ca 8.329155698307021 12.172196215210308 11.933150645356823
Ca 11.56259528392515 10.434736455809151 16.16533719122672
Ca 15.507687673973868 15.098887267798068 17.471327180174118
Ca 8.143790023162913 15.272729140280378 12.03106054745503
Ca 13.175549465519884 14.301092454153721 18.6054669134465
Ca 14.711071045323457 9.873353225279168 17.95117726231485
Ca 12.470188674004946 11.734611098063617 18.602160011814604
