5
Energy = -2.55422234 eV
Ca 6.050717576762961 11.473991650333456 8.731680319058366
Ca 9.315828085816003 5.801692805216559 4.740493078869819
Ca 6.837925733963412 8.140024853785372 10.502243237273174
Ca 7.64337574422777 8.52694030258625 6.865434258387339
Ca 8.629333724732133 5.308179760961917 8.504551701297313
