55
Energy = -405.00202231 eV
Ca 12.028023920100177 12.02717578 12.02717578
Ca 12.024589909852368 12.02717578 15.112121078197038
Ca 12.026873368546495 12.02717578 18.01456071585295
Ca 14.222348954311828 10.43153277400236 13.473869156649668
Ca 14.210646542158981 10.440634373605677 16.655559783679774
Ca 6.866413006856091 12.02717578 14.81464701230347
Ca 16.319092962968387 12.02717578 15.180990359089796
Ca 6.712552824564666 12.02717578 12.02717578
Ca 16.53457597442703 12.02717578 12.02717578
Ca 12.024589909852368 12.02717578 8.942230481802968
Ca 12.026873368546495 12.02717578 6.039790844147055
Ca 14.222348954311828 13.622818785997643 13.473869156649668
Ca 11.185494406124407 14.609900063215818 13.471851137612806
Ca 9.31110838882501 12.02717578 13.470225370245029
Ca 11.185494406124407 9.44445149678418 13.471851137612806
Ca 14.222348954311828 13.622818785997643 10.58048240335033
Ca 14.222348954311828 10.43153277400236 10.58048240335033
Ca 11.185494406124407 9.44445149678418 10.582500422387204
Ca 9.31110838882501 12.02717578 10.584126189754969
Ca 11.185494406124407 14.609900063215818 10.582500422387204
Ca 14.21064654215898 13.613717186394322 16.655559783679774
Ca 11.19668570091096 14.599343292157933 16.65426401350097
Ca 9.330148079622248 12.02717578 16.652795501270855
Ca 11.19668570091096 9.455008267842068 16.65426401350097
Ca 14.21064654215898 13.613717186394322 7.398791776320232
Ca 14.21064654215898 10.440634373605677 7.398791776320232
Ca 11.19668570091096 9.455008267842068 7.400087546499036
Ca 9.330148079622248 12.02717578 7.40155605872914
Ca 11.19668570091096 14.599343292157933 7.400087546499036
Ca 10.434473520510787 7.118665947638569 14.815536481960727
Ca 16.20846335684653 9.000185053688432 14.817079956811385
Ca 16.20846335684653 15.054166506311578 14.817079956811385
Ca 10.434473520510787 16.935685612361425 14.815536481960727
Ca 6.866413006856091 12.02717578 9.239704547696531
Ca 10.434473520510787 16.935685612361425 9.238815078039272
Ca 16.20846335684653 15.054166506311578 9.237271603188614
Ca 16.20846335684653 9.000185053688432 9.237271603188614
Ca 10.434473520510787 7.118665947638572 9.238815078039272
Ca 13.356184477037653 16.10356093860985 15.176881138396324
Ca 8.558006162130306 14.547999290186544 15.177942247881344
Ca 8.558006162130306 9.506352269813446 15.177942247881344
Ca 13.356184477037653 7.950790621390144 15.176881138396324
Ca 16.319092962968387 12.02717578 8.8733612009102
Ca 13.356184477037653 7.950790621390144 8.877470421603675
Ca 8.558006162130306 9.506352269813446 8.87640931211865
Ca 8.558006162130306 14.547999290186544 8.87640931211865
Ca 13.356184477037653 16.10356093860985 8.877470421603675
Ca 10.386397868108121 6.978231275325387 12.02717578
Ca 16.31330821276383 8.904982546486492 12.02717578
Ca 16.31330821276383 15.149369013513496 12.02717578
Ca 10.386397868108121 17.07612028467461 12.02717578
Ca 13.414739934368113 16.314565407424748 12.02717578
Ca 8.372479628382873 14.678715137022111 12.02717578
Ca 8.372479628382873 9.375636422977886 12.02717578
Ca 13.41473993436811 7.73978615257525 12.02717578
