55
Energy = -75.48464819 eV
Ca 10.142400109090904 10.142400109090904 10.142400109090904
Ca 12.896711193056884 12.896711193056884 10.142400109090904
Ca 10.142400109090904 12.896711193056884 12.896711193056884
Ca 12.896711193056884 10.142400109090904 12.896711193056884
Ca 10.142400109090904 12.896711193056884 7.388087025124847
Ca 12.896711193056884 10.142400109090904 7.388087025124847
Ca 10.142400109090904 7.388087025124847 12.896711193056884
Ca 12.896711193056884 7.388087025124847 10.142400109090904
Ca 10.142400109090904 7.388087025124847 7.388087025124847
Ca 7.388087025124847 10.142400109090904 12.896711193056884
Ca 7.388087025124847 12.896711193056884 10.142400109090904
Ca 7.388087025124847 10.142400109090904 7.388087025124847
Ca 7.388087025124847 7.388087025124847 10.142400109090904
Ca 15.55322705266526 10.142400109090904 10.142400109090904
Ca 10.142400109090904 15.55322705266526 10.142400109090904
Ca 10.142400109090904 10.142400109090904 15.553227052665257
Ca 10.142400109090904 10.142400109090904 4.731575165516482
Ca 10.142400109090904 4.731575165516482 10.142400109090904
Ca 4.731575165516482 10.142400109090904 10.142400109090904
Ca 15.555533524383323 12.857874099028876 12.857874099028876
Ca 15.555533524383323 12.857874099028876 7.426926119152929
Ca 15.555533524383323 7.426926119152931 12.857874099028876
Ca 15.555533524383323 7.426926119152931 7.426926119152931
Ca 12.857874099028876 15.555533524383323 12.857874099028876
Ca 12.857874099028876 15.555533524383323 7.426926119152931
Ca 12.857874099028876 12.857874099028876 15.555533524383323
Ca 12.857874099028876 12.857874099028876 4.729266693798628
Ca 12.857874099028876 7.426926119152931 15.555533524383323
Ca 12.857874099028876 4.729266693798628 12.857874099028876
Ca 12.857874099028876 4.729266693798628 7.426926119152929
Ca 12.857874099028876 7.426926119152931 4.729266693798628
Ca 7.426926119152929 15.555533524383323 12.857874099028876
Ca 7.426926119152931 15.555533524383323 7.426926119152931
Ca 7.426926119152931 12.857874099028876 15.555533524383323
Ca 4.729266693798628 12.857874099028876 12.857874099028876
Ca 4.729266693798628 12.857874099028876 7.426926119152931
Ca 7.426926119152931 12.857874099028876 4.729266693798628
Ca 7.426926119152931 7.426926119152931 15.555533524383323
Ca 4.729266693798628 7.426926119152931 12.857874099028876
Ca 7.426926119152931 4.729266693798628 12.857874099028876
Ca 4.729266693798628 7.426926119152931 7.426926119152929
Ca 7.426926119152931 4.729266693798628 7.426926119152931
Ca 7.426926119152931 7.426926119152931 4.729266693798628
Ca 15.498230404544955 15.498230404544959 10.142400109090904
Ca 15.498230404544955 10.142400109090904 15.498230404544955
Ca 15.498230404544955 10.142400109090904 4.786569813636705
Ca 15.498230404544959 4.786569813636705 10.142400109090904
Ca 10.142400109090904 15.498230404544955 15.498230404544955
Ca 10.142400109090904 15.498230404544955 4.786569813636705
Ca 10.142400109090904 4.786569813636705 15.498230404544955
Ca 10.142400109090904 4.786569813636705 4.786569813636705
Ca 4.786569813636705 15.498230404544955 10.142400109090904
Ca 4.786569813636705 10.142400109090904 15.498230404544955
Ca 4.786569813636705 10.142400109090904 4.786569813636705
Ca 4.786569813636705 4.786569813636705 10.142400109090904
