55
Energy = -408.44996525 eV
Ca 11.636295737395434 11.834058095849766 14.378926176435693
Ca 13.41954734625539 11.949619774350936 11.628116187548999
Ca 8.55937928638999 8.643070224895693 15.940113697484154
Ca 6.979464244429173 9.324295016689128 13.734373560404784
Ca 11.788277431674274 14.46059830165885 12.333989835511003
Ca 14.820005018874607 8.729714836479518 15.881824232793495
Ca 10.25843760912534 14.49457079111999 14.952265093596978
Ca 14.95981518117333 9.379826586901485 11.06446299428957
Ca 10.18134374399459 11.109606473041714 16.90562559709704
Ca 13.111653755048467 9.22217199320301 13.600001548581655
Ca 15.032526766555884 14.556309695571453 12.732114957566713
Ca 13.163828546778792 11.180580026882762 16.89016528408608
Ca 8.448291226270436 6.941960318101217 13.228263851193244
Ca 16.38852711696545 11.896087442015917 11.779675150254931
Ca 11.651907990439401 14.418498090812404 6.766460900540208
Ca 14.910822302354374 6.992791688366478 13.172004638182711
Ca 8.202828778499288 11.824118704956662 9.032613553976867
Ca 13.24073963401462 11.882089991845351 6.5902759751090905
Ca 10.231483045900594 9.189086906034325 13.615965071230805
Ca 9.60171293999061 9.240288811990046 8.301072078069117
Ca 10.044411880051207 11.921607187620992 6.6690769943876615
Ca 8.619470024942956 11.745373728438272 14.3632556840601
Ca 11.664875238929302 11.484290971242508 9.071336971865945
Ca 8.460338473686093 14.589782438330893 7.58671848316666
Ca 11.671761410333117 6.411475382515668 12.78408976264762
Ca 16.119224423485655 14.338474867380604 9.987563068723313
Ca 11.614971261635798 9.48064504509724 6.3044488985781335
Ca 14.76807689905998 11.769951462538742 14.338424262103933
Ca 10.239924423533202 14.225258640511472 9.726661428232946
Ca 14.779089697385604 14.33065357036973 7.303643929671605
Ca 13.167399945711777 14.360020971539708 15.062266019478448
Ca 7.0280140298240115 14.224070297097839 10.073899807413365
Ca 13.078629161225784 16.888113640073705 13.241848028174989
Ca 16.370434228982322 9.383291592778434 13.649978366361335
Ca 13.682276771312711 9.216401223070314 8.273432044427452
Ca 10.081538337916744 16.87178090509145 12.991685197028474
Ca 10.003738539317538 11.928944167304165 11.675482836450636
Ca 11.643371537068466 7.225136210843656 8.029584307070383
Ca 11.65882960665808 17.256729613889874 10.61184501165616
Ca 8.372096516634 14.537839634536308 12.610058346798185
Ca 13.11834284714861 14.106165825615935 9.602498240079322
Ca 8.61962129833116 16.597647674779402 10.273073940904776
Ca 11.663877881330311 9.387480496025816 10.839726412754908
Ca 15.1773950570401 11.782101490698343 8.928936978840019
Ca 14.540382468980296 16.65389352065811 10.707024591222718
Ca 13.261338569415205 6.9426408513436035 10.410252635798019
Ca 13.13570510058427 6.492761645660032 15.306929586020555
Ca 10.324265366819704 16.766724436994195 7.9638153745934375
Ca 8.392998821854144 9.363582328588487 11.129372812348727
Ca 10.260650269977221 6.450601683702202 15.342428726537483
Ca 13.173942593449834 16.65897234952491 8.081872988869733
Ca 6.9886069083013584 11.838930656798471 11.88902490348722
Ca 11.692502091631917 8.728331906962827 16.558001058172508
Ca 11.569971657678998 13.509343901990956 17.316062849674374
Ca 10.097856457631764 6.934453409619338 10.440186568445341
