55
Energy = -408.87946277 eV
Ca 8.758173372515468 9.100833131220284 6.617835386660718
Ca 13.779592364044436 7.390048499306652 10.559454547635708
Ca 10.975653296826573 7.276526264352014 11.244479929169897
Ca 10.029308812452312 11.08324899716283 8.532950948261291
Ca 8.914061947509696 13.91032832784963 8.408797945074006
Ca 11.13602365672032 13.219690940453617 6.31818312362418
Ca 8.560988282773085 11.924896102779094 6.016360395503807
Ca 6.608959702201314 11.710902385579683 13.34208221276278
Ca 12.43621883094269 9.35924585586032 13.161968878737925
Ca 11.767983919465786 13.193412082002807 9.61553961217369
Ca 14.402427207285047 11.475409738511896 12.929325484141716
Ca 13.061166969868424 6.789837984276901 13.727074432322363
Ca 7.082534173103739 10.967021279342644 8.320010697689842
Ca 9.054695119266631 8.782450739210512 16.41199153898115
Ca 7.33121321741283 8.894482133654977 14.02526862864494
Ca 17.55361479891954 11.956221441962372 10.582843853728455
Ca 14.089484276468394 14.970518169262922 11.957106487454046
Ca 16.160514485433325 11.59386919554893 8.08613729450744
Ca 9.049766387406043 12.913026217385328 11.344024725478564
Ca 6.717763438655667 14.43448555634347 12.924772917633065
Ca 8.345076791463201 8.29992370706134 9.22682102885413
Ca 12.11587330946412 16.007458809323637 13.709911486832949
Ca 11.018967360751166 10.302946906463651 5.689759558531286
Ca 17.150278443087355 10.558228874318504 13.113665320825527
Ca 14.54282161694767 12.551325464319062 10.213184872982515
Ca 16.382375495205416 14.516833997015702 9.569663536881363
Ca 11.550612764094227 15.59459216796064 7.826838004605172
Ca 11.72848062055433 13.0758084023957 12.86221294487058
Ca 10.020750220966246 10.954291485897377 14.448357781135867
Ca 16.001864719117634 12.02986056521871 15.355296143069573
Ca 15.475676875895166 8.141594018764291 12.781463395856063
Ca 6.6095490023531465 9.826927928592722 11.120353765016052
Ca 10.069110786176001 11.509907238489872 17.18598664265688
Ca 8.269486974082964 13.500704587202732 15.316006473419383
Ca 9.564255861673809 9.856053035627484 11.560850079316038
Ca 14.364094340835152 9.004126927751972 8.117206121282699
Ca 6.387332054279813 12.99083314930068 10.414462744999195
Ca 13.038934254475278 11.307872568081214 7.524474585583861
Ca 16.56297175323204 13.585954475869698 12.78150903536796
Ca 8.041171922076447 7.273907437041912 11.831376532807118
Ca 14.946309494199593 9.334959306037069 15.198315464034806
Ca 10.089038249465533 7.600535819304915 14.01149412912318
Ca 11.885046629904489 8.963176800716688 16.063117246828686
Ca 13.747422283620791 15.927827100990214 9.407014661934792
Ca 11.011265164389997 15.585564343761384 10.910680957369573
Ca 7.9984355457123115 15.594373993130686 10.730827906170449
Ca 12.93742597447315 11.651784569148687 15.73605808683584
Ca 9.38276631553876 15.48876457077458 13.463338587321592
Ca 14.220374513424533 14.001863894423916 7.38413217740334
Ca 11.08458525211323 14.080393600217715 15.700353268011126
Ca 11.388827690425103 8.509575751717817 8.347338451399496
Ca 15.9860004119321 9.496025059907197 10.405380832169623
Ca 12.558007139281159 10.227583345475573 10.436910083802365
Ca 14.085602399399797 14.124556780446273 14.766933005944617
Ca 7.376596958701391 10.98494172376788 16.070029495154873
