55
Energy = -405.89137599 eV
Ca 14.437580008865044 14.754284979891949 14.194515515187003
Ca 8.908041881647497 9.717845052726501 12.632542161676673
Ca 13.675605417320723 9.389486802149381 16.7935628590883
Ca 9.31860439439032 14.260350687328584 15.355876126622272
Ca 13.844583091536864 12.88793947673379 11.383194999811115
Ca 14.483879703288576 12.918988727676796 16.59787754209743
Ca 14.31002805579411 17.696909651298743 14.074192686944896
Ca 14.016566976792717 16.3010817339079 11.646090463686308
Ca 16.376192366558858 17.191768551206597 15.995254317119938
Ca 14.380945898695897 11.011358744774492 14.13504681366931
Ca 13.975579575284074 9.436694640725014 11.578858574400869
Ca 11.76180083264303 14.26818536121089 16.963858035764723
Ca 9.177831718855547 11.46637634481012 15.270582346135317
Ca 16.418197498457076 14.429345503863894 10.967158126680433
Ca 9.360789269125847 12.83785265239553 17.971897294951564
Ca 14.242421370605342 8.055808849364592 14.036000193974841
Ca 16.39392509863216 11.31841187666076 10.93155207492622
Ca 17.13473410949309 11.31276036157502 16.00455977606119
Ca 11.83511033585018 12.917001197396162 14.060850543057915
Ca 8.446827979046217 14.439439308191538 10.063715023449532
Ca 16.27987923591221 8.513836017307902 15.978002518198846
Ca 11.705676684748768 16.00472647976463 14.30985895273488
Ca 8.381511871760082 11.37724337074896 10.062916949830042
Ca 13.758609946512555 16.3752360061877 16.868221961028787
Ca 11.645247483052863 9.79334306829183 14.204921100065222
Ca 11.37838306457267 12.852357149315068 9.033219094308974
Ca 17.269979876358466 14.431358897951203 16.033572134740545
Ca 16.645423458459593 12.868761284640698 13.42975623767748
Ca 15.980430519522598 12.910301470464498 8.753951164878426
Ca 9.216864730370359 12.889074074142789 7.260539997053684
Ca 16.900123285345654 16.069363688227746 13.469136239061953
Ca 12.220038483094712 17.319419108912214 9.458223417630741
Ca 10.176096455136141 15.62983618750499 8.060476243983286
Ca 16.831380679479008 9.642028919941946 13.43704036850282
Ca 9.411326163274163 17.226734796130366 10.209234037368002
Ca 9.936126649057872 10.125872165051906 7.9841235369114285
Ca 11.330892937667878 14.909491005786915 11.274803917671324
Ca 12.14911071838127 8.53943469560598 9.295843375829804
Ca 11.772501116806842 14.254123555322058 6.29738292674476
Ca 11.38335030317803 17.851404663923923 12.163068901128382
Ca 9.380982609123693 8.56610360972399 10.120581501819201
Ca 11.80169783505058 11.327813733742822 6.390866429415786
Ca 11.290575871088555 10.852296469758292 11.256595393472633
Ca 13.682073882750373 14.857918150857238 8.88032356402753
Ca 14.11152983451586 12.85610871126836 6.735283427926419
Ca 11.350968177000318 7.909760289069661 12.045310609329901
Ca 13.790309635491736 10.910493820171613 8.916269788323588
Ca 16.47715680937732 12.846822431442217 18.73800506853613
Ca 9.166779463354402 12.872280853053436 12.584336548612512
Ca 11.622511094475481 11.410513777120876 16.795057149722144
Ca 16.156732290915446 15.713297671942843 18.32992811133399
Ca 8.968187360008262 16.016732829703344 12.70369388077062
Ca 13.84458906018405 14.373400196465669 19.16014187563335
Ca 16.02617361858485 10.023092189515125 18.3074110774201
Ca 13.693722621968675 11.503717566517768 19.03090643246555
