55
Energy = -409.19824993 eV
Ca 14.211743136121662 8.166826677914791 7.929254373665481
Ca 15.955927460349017 13.134469989298772 13.937981939825814
Ca 10.155511116346052 10.976666611018683 14.060927567103198
Ca 6.9703117242552795 12.88505416114927 14.349931258512271
Ca 9.7507956165572 9.79349112128863 16.777495279089145
Ca 14.631504319927483 11.167522202259034 6.8894482007218665
Ca 16.206024804497943 10.210997240614676 12.85968470908529
Ca 11.948959014588475 11.783519955976244 16.73710796278345
Ca 11.420035201192029 14.67830549487918 15.717907627108694
Ca 9.394709477919688 9.204084377540045 7.921848793192718
Ca 13.946424772377203 15.693743976667054 9.185851132060922
Ca 11.295609497388865 16.71987966941695 13.4702870965452
Ca 11.425777333840912 15.000174202395625 7.671404502408838
Ca 10.046720818736873 5.778096262740138 12.10833122808908
Ca 7.169576366817001 8.575334952122663 9.810990784802167
Ca 14.653960576445003 10.790502766008219 15.353417819258226
Ca 7.111674622229048 12.892802586664462 11.360988901815952
Ca 10.07108330228014 8.695770474403934 11.120747163767305
Ca 12.761756367677116 12.653468243795569 8.863714881928727
Ca 11.469492603088224 7.274065661863994 7.667857192441383
Ca 15.845677335575445 13.238866188723902 8.943033564417474
Ca 7.654642007706886 7.143211528732862 12.076412943714185
Ca 14.144655461759074 13.593676537955734 16.237296710217542
Ca 14.028881888268922 15.496468768706482 14.047043185144732
Ca 8.981395939676483 16.517721804109737 11.899251656173814
Ca 7.582967711796643 10.139506415775033 15.269707121807773
Ca 12.47289677100388 9.692942515030966 9.491088105946599
Ca 12.313726307132345 6.53724206342881 10.221975202836457
Ca 9.401805568088143 14.202764581141603 9.85599537717593
Ca 7.773111258342965 11.224512928248 9.280883721063196
Ca 10.02573268846112 12.081052852690627 7.668148725814236
Ca 12.804625592416363 9.762671198636594 12.62886502710144
Ca 9.108408253744216 12.81276121344728 16.280317451577567
Ca 9.175764219967782 6.468385943909373 9.437554714859067
Ca 6.732737031090278 15.229818624438012 12.719417687014978
Ca 9.664135806489908 8.092060372844946 14.171378845863655
Ca 12.600957793307924 12.689112079236091 13.892555217216945
Ca 14.718751992765439 7.986135452031979 11.222224501027474
Ca 17.190401230280077 12.393765171617202 11.318955583900795
Ca 12.288276117618917 8.97619032081117 15.55077005691412
Ca 14.253583226603807 12.174138537922337 11.454255923039408
Ca 14.762161830508886 8.105472651651649 14.179456178219189
Ca 12.122986038408806 14.533446340713574 11.423066982987592
Ca 11.286935284786074 16.992826146370096 10.199541614225332
Ca 13.632870055976843 17.16073807814755 11.679061804062284
Ca 8.59849775929824 15.70754532173501 14.890626043922177
Ca 9.580152560032264 13.776338457701994 13.073856691781081
Ca 12.451114075252413 6.841952671449241 13.152922373339559
Ca 15.635211702702724 10.319414495770806 9.629128120849364
Ca 12.180695436019871 12.668313404785927 5.893702748675882
Ca 7.67840645851627 10.268772607873867 12.35585772989762
Ca 14.205672233389482 14.201903721122509 6.724057689091094
Ca 12.001225483262743 9.847075606045635 6.500640709664826
Ca 10.460638735873525 11.682049509362443 10.904078299387622
Ca 15.657225011240069 14.980894259812484 11.54621827686395
