6
Energy = -4.19676445 eV
Ca 4.613059608852661 8.208138456951508 6.259820783056086
Ca 5.161617484850609 5.167482920400398 4.1447246049486886
Ca 4.704491974538739 4.793052537591194 7.797406157037422
Ca 7.840583812432551 7.752017524329395 4.747671842099007
Ca 7.932018588855106 4.336942055121654 6.28526306859094
Ca 7.383446101613369 7.37758428181215 8.400331115411374
