7
Energy = -6.24320725 eV
Ca 6.669609093742015 9.34408149134116 5.856859332037565
Ca 7.840444906948045 11.575921248478284 8.731086947844013
Ca 9.96536621154483 8.810347656865423 7.467490293421478
Ca 8.000424496871648 5.814104107791488 6.481701316552834
Ca 9.927063730912348 9.43722197282197 11.118447971847143
Ca 7.030970487001145 8.008619665642708 9.306009731750356
Ca 10.033848745033971 5.872809785180893 9.722118808307583
