7
Energy = -5.52089474 eV
Ca 11.42774133933858 5.927869987171398 6.749840742571772
Ca 9.304893258831944 7.099252027593539 9.542970861520695
Ca 8.339387359919328 10.491739095905508 10.539098086662031
Ca 5.6857507874080175 7.671234387367526 9.692746204538054
Ca 6.859357677699053 10.060099334772994 7.344264282969505
Ca 10.503248702174828 9.485891872841401 7.201607579569039
Ca 7.80853782814559 6.623486451797649 6.357911126233524
