7
Energy = -5.73696882 eV
Ca 10.047404930837663 6.037748832469946 9.37345584081445
Ca 6.694199787004534 4.526726545522225 9.742177501868646
Ca 9.838140119583926 9.041078678541831 6.846649143361383
Ca 7.8647738040754005 5.83915730777013 6.375266583538775
Ca 7.02513223882443 8.215749261431302 9.002483838882751
Ca 6.392211896291517 9.372562655329194 5.498261254761623
Ca 7.533817744332819 11.826230989705298 8.015310082257324
