8
Energy = -6.77871725 eV
Ca 9.767040430026247 7.557738278844116 5.820200790828764
Ca 10.312783318672947 5.853985629989718 9.144522054587933
Ca 9.378042064345912 11.244903403616226 5.497615332853039
Ca 6.865394049991478 5.543384401755276 7.606700967724975
Ca 3.946858558531568 7.480510734340371 8.870739218936501
Ca 7.270494218026867 7.598708451494002 10.542393193956299
Ca 6.673457620726601 9.357956274661648 7.191838957591137
Ca 10.174249541807797 9.626349059855128 8.754444021236909
