8
Energy = -6.83001212 eV
Ca 6.1493146683164825 10.417289214710854 11.265387367213785
Ca 8.786734864986103 9.26871972457381 5.56025417936179
Ca 7.255245306001993 6.875100744042696 11.122494808001255
Ca 8.861672972669341 6.239572491229433 7.577906604032643
Ca 9.287830721857878 9.46966804359029 9.382302863889478
Ca 5.923724722256332 8.477526029345617 8.02863521135743
Ca 6.259531102080178 6.593950407340507 4.800154593908007
Ca 12.05448117621169 8.291563463043797 7.140144550449943
