8
Energy = -6.82281372 eV
Ca 10.32016977255251 6.878775317752286 5.633774531469167
Ca 11.414807903550788 9.02088427774029 8.263593425586842
Ca 6.907834576497322 5.8851102673338165 5.451419641520685
Ca 8.301381709831272 6.78063183096884 8.998305309129536
Ca 9.0773709498308 10.238244406245073 10.654769587192293
Ca 4.574872644189645 7.07056302350416 7.870958877661359
Ca 7.6757027454221705 9.367210183482412 7.091167511451528
Ca 5.6476110039508205 9.293285903522248 10.434445663587923
