8
Energy = -6.79181588 eV
Ca 10.057203085284733 6.762308860875522 6.996639771137325
Ca 11.857552417244992 9.838350373478697 6.285097176668871
Ca 4.798657465603701 6.0062490195040015 10.306713657755123
Ca 8.890023695571772 10.006210997538723 8.443376778102724
Ca 6.387458367239686 7.587518155217572 7.396906720467505
Ca 8.31464176055593 6.901028832329363 10.52422004579364
Ca 5.697854804165368 9.55548919117682 10.477284622660456
Ca 8.53873470509388 9.361273088244578 4.794446324294304
