8
Energy = -6.69770312 eV
Ca 8.513023429521466 5.497566199464664 8.24463152193449
Ca 4.908311804298254 4.972141707824214 8.237636354552157
Ca 10.086721518631789 8.452558084633592 6.335010110422837
Ca 6.2917989781052714 7.75620386091855 6.332472541113162
Ca 7.845550169908002 10.800711891655281 8.115732923740733
Ca 6.265912513021654 7.844007808675909 10.026884458344675
Ca 11.454417916367891 11.320654163150607 8.125654469682715
Ca 10.061956289900836 8.540548762764066 10.030571612417447
