9
Energy = -8.2591005 eV
Ca 8.975275855543984 4.824434576331237 6.191060508541662
Ca 11.883285629124176 6.932607185997394 6.590301327077621
Ca 11.306069816415942 10.069726082383786 8.291253498019067
Ca 8.523283655798153 8.634194420903093 6.073413678790454
Ca 9.258713871128196 6.998019117530533 9.341170318624673
Ca 7.742676787920807 10.351913552208456 9.236410836596177
Ca 6.016886994419961 6.469210753697334 7.679969403501732
Ca 4.787188881810544 9.795562189831756 7.32200587478062
Ca 5.581819704992742 8.02588366905052 10.857472019876498
