9
Energy = -8.09119968 eV
Ca 6.31574446066919 11.990927029353447 10.551511969848024
Ca 7.656456655645418 8.4117936043458 11.40034418836591
Ca 9.45958657385322 8.95017511733197 6.618066842818656
Ca 7.861409096662684 6.012768363597236 8.422072087011909
Ca 9.640804126470629 10.974503848605423 9.650416128493257
Ca 6.16836023483126 9.320019981355284 8.15459900659356
Ca 11.00654558279961 7.511134474024803 9.775834073128182
Ca 7.666494956771165 12.422796238165516 6.939163179980787
Ca 11.057193674133673 5.604545423273785 6.608784142728279
