16
Energy = -4.99833061 eV
Cd 7.495042250930409 4.963461230239549 10.144289920990245
Cd 6.959923006764603 2.903014739306264 7.715351695339755
Cd 8.604964296407234 7.722731901819684 9.158964395066533
Cd 9.352761445765381 5.061438007336266 7.691192980381383
Cd 4.665168706844007 4.064141862528244 9.374217283238655
Cd 5.519915107889324 7.0565245350539 8.919963064221724
Cd 7.443212230309186 4.345595760539207 5.050144668248091
Cd 8.879319497365788 10.418105316341322 7.656709229211522
Cd 4.765079882838788 5.1213992467167175 6.49742283416763
Cd 7.402819826981184 6.985779971647304 6.386909682624867
Cd 4.505808145381387 8.225463447622545 6.330338286476568
Cd 7.908880585795662 7.322475928999761 3.375709026366356
Cd 7.005350279050105 9.807790154258358 5.231689754939947
Cd 5.507901706622155 5.296950898395554 2.8828338334307158
Cd 5.002666526232451 8.427833552930274 3.288818483851554
Cd 2.9850054588396993 6.2811124002824155 4.2992638154619645
