12
Energy = -3.02200352 eV
Cd 6.014865116581572 8.547425436700713 6.650966622821344
Cd 5.326945369807732 9.321517819415384 9.51079379529845
Cd 7.940950121059083 7.69568933281846 9.610769816556953
Cd 8.129727685770717 10.540276002082893 8.317614959619888
Cd 7.312543865872817 6.654245477506595 4.604619531652883
Cd 4.206695302091207 6.244141342565272 8.188293086717367
Cd 7.455875497472216 10.020058186978089 4.201738895693337
Cd 7.277181507400353 5.3434816804539444 7.4338830951741715
Cd 7.92985863347465 4.705911428604508 10.451205722819749
Cd 11.17165097086565 9.129111711506129 8.523051951930789
Cd 9.353516511191302 8.287350293436402 6.204682808282122
Cd 10.179778021558802 5.92336496115278 8.511674638993426
