13
Energy = -3.45071483 eV
Cd 10.648225697495246 9.452231439776334 7.110102147702898
Cd 12.09894955546868 7.652456176203694 9.257524416637805
Cd 10.649101918429857 5.936865087183391 7.042469362409626
Cd 13.034946159537014 7.712189876471018 6.2190731582486505
Cd 4.877310533320481 10.323669032321584 6.806529167790534
Cd 5.479959366635651 9.248905433260104 9.773285030525958
Cd 3.6124155091588013 7.682153868096191 7.710325206704015
Cd 5.480227448755491 6.062772944585845 9.72668158019553
Cd 4.881201212367033 5.071416959563758 6.7297158436487505
Cd 7.640240692275809 9.246237302017601 7.257447135810482
Cd 8.1272251252715 7.653204661344486 9.848797419998574
Cd 7.6417501685796445 6.140851845069671 7.20942452596224
Cd 5.73351103179942 7.7217854593034945 5.21336508956266
