10
Energy = -2.22520928 eV
Cd 11.827855575742438 6.396259033940379 7.423143639128692
Cd 8.014670893685938 10.115643103374218 9.27656430690125
Cd 11.275214233582165 9.572183564937054 9.139166888180156
Cd 9.398833217680082 6.893843554323781 9.444611177654098
Cd 9.518957994400655 8.443305529490845 6.580549969495452
Cd 4.742092155090814 10.07124266207962 9.128566020039655
Cd 6.727776195264554 7.7449287893093715 11.110339603019154
Cd 6.424424059234213 7.670299228083822 7.85966101179719
Cd 8.418852555301973 5.376739368121052 6.686249518749271
Cd 6.963192554628822 10.484289824283543 6.248272057869162
