10
Energy = -2.11129741 eV
Cd 8.038415102958083 7.901146035926825 10.370340965291215
Cd 10.80772457670951 9.339964797463209 5.8380001534161385
Cd 7.101729611785003 4.589329996437867 6.349350298012163
Cd 10.111898565166245 11.183210992566385 8.52664217175708
Cd 9.600950352566654 6.385910420652746 6.366481677876987
Cd 6.162223684584245 5.5723025195872316 9.13388615552473
Cd 7.037866337647349 11.03064119181253 8.807403921117285
Cd 7.247174158497529 8.274926583889552 7.205037937564917
Cd 10.80728261019342 8.032155281799348 8.705890285976269
Cd 5.155742295657475 8.560424659779612 9.534653098899991
