19
Energy = -6.22673215 eV
Cd 8.908242394913744 8.582665479283918 9.443409890634591
Cd 7.792010274328786 6.5604254408444715 11.651224964609716
Cd 5.993727200506741 7.566334010072465 9.506510255887129
Cd 5.634691962613418 9.250638268640646 6.893609503360567
Cd 8.56573249958809 10.146444577572371 6.921697983522236
Cd 3.6817834522075183 7.059471210187317 7.83444341613967
Cd 4.437712192658068 8.982755189886944 4.067049812238361
Cd 8.704428035105357 5.430932834753675 9.002784572472775
Cd 9.444322175655852 7.146291428085252 6.441829379484667
Cd 7.471473484713597 8.372694884439293 4.415723868569306
Cd 1.389897969380996 5.169067724270065 7.5385384774456
Cd 9.243687538844789 4.0372747987815085 6.461059279440573
Cd 2.4275395197300518 7.0394638348319605 5.031843697658144
Cd 6.4593933555024385 5.836523175254052 6.910779337506003
Cd 5.673710890572816 5.962688320271065 3.7919037336082204
Cd 3.8483390164727553 4.453430307140202 5.823047377521714
Cd 8.921548405556212 6.045986412953997 3.3666507814996813
Cd 6.417401930564347 3.1883790649555066 5.199437831233254
Cd 8.92912726758188 3.1133026042724286 3.6432254036649394
