19
Energy = -5.96412249 eV
Cd 7.463479322085596 7.598955182675246 4.86074247655982
Cd 7.530734714454739 4.755371944278039 5.748555963379006
Cd 9.988592798746303 8.775435052420443 5.732720676711535
Cd 5.752849411305887 9.714461154309221 5.977820808250387
Cd 11.258314732514222 6.769817345482186 7.754590898592077
Cd 9.315920189104844 4.582316569081831 8.106862956960526
Cd 7.073099015494246 7.068874870989473 7.951551885879852
Cd 9.891823489148074 11.540969390995668 6.963238399395717
Cd 7.043961634253295 12.188967908768984 7.0490671533417935
Cd 6.903932674077918 12.881605702294124 10.016168110779784
Cd 6.49248832525441 9.918704805195478 9.142172265420136
Cd 11.256229616481653 11.384907070888588 9.705573135597845
Cd 9.445192786165304 9.08791891589111 8.751633726665002
Cd 9.27801658574456 12.318926740228076 11.68618744739308
Cd 12.101726446282832 8.460757989851588 10.110241017528086
Cd 7.6486750907814915 7.781347001905145 10.914192454699435
Cd 8.915225104881124 4.9194871117029075 11.000955915577082
Cd 10.471463750611484 7.227305476994408 12.198921778683276
Cd 8.85177226404192 9.707367717477652 13.012300880015882
