14
Energy = -3.80805641 eV
Cd 10.946417435267536 5.273921971325798 9.283948322397823
Cd 12.534196482467566 7.762716808464275 10.348971805906611
Cd 9.98572182514769 6.944211410538336 11.837545164632354
Cd 8.694117486348066 7.2851012780669775 8.801544951359507
Cd 10.898466156934804 9.915759866106413 8.754903065025184
Cd 9.72610668429903 8.639533575347464 6.300162093343305
Cd 6.904309391090406 6.605175773290883 11.25822256547527
Cd 10.905408612946342 10.229693423533114 11.75744622452453
Cd 8.94445408674482 12.727121123895323 7.147210431511673
Cd 11.875835715453015 12.778419899090872 8.35064341779826
Cd 7.509238914604581 9.968174247574812 8.000864321189093
Cd 7.971104737995195 9.53686192578943 11.127448057688337
Cd 6.296400850378045 12.520156965303643 8.985332836131821
Cd 9.18767357144213 12.445077941094587 10.249098412413682
