10
Energy = -2.16632413 eV
Cd 10.984461979543852 5.897073835041895 10.373318254326966
Cd 9.79070403667449 6.897082756694165 7.560507536796073
Cd 9.252601679273596 8.698537489769201 10.432084891239382
Cd 5.60326975595957 10.68170674010272 6.19130580673788
Cd 8.81131615813755 10.06177494210337 6.7012177568845575
Cd 6.343503495573916 8.585701879167555 11.948800620676078
Cd 10.210975865437936 7.973135010779781 4.558497988408488
Cd 7.112625210899117 7.634585354624123 5.884697762177148
Cd 7.62664878826378 6.154355715068116 9.865832100240594
Cd 6.258781989594141 8.86871757579008 8.756892725559783
