10
Energy = -2.33623324 eV
Cd 8.699362385314622 6.535503464696954 3.490812116736654
Cd 6.370349728471654 7.33666274025866 5.503239193484655
Cd 9.393743583455375 8.13172442275541 6.147438700195983
Cd 8.448257978442708 5.129749051944116 6.402706690727942
Cd 4.199861441052811 8.498470028958016 7.3461931406328915
Cd 9.874253340315574 9.998650474586533 8.54939820826987
Cd 5.973500181331644 6.148509486588956 8.586571958750866
Cd 6.875478123572152 9.235879722766283 8.741693770648537
Cd 9.10859586448166 6.977295990046208 9.254745445490707
Cd 6.6782098343263705 7.629167078163161 11.59881323582674
