18
Energy = -5.70101164 eV
Cd 7.038598306818388 10.05700206062621 7.3904786966947045
Cd 8.608026239338457 8.174343220059331 8.977303383006518
Cd 5.807981716948161 11.70004569541683 5.229022118861682
Cd 6.099784036827042 9.041925361642527 3.896295789720086
Cd 9.445245744091874 5.1112551760603315 7.690988633688596
Cd 10.01447544416033 5.999645024132273 10.433638903591586
Cd 3.932057992779116 9.53900803299401 6.377017046737435
Cd 7.65575104850633 7.1600113297946155 6.050344057504864
Cd 5.382920621240014 7.647997737917603 8.504642356973404
Cd 7.0353757056050465 5.549313999401661 10.423557740829299
Cd 6.924484179173997 6.381479644721119 3.0464611553640633
Cd 4.449514534927246 6.653198662429136 5.159650833380819
Cd 4.230232330507247 5.041837475327337 9.494319251744916
Cd 8.453209836943472 4.153498689356601 5.112159558808854
Cd 6.371178558916805 4.407870129134822 7.39489330468926
Cd 7.778134399449912 3.655075233649397 2.272136671120101
Cd 5.366092048688323 3.635322749348986 4.175704791827696
Cd 3.4164826129818264 4.100715135890968 6.380931063359423
