15
Energy = -4.31254768 eV
Cd 7.95767202114931 5.341409915826564 3.399221301504198
Cd 6.364612831301345 7.423317378455291 5.205667681994278
Cd 9.723983966974428 7.770726160180568 4.781605739486528
Cd 7.787522072143352 10.225502385811787 5.089911480733873
Cd 5.126933576359827 4.6263595776306445 5.991608829336305
Cd 3.7061751854836147 7.668772517542849 6.93604074036932
Cd 8.14584418696314 5.343244066644095 6.5798023814106
Cd 10.870630801144507 6.6269869091276785 7.475013800347661
Cd 6.423244383275902 9.12893438273063 7.694048969613025
Cd 9.804647442928761 9.58083823130252 7.411381847914086
Cd 3.6969587502185814 5.179374499073055 8.66719412923034
Cd 6.5670051100718005 4.329829854194334 9.15334421421357
Cd 5.240275016986372 7.440314040369139 10.083675697285763
Cd 8.201861665079559 7.052666078025845 9.069775408575088
Cd 8.138216521219984 10.017307534385349 10.217291309285583
