12
Energy = -2.66900113 eV
Cd 3.365362250816011 8.819128425184646 6.485255598672451
Cd 6.50921603150895 9.021286880101497 7.304639829971085
Cd 5.423268987304628 6.6762165152641035 5.084837583294548
Cd 2.1900417680549062 5.557945568145179 5.769949935577051
Cd 9.523509997685938 7.987099161433424 6.2107486459978265
Cd 10.957559537550745 5.424618743005477 7.729536757909752
Cd 5.100331450217881 3.5833732841727977 6.1982081160146825
Cd 9.215197097191993 10.661373823572056 8.092919098272304
Cd 4.726327426963328 6.260781279294373 8.058408111057656
Cd 12.039274623028104 8.655608451448517 8.432613942518762
Cd 7.793750638303916 5.220006259175828 6.9883679182980565
Cd 8.893046798251628 7.5446990372564455 9.169317022442655
