19
Energy = -5.79314908 eV
Cd 8.884689953478519 7.770367614134609 5.144735027288916
Cd 9.803734106564182 10.75597308146365 5.174182637556189
Cd 6.817148373324937 10.053597452750331 5.185885036802343
Cd 8.12153848609193 6.811567570465278 8.118632459563958
Cd 10.15126339616796 9.150679442538095 7.687563507297251
Cd 8.114627155302518 11.520762421070149 7.76612075329552
Cd 5.965235525359851 7.025349346432344 5.92027509529196
Cd 5.110310913853626 11.824868844079155 6.99051313401295
Cd 6.027785366272044 9.153108787771378 8.188686775742434
Cd 12.214848763368877 9.359023492186838 9.947835117230992
Cd 10.276082394868558 11.848414045750495 10.02756112309597
Cd 8.21368646610984 9.322289999453355 10.283180746229865
Cd 14.715628915253685 9.514965123924238 11.899796667834888
Cd 10.351709144700084 6.808192983474421 10.334731026153541
Cd 9.112305649858902 11.026901483305554 12.77473475372215
Cd 12.183607019299206 11.173651605945327 12.470858611739281
Cd 9.16825384928586 7.887246344540698 12.972675477865913
Cd 12.24838222065836 7.828845274005478 12.64611151867374
Cd 10.960234392688431 9.605267179215145 14.906992623109646
