12
Energy = -3.06397777 eV
Cd 6.652530676657892 5.281007032937873 4.248506043020679
Cd 10.127008953804095 7.311151152860871 4.128909277010219
Cd 7.206661892560643 8.087897911838976 5.565781388007827
Cd 4.660154676868532 6.464097979523423 6.374175391839804
Cd 10.306452377321419 4.586211195315327 5.823254783773401
Cd 4.605183177682998 9.648439545503 6.408005701744408
Cd 7.395310836831851 5.271485125035065 7.310471114459595
Cd 7.107416184160436 9.65565383998372 8.246011652922524
Cd 9.475485766119112 7.661002964816155 7.786199947129619
Cd 7.291116917994159 6.957422015514033 9.91333902754845
Cd 4.3790270345257944 8.116071554098147 9.082526654021292
Cd 4.913261686216078 5.0791698633168165 9.232429199265455
