10
Energy = -2.15488812 eV
Cd 7.465865963371545 7.961629794474789 5.211675128678383
Cd 5.910181341502159 8.785313439094814 7.838178573061609
Cd 6.321725149075379 5.516778298163247 7.220452297672689
Cd 8.807509749620019 7.193134196265112 8.122844456465465
Cd 10.44717006305321 9.108730120865994 10.110553767258745
Cd 3.990787888004883 6.753215250146273 5.527324506144895
Cd 11.798835064253902 8.103038880637156 7.362657015736283
Cd 4.541112033204619 3.581621729065743 5.323129480399713
Cd 9.34556196897163 10.155047207328064 7.230358514078929
Cd 3.29951176748203 4.8134641907462 8.002593902326153
