14
Energy = -3.62788396 eV
Cd 10.22482158581435 7.9479795623195315 7.078132163865665
Cd 9.980965867157348 5.3788038980301005 9.236671225681501
Cd 11.435600923989112 8.11853939131995 9.879124864547482
Cd 8.685142013431088 6.002558681998833 5.122983030599698
Cd 7.759548062811348 9.63557025986339 6.708073054742703
Cd 6.785016287668616 11.267758055102021 4.427763649819583
Cd 7.231415381552973 3.9676073828453267 9.34363370557811
Cd 7.029010506600779 8.252766989785785 3.758741694964268
Cd 4.651232788209475 9.30874693206212 5.512182019432248
Cd 7.548697929452795 6.485164311312825 11.106113962238942
Cd 7.273055549205117 6.623276835530426 7.807133588062976
Cd 6.887280351621664 9.41404458738461 9.578181163587423
Cd 9.139197314792304 9.157506494095028 11.622625728789385
Cd 4.479374390689928 7.864486438258292 8.262793228990326
