16
Energy = -4.92659388 eV
Cd 7.869764763051932 4.4390221764646824 4.404934718939135
Cd 6.31767543643994 7.273670997109146 4.464190223158853
Cd 9.529066474643635 6.990855315603333 4.392818402594493
Cd 11.006554451381062 4.038737926164824 3.80135327934051
Cd 5.329328950383027 9.511935340335157 6.361280774716832
Cd 4.936811759196865 4.450158733088122 5.085615576866225
Cd 9.698444837181468 5.184935090772244 6.863928014048431
Cd 5.299886730581388 6.497022381647405 7.364086624658945
Cd 3.1619903371571185 8.359516919248454 8.462881165135988
Cd 8.175735424304222 8.135565950986408 6.900615550213343
Cd 7.7384139598962065 11.022205797822075 7.781721671140409
Cd 6.919436917197166 3.6610711446669764 7.3454901997561555
Cd 7.780142982189804 6.051718404355653 9.13265941958035
Cd 5.223282153120743 10.366538221767147 9.419729208516264
Cd 5.325155831343491 7.3823709228363725 10.480343883559915
Cd 8.05353752744965 8.999903212650112 10.103579823291717
