15
Energy = -4.69598505 eV
Cd 4.295528866666749 5.883324266666567 4.929482933333383
Cd 4.447464866666673 7.83637826666668 9.102939933333335
Cd 6.9432878666667355 4.425218266666632 4.7130509333333555
Cd 5.925626866666742 5.35062326666661 7.593683933333409
Cd 6.996448866666651 7.53822526666669 5.276023933333416
Cd 9.352306866666721 6.3435572666667985 3.7329019333333693
Cd 7.4368198666668155 7.931441266666652 8.285387933333265
Cd 9.8304768666666 4.25206926666663 5.9091499333332544
Cd 7.605740866666744 2.7979102666667086 7.404810933333382
Cd 2.821530866666585 8.208852266666726 6.41593593333329
Cd 8.93840086666672 5.240895266666602 8.788629933333464
Cd 2.8802688666667433 5.489337266666664 7.8013799333332985
Cd 9.981090866666564 7.333592266666586 6.608277933333319
Cd 5.458239866666682 9.901685266666638 6.889194933333354
Cd 4.586766866666706 8.966890266666677 4.04914893333339
