13
Energy = -3.05354811 eV
Cd 8.212880369212566 9.042389945184016 3.9970575462565296
Cd 5.674602769911158 5.041920916388104 5.506907897534732
Cd 9.306845459641941 9.66710774236661 6.830828615858823
Cd 10.1405386301665 7.097258040630342 5.452178527497774
Cd 12.208595802573406 8.323646633135995 7.7618139992820385
Cd 5.562737173478253 7.846946393608637 4.616346176719443
Cd 8.369322673669506 5.011577467171476 6.735063852272182
Cd 4.5743118627757315 8.4116234165616 7.33157083370171
Cd 3.7847398416686153 3.870923199519588 7.529794308233901
Cd 7.170173766083879 8.704905238754897 8.730584171240752
Cd 2.9374419162459007 6.470404429571659 8.93069221110157
Cd 7.947513339450562 5.9616966480367335 9.498755043496562
Cd 5.235296866214688 4.782687225848615 10.084386759367936
