16
Energy = -4.81052505 eV
Cd 8.362230027854318 3.28751396671218 5.5848005127332
Cd 10.196272802059239 5.170601210843932 7.30594059714197
Cd 9.788028730003655 5.876143104155687 4.355249203820967
Cd 5.361089982638685 3.51563333517809 5.079834707710289
Cd 6.2795608034530135 4.663388245218802 7.778100870248659
Cd 9.105541625545577 8.1489941733081 6.279593323714926
Cd 8.268611235028988 6.6077132596162205 9.119620833479113
Cd 6.74337262866353 6.18245484714947 4.6929292679373935
Cd 2.929933695141534 4.381813620900954 6.73029314378678
Cd 3.7058461011601014 5.920315520456633 3.978674885171734
Cd 8.575099217238895 9.710773184755462 8.916688666407488
Cd 5.96529454860521 7.690998736665405 7.4426427647980775
Cd 4.98946691814083 8.685805692743228 4.723695566755776
Cd 3.8687667865197 6.0964258941606335 9.094108700174395
Cd 7.021213340244491 10.533203942286391 6.327329577422321
Cd 2.7972359091254178 7.48578561727186 6.5480617301196675
