14
Energy = -3.8291026 eV
Cd 10.847723951918173 5.589454720977278 7.678859810868302
Cd 8.604051917057452 4.977881886676819 9.821456635382802
Cd 8.92878069081792 6.393921017802901 4.50026279315434
Cd 9.46311101959684 8.231383331182725 6.87537448804075
Cd 6.77247174179109 8.551597026031374 4.891242789976669
Cd 7.149216802779522 5.906285688494403 6.903065396676931
Cd 11.084308276714358 6.722062717437661 10.528044680747564
Cd 5.533665536868185 5.947204650082069 9.418570792227344
Cd 4.088193489032926 10.062009927838089 4.983207765749301
Cd 10.071937220196098 9.517667401396663 11.210139795711143
Cd 8.970249126467975 10.706998857564201 8.571358699723381
Cd 4.499258047647759 8.174488919174296 7.435880159133196
Cd 6.344333112090544 10.65493783163801 7.130822055358034
Cd 7.443198624524529 8.310484116508412 9.578540903610905
