11
Energy = -2.78635864 eV
Cd 7.337443971665934 7.290940631883064 3.5280110469347177
Cd 5.756073694823447 8.598125028580453 5.813429481498433
Cd 9.12321098381374 9.074140549879408 5.644230573886525
Cd 8.131315078667194 5.990382294975523 6.396464155146006
Cd 6.286404311312773 3.6491968448715446 7.673553146818737
Cd 5.181431430939671 5.3283996405753395 5.060702971196326
Cd 10.326876168806 7.467154302214719 8.249284068027674
Cd 4.578533207954352 9.422987600388668 8.5125868866641
Cd 7.549896089246286 8.721878338323497 8.642310445732347
Cd 5.130391490108783 6.427130217931937 8.285338393875943
Cd 8.095816963761497 5.52705794147524 9.691482221318724
