12
Energy = -2.84161536 eV
Cd 4.315978083874727 8.698292074826474 3.592405090770667
Cd 4.406825605646562 5.448110025605194 3.2910647290330792
Cd 7.021092265276066 7.202593399516807 4.36478443441419
Cd 5.8352960793061 9.48619659983293 6.566447715417022
Cd 6.626946889558645 4.236692379997327 5.596694884913109
Cd 9.34137158569835 5.752827961692078 6.006773194590126
Cd 4.358998887764011 6.644578524453516 6.239129469511611
Cd 7.473493970480756 5.104431098050486 8.55350612273697
Cd 8.364294672503117 8.240349199997503 8.05822690757456
Cd 10.55692871746758 6.2229350839499284 9.190384716274401
Cd 5.351733676341368 7.693924001958066 9.08840259280464
Cd 7.999307684862122 6.921337768898942 11.10444826073889
