15
Energy = -4.135102 eV
Cd 4.87821640334576 11.26907516033733 4.061343316961678
Cd 7.485304300111107 9.57347707511807 4.688084960206206
Cd 4.890046617433399 8.075057111794859 3.861868269867974
Cd 6.683200065593035 6.7356219018669705 6.471883878508528
Cd 6.997518319948181 3.7304753688584817 5.882553136341111
Cd 10.46556149357597 10.451626833315236 5.098471012775423
Cd 9.226008798602301 5.113160624748431 7.503371100716999
Cd 9.618165400808657 8.139745003496058 7.014354680574438
Cd 5.039988119052514 9.485874903201166 6.721030787458477
Cd 7.326621764172167 8.637753436738349 8.97471616286769
Cd 4.751645838465576 7.006815450109847 9.097704447128383
Cd 9.153624696465176 3.96621602635051 10.615935654856095
Cd 6.443382647751876 4.43036439011319 8.80799011130591
Cd 9.888275386105844 6.967816611384853 9.906930441777249
Cd 7.050371026941711 6.314850980938936 11.191692917026737
