18
Energy = -5.64708564 eV
Cd 5.7824573420897245 4.826799477342318 9.339991981054977
Cd 9.25752129191603 6.161225517178829 9.068465191504735
Cd 6.967621597309544 7.347670419043765 10.6029233903143
Cd 6.964524445228124 3.114668482581895 6.839640401986427
Cd 4.060173827441533 3.6259832116651687 7.119704342858823
Cd 9.475775950654679 4.833213696588321 6.408893784259505
Cd 4.720161018402343 7.979733153544695 8.669563507168554
Cd 2.898582161067661 6.44961521432708 6.779788559341563
Cd 6.662218818101583 6.532255437418427 6.588464506041765
Cd 4.343883488650117 5.026917998562373 4.326256980131326
Cd 8.892022814179041 2.342475628743523 4.5962716103608825
Cd 7.650277579691787 9.474029673514453 8.499095796374474
Cd 9.471764532409658 7.934971823732223 6.204967605703042
Cd 4.119803818282287 8.961022356801339 5.73915360942928
Cd 7.386235553716716 4.822283414081955 3.9172722298329923
Cd 7.109241019712898 9.798263355213235 5.567547084685651
Cd 6.085922524126166 7.481593261359348 3.5511595755687155
Cd 5.152399611783331 10.287865273064583 3.181427238146364
