12
Energy = -2.87949834 eV
Cd 7.431925653718809 7.005545354110651 6.020804697028086
Cd 7.826514333813608 5.289047304093339 9.07864702318846
Cd 9.72948918803177 7.823865261004539 8.153853108676836
Cd 9.491266370886478 4.52564669227128 6.332040114016062
Cd 6.30739963317556 3.7229008753807262 6.680021131244121
Cd 6.639134162315286 8.306807861154274 9.207113732268585
Cd 4.39398940760821 8.602978504092091 6.8801217438014515
Cd 7.269706866294311 10.190888058212693 6.570776397951767
Cd 4.582585424074241 5.789091141672739 8.604871510167087
Cd 6.8910129363833885 4.8746319045356294 3.6397985479550754
Cd 5.519470441036481 8.37492965947765 3.7901334808198164
Cd 4.190514599346119 5.766676514354842 5.314827415890845
