13
Energy = -2.82348961 eV
Cd 5.712261206470593 5.978066611733887 4.204797479444444
Cd 8.928680865272735 7.088777883416262 4.142627748972089
Cd 6.43128894835077 9.272378492852246 4.44516452692932
Cd 7.653789052251634 4.385205229536547 6.1888112310517585
Cd 3.805222559847466 8.0871697124269 6.0558015208779725
Cd 9.00602802005324 9.39082461953011 6.634970810178174
Cd 5.845860759106494 10.224178347349111 7.557259811756611
Cd 9.523695768557138 3.4598287301525317 8.439579761912938
Cd 4.214160351062774 4.925887762236967 7.066105415206226
Cd 7.1408989266187 5.2162966491141045 9.272017264914298
Cd 7.893753546874646 8.755225441748962 9.76867944771845
Cd 4.833487233391122 7.448690271129605 9.219469780601525
Cd 9.672948022902155 6.429545509531822 7.666790461195257
