19
Energy = -6.15751848 eV
Cd 5.269019379011147 2.2383776430743363 7.437498966019219
Cd 6.626799398054554 1.9901149850140933 4.5598816769578265
Cd 6.701385840563165 8.01325317809921 8.375504218099357
Cd 8.273861395847078 3.2816435449473786 6.800176298087869
Cd 3.540996980865526 3.550791892992725 9.869424732202317
Cd 3.7681644801390313 6.662215478991851 8.951821349151713
Cd 6.309326044373704 4.966002238324957 8.457984870054759
Cd 4.238110123146465 9.187417549071299 7.015259491900326
Cd 3.618809710890664 2.25690767725145 4.820677984343316
Cd 1.968232614218606 7.2492542444788075 6.502181745057066
Cd 8.432158536735704 4.379043860333169 3.7766144921716336
Cd 3.953210480333215 4.962750539553442 6.159343395442921
Cd 5.309537754845375 4.623550060306475 3.4243422887481327
Cd 6.987891340703659 6.089728794603234 5.8050416423229105
Cd 6.848039683303141 9.073780315755187 5.325208042671269
Cd 8.865842876267857 7.611377082860165 3.2319902120278607
Cd 4.370777357200652 7.414740531601881 4.390739106518016
Cd 7.194855430189052 5.87063032969507 1.3097236448332894
Cd 6.146141639670417 8.64092904088989 2.215557553803794
