19
Energy = -6.08863933 eV
Cd 4.592296558747253 3.714352209269747 6.140609147437687
Cd 7.085860837154848 2.712177515501141 7.409192859162433
Cd 4.211359089082416 7.170456414720506 8.905286282135398
Cd 6.416191631600341 6.1795981555720205 6.461596445959073
Cd 9.53493694127935 4.393046472644298 8.150076336442483
Cd 7.208717897548648 3.814880911271073 4.441174764474541
Cd 2.175386788044191 9.459855970963567 7.818990751514636
Cd 6.626084627515238 5.172238045117008 9.354713978245044
Cd 6.686406380003818 8.159513185980973 10.268836541373457
Cd 3.3074015556976843 6.558637256635256 6.13045500247765
Cd 9.973089281047615 2.8887944445240463 5.538381702182575
Cd 8.88807403926046 7.306356139896135 8.227657113283072
Cd 7.365128687238044 10.113062286843917 8.114009653121794
Cd 9.38387949847085 5.96780760040116 5.282082428447938
Cd 7.3241001260053995 6.478499682442843 2.9836195116114936
Cd 4.289907509513535 6.537113018491106 3.3021884636420507
Cd 4.951359924261209 9.17116533284533 6.422040807005052
Cd 7.903812643948679 8.740569803714719 5.481539147657856
Cd 5.816891042126895 9.202760611710891 3.308434122372231
