17
Energy = -5.33565409 eV
Cd 3.724454075847884 10.5069514226184 7.739570599208964
Cd 4.373292724261742 7.666134108507023 8.54728561763841
Cd 5.210671006417194 9.222510461116263 5.434288860903703
Cd 6.623061036871922 6.2431899383577845 9.893236399916551
Cd 7.648887811052073 7.895315734355092 7.521339806414631
Cd 4.259137573498316 4.560756144817976 8.418197696734087
Cd 8.07384951495086 8.844173458490014 4.633635018467298
Cd 5.47829404257294 6.054116289064846 5.994311932865631
Cd 10.47787734580351 7.033553854933438 5.14209086663677
Cd 2.334858953600094 8.110651675731516 6.15732303379595
Cd 9.355050698145353 5.0374767933360065 9.277458846930292
Cd 8.722539334751435 6.54578113888375 2.6381966176692813
Cd 5.702332871853944 7.183264393590001 3.1335355859737812
Cd 6.284503357246171 3.0815026015837104 6.495843648012769
Cd 8.556273821885089 5.183370833124791 6.4277466423869125
Cd 6.879638331287633 3.1719568066972146 9.429041305429012
Cd 7.033142799504762 4.397159644342498 3.854762820566437
