15
Energy = -4.25842006 eV
Cd 9.880613817062793 7.552104500618824 4.552424331205309
Cd 7.796939836167023 5.665630030358724 5.78153629245158
Cd 9.72666260931701 10.23979956918331 6.01731067486773
Cd 10.709955831203105 5.3515097471624635 6.732642132535829
Cd 11.947561278197997 8.312456785065837 6.901371322402936
Cd 7.185272798857596 8.584458249695532 6.549691685174811
Cd 4.451415790315148 9.76167062117571 6.704049508733822
Cd 4.674612796642239 7.747069673868856 9.00236069016356
Cd 6.0245970675104665 10.808696520872255 9.130216655037255
Cd 8.017014839811559 6.352396053593662 8.768715337748423
Cd 10.993552509606657 6.8137827651645555 9.417138274157248
Cd 9.287825565511968 9.342179178153833 8.946006258726115
Cd 5.982006892715859 5.638364290759846 10.827096964296455
Cd 6.8318791648390835 8.532555242917738 11.44895340073356
Cd 8.359232633099579 11.166470202267467 11.089629902623825
