13
Energy = -3.1292268 eV
Cd 8.720323797324083 4.216050020955216 8.039273646248356
Cd 6.931866331177284 6.838244776012215 8.191711435603633
Cd 6.255694327238208 4.38344215795051 10.018415157643027
Cd 8.87181953401284 6.080727190033541 10.597502795511442
Cd 11.91052079300507 12.4158585258506 6.529978219990156
Cd 9.704509404682973 9.178690792817434 10.611784326233952
Cd 9.68219991985721 10.71348172067432 7.691433304900452
Cd 12.518855217393659 11.421587119069839 9.388084932315154
Cd 7.176670514310832 9.803258543069058 9.07536658278016
Cd 12.20250110618034 10.020992386069215 12.10553498863421
Cd 10.36648968345034 13.827112049667262 8.789488989423166
Cd 10.818920188352454 12.76075416151911 11.934949171224664
Cd 8.111624262921138 12.262669306538355 10.452186241959472
