14
Energy = -3.79648 eV
Cd 7.6399536952062626 7.647823923948973 3.187749977488583
Cd 4.510058850878044 7.141915874340538 3.9694022451130846
Cd 8.966166816892482 7.681430933755762 6.438677459515275
Cd 6.939483718589379 5.667330411729067 5.395787867080573
Cd 6.460147207745477 9.287802567765869 5.382443630156581
Cd 4.156295410438161 4.573557556855502 5.9700913718387145
Cd 4.187587763489824 7.301331135796997 7.177562686670902
Cd 6.475547300258728 5.501075045983864 8.398671305239914
Cd 11.571300964848517 7.660288796548038 8.064490993008832
Cd 3.9455204365121177 10.252425741805075 6.711131889561185
Cd 9.905224099651164 4.8869299518099405 8.33712978809506
Cd 6.560202680490702 8.813132339999035 8.41387092305936
Cd 7.960955477740913 4.55544619914354 10.918830039642593
Cd 9.064416806636052 7.3723707498955795 9.977021052907155
