14
Energy = -4.12272775 eV
Cd 6.565721999999848 9.200840999999944 8.357315999999871
Cd 5.825705999999986 5.201693999999897 2.555251999999885
Cd 7.976955000000037 4.821925000000015 4.691657999999925
Cd 3.6829889999999805 6.953240999999939 3.888933999999885
Cd 6.465071000000032 8.266595999999861 2.91478399999997
Cd 4.053525999999843 3.8618350000001014 4.777443999999857
Cd 5.107068999999859 6.684287000000004 9.49207499999984
Cd 5.852413999999925 5.054326000000057 6.946426999999975
Cd 7.048355999999971 4.3007610000000325 9.64784899999997
Cd 4.3796389999998775 7.80687399999999 6.738612000000083
Cd 7.364165999999827 7.685937999999917 5.777124000000004
Cd 8.201772999999847 7.080573000000091 10.026171999999955
Cd 8.958640000000013 5.497863000000047 7.4435899999999595
Cd 9.517973999999901 8.583246000000063 7.742762999999916
