19
Energy = -6.37208652 eV
Cd 10.256832071918854 5.27758463086974 7.702562685102661
Cd 8.230498896963146 3.683044262829084 3.517646740635046
Cd 8.019554515541541 3.6992363768124723 6.502877012102251
Cd 8.52907982913468 6.599636810356087 4.264673571486085
Cd 7.927338395534899 9.55484538868591 4.765033125855056
Cd 5.760007678943015 5.2482606485614856 2.7155329759427573
Cd 7.362323908610311 5.347584214448351 9.084682234024827
Cd 9.403506434389984 8.021509132845493 6.967559221537001
Cd 5.4333164038300685 2.68796053443072 4.439760130536879
Cd 5.068226802667349 3.620244656330318 7.271968442221908
Cd 4.49017385856145 4.553628492646318 10.02249081187363
Cd 4.950041569309423 7.408140619009112 9.326738419218815
Cd 6.333081915965055 6.339458742216304 6.350063097292911
Cd 5.429826761339505 8.018122867542367 3.6039391388881215
Cd 6.65917937115216 9.128615518883432 7.651863049496814
Cd 3.680288312853661 5.359053872720416 5.072104275682937
Cd 5.04997743418366 10.530345292650976 5.212044235687289
Cd 2.527901199202326 5.643234604598153 7.895341996648731
Cd 3.7961768337029613 8.1280097299065 6.51035518517339
