17
Energy = -5.39374146 eV
Cd 10.087069676720724 5.8110516113326485 8.144552205283265
Cd 9.366661011642936 6.874643898077864 5.4017222471460125
Cd 8.447085667337346 9.594680555113127 4.56310365566473
Cd 8.574554444627 3.7859315096186585 5.976692116328418
Cd 7.657484802414585 8.068142056736521 7.856936706315424
Cd 6.671016000148405 10.704218729245396 6.76323368248848
Cd 8.09713300895005 6.441441468351059 10.425527743084253
Cd 7.7180315152596215 3.807089872546084 8.924604140260184
Cd 6.945056491795795 7.337543786126608 2.969125409120897
Cd 6.51642808951818 6.029909664640334 5.703374120166462
Cd 5.457375686004258 5.9145712011644225 8.70787129643773
Cd 5.308147203412774 9.699978316973823 4.204477835562615
Cd 5.600295961936738 3.2318677975921095 6.718187257780692
Cd 4.6799421703726924 8.288382500284861 6.961036637808244
Cd 2.893210456540116 4.298682451424659 8.333637016808234
Cd 4.0400237631544424 6.90169586304395 4.160878495314101
Cd 3.013416248892768 4.283100916456156 5.257971633158686
