11
Energy = -3.02967871 eV
Cd 6.870456181818207 6.7414599090910245 4.132687090908941
Cd 6.605212181818087 3.7547879090909895 5.040635090909135
Cd 9.951251181818218 7.750193909090902 4.3585250909090725
Cd 8.719902181818215 5.5928319090907594 6.423317090909181
Cd 4.860022181818238 8.85102890909089 5.280125090909
Cd 4.336797181818125 5.796087909090851 5.723191090908955
Cd 7.708366181818056 8.582900909090897 6.554708090909167
Cd 5.176585181818235 7.639494909090753 8.1489830909091
Cd 3.0551541818181325 5.242202909090747 8.646953090908948
Cd 8.032834181818052 6.897955909090782 9.177494090909136
Cd 6.183419181818121 4.651054909090952 8.013381090908911
