19
Energy = -5.84586229 eV
Cd 8.868984432294617 5.962615691585652 9.670010119957132
Cd 3.0109923402524856 5.281522047042025 8.116686936015066
Cd 7.679736035555442 3.244955023835702 8.552819222633936
Cd 3.7891932010759417 4.989182262413525 4.773484725123688
Cd 6.946609003067823 6.66536012681832 4.70429598948608
Cd 6.13825105328207 4.831220972153498 2.1066006189437365
Cd 8.844840788400646 2.577590750323528 5.5858842289895
Cd 5.913339110191937 5.39802596391947 10.290531669598922
Cd 5.778697843767405 5.130239394701963 7.0753303338153515
Cd 5.011923862248627 7.237996522093668 0.5511347932841676
Cd 5.228422593698809 9.304556319800858 5.760262642733417
Cd 4.176028689654888 7.797074745326697 3.415274278321655
Cd 6.054534553650452 3.046333362586843 4.664718488173552
Cd 4.556671061959962 7.8367241428244805 8.558846040045996
Cd 9.169140806970711 5.4032401738426055 6.609903575894801
Cd 7.464767362668776 7.909799002211386 7.337264602357382
Cd 7.825524755886304 7.542011164726672 1.8865481290612343
Cd 2.6263003098354427 7.552820341377545 6.0352854016973065
Cd 7.051527963329401 8.36079336535349 10.393359623647884
