12
Energy = -2.95836771 eV
Cd 8.677165276028028 4.213375983831171 9.20243863558764
Cd 6.992698752492949 3.7275342907387357 6.5653180093972034
Cd 9.448608409044297 7.38719163141768 10.013270423507217
Cd 8.769378667348395 9.061278962198989 5.346778402128468
Cd 4.275371288605006 5.110836653126683 7.294771649840608
Cd 4.266105849189158 8.325265691182851 7.937744153698399
Cd 9.27162416680736 10.048428465916679 8.389410818338654
Cd 6.423847853249201 10.384238645008303 7.078536150492362
Cd 6.609194461167001 6.775419948994281 9.053480834640185
Cd 6.185471532532208 7.140638131826183 5.748474593848217
Cd 8.862815172142529 12.118106243454319 6.006067852799983
Cd 9.226785209688506 6.425026383959489 7.035441257499578
