15
Energy = -4.28550731 eV
Cd 11.481483178576521 8.87397776908725 9.229636005665403
Cd 10.334577852828073 10.134134712952727 6.441713196207574
Cd 8.149757800605594 5.479925687143812 11.223628653691904
Cd 8.783164099717277 10.748535674047098 9.029025157495708
Cd 9.823270981020952 7.098757751745845 6.3519108087227485
Cd 8.534904332253832 4.587350014842672 7.444068926314931
Cd 8.559959594222063 7.690460004981679 9.131618754305322
Cd 4.888372875348423 9.297110387945217 4.980065175828748
Cd 7.137183211666215 11.202755295684453 6.404958174781001
Cd 5.4402358613874 6.6691930548488845 9.803280910272719
Cd 5.987882847203698 9.410029815687611 8.622833987559611
Cd 8.145029186518274 8.996048121704233 4.507928993792707
Cd 5.3630486049289585 4.452004401803999 6.573217208025749
Cd 6.691106452899931 7.22085738056648 6.530749077251648
Cd 6.353646219271363 3.8124830254063364 9.39898806853283
