17
Energy = -5.38283484 eV
Cd 10.073670385496301 7.7769518207906545 6.160327369660895
Cd 9.04947596611712 7.578542116741276 3.264899296918834
Cd 8.885980719964007 2.892983878755728 7.281283562099043
Cd 8.618361417842259 5.816132368891397 8.409774793991396
Cd 8.397275025165355 8.853298122180808 8.456370340461907
Cd 7.584652440046443 9.490746290934986 5.254294174679405
Cd 6.878771370195104 3.3688088408675574 9.606158124124345
Cd 8.767338286613285 5.191010360473102 5.210019386256965
Cd 6.039745012869101 4.40548586282011 6.1877275331591575
Cd 6.012767265657286 7.407562498407544 7.350543422258642
Cd 4.6152926588459815 5.281351538318198 8.966098212589023
Cd 6.159227473724364 6.807490823414427 4.175404238585984
Cd 4.555830416367735 9.219484016779138 5.422949313912117
Cd 2.9201321581542845 4.656057298269055 6.531365377465895
Cd 2.902995588860081 7.613691017463697 7.6296012580181705
Cd 4.156581079099495 4.577184507915797 3.7209155919155728
Cd 2.638776427270543 7.096809176284198 4.509307909103194
