12
Energy = -3.23735188 eV
Cd 6.446348938228313 9.378295664375452 9.12043421501653
Cd 4.324316804741321 7.551243352050625 7.794248455256578
Cd 7.794679549228334 6.919573681131847 10.769856937247802
Cd 7.332076264475944 6.461476095378573 7.672297289944786
Cd 9.82410339176454 7.751382334031874 6.029965633438067
Cd 9.266378654514625 4.361572294973194 8.86430227446425
Cd 7.480227661603819 12.388214013241772 8.859075871849507
Cd 9.421559663847171 10.28837047624217 7.67258479463292
Cd 6.9300165459513305 9.000518538949574 6.034668890262708
Cd 8.952495880411627 9.831402019020286 10.768424477189143
Cd 12.430275170536806 9.198681150501962 7.7984917595389
Cd 10.300681641192618 7.372430546599644 9.119133901552916
