10
Energy = -1.38586709 eV
Cd 7.755353894656357 5.914956714901687 4.294898873003646
Cd 4.981204600259018 8.42639566398754 4.088181485905492
Cd 9.20007244466018 8.623444508935783 3.9618635302816
Cd 5.319700852323042 8.906328876429736 7.51094710678963
Cd 11.062402225024103 6.919002070249133 6.4414513843683086
Cd 8.721386675801831 8.77388880441495 8.101239628764889
Cd 3.019528986558219 6.420143680865516 7.362462499245442
Cd 6.434966758210096 4.390867504917192 8.271222061309539
Cd 9.15419648870381 6.041923491041655 10.119731131778641
Cd 4.872121110806062 6.103982721259519 10.368936335555683
