13
Energy = -3.68247947 eV
Cd 12.472479692974247 10.201904067537415 11.699913493456945
Cd 12.989105909115755 8.912883140481808 8.582652865654028
Cd 10.004490270866985 12.287820582930367 12.021765873322947
Cd 12.819832493938165 7.2726634885382175 11.10597417568423
Cd 9.124228354291496 9.491153267793838 11.6542068343003
Cd 10.856153393750374 10.153748519825651 6.542249184411984
Cd 10.503967387751334 11.27152182207151 9.272285765794463
Cd 9.93960402848377 6.636257801868635 10.859300966210881
Cd 9.435421981542897 8.317174380106525 8.364208578857744
Cd 7.1278826199983865 7.724833138424712 10.248694930082625
Cd 7.848749742952353 11.170145798886622 7.215560098060703
Cd 7.3420715305365825 12.383693581835223 10.257641818063686
Cd 5.732918046306445 10.094293253582876 9.094050087265309
