11
Energy = -2.56131454 eV
Cd 9.206228328467464 5.87662328105989 3.920304578995441
Cd 8.487620158000759 4.550094258913784 7.395970914617993
Cd 7.655433673519781 9.339142776209007 5.022029494445459
Cd 6.483846042803654 6.386178372871771 5.790398865337859
Cd 9.57017544762771 7.537822926485532 6.776248623717867
Cd 6.719773587455008 6.369793113825906 9.191852284319245
Cd 5.131309213493179 4.059189328336134 7.585348881684206
Cd 9.916647103523722 10.720732192025675 7.109657829514056
Cd 7.135000325763012 9.437249318612047 8.090196031606949
Cd 7.304151539813316 8.760101145921979 11.147026653650423
Cd 4.509925853175257 8.572319445016667 9.58818573046377
