18
Energy = -5.57327256 eV
Cd 8.949930756922885 8.376390795705607 8.045853062338072
Cd 9.883545385499263 5.7087488828123085 6.900509699961289
Cd 6.962138076949223 8.47800987551167 3.378853742616981
Cd 7.33158018169148 10.068129320449385 9.848065145935983
Cd 7.932524165832142 5.770923297313581 9.354254340875316
Cd 6.992440450892169 7.110842682023445 6.051854656028961
Cd 9.816725713623569 3.4612762907874015 4.957211726895057
Cd 8.231077077072321 5.617544692381336 3.680666108098556
Cd 3.8435630667080347 8.465976685533331 3.4670982100477405
Cd 5.276058079896856 7.785595635650599 9.889599713201406
Cd 5.657074131350448 9.683156825233876 7.359009040924136
Cd 7.699865021371416 3.1768934435912253 7.043684066919001
Cd 5.4175142993765855 5.9174364335392085 2.5660185592152995
Cd 5.4809982147293015 4.086491393974773 5.055580318275163
Cd 3.8778888699064247 7.475058615105177 6.304879336253918
Cd 5.400623324842714 4.889626556890006 10.778100249133209
Cd 2.8259676075544395 5.524766256907455 4.341427678381909
Cd 5.242265788157498 5.224912528966102 7.799114557274771
