11
Energy = -2.88871171 eV
Cd 10.96766517770972 11.362023455304854 8.195003172166878
Cd 8.503006772885863 9.976716842399645 6.635401087071288
Cd 8.501623484249567 9.977406230781213 9.744720174642387
Cd 5.546153579948122 9.867192924231878 8.19149375435707
Cd 6.257269322476753 8.193351319101073 10.810760200416965
Cd 5.546999927250116 6.517347876809873 8.192969725109842
Cd 8.503231268348378 6.408102448092556 6.636296373488863
Cd 6.2559993834077 8.191633602585126 5.573468589133257
Cd 8.50206030236322 6.408076691675395 9.745850926349927
Cd 10.56189854329107 8.19218408842896 8.192660264584028
Cd 10.968312959400233 5.020833909714092 8.195596454009749
