15
Energy = -4.42700321 eV
Cd 5.183018260601713 6.821677762237486 4.154353831642327
Cd 5.003118521052258 9.853347639785488 4.2258657807775
Cd 7.796441182683704 8.655896848859273 3.762804146330894
Cd 7.728830839467341 6.34615455216433 5.779130874988164
Cd 9.276423969315848 9.01658569150097 6.4226810422773655
Cd 5.044830604766024 6.025808064585771 7.21505068172283
Cd 4.139977050565698 9.02749631768523 7.005797671094946
Cd 8.052589609733275 3.570920420157839 6.870036998355654
Cd 6.828096778162795 8.280443898544338 8.253035394861206
Cd 10.369932933381294 5.843618873051085 7.313061096762465
Cd 6.78929765617259 10.819336578086535 6.547352291342877
Cd 5.816200348887 3.7556537040282163 9.102303494833274
Cd 6.485008141485807 6.455611285311939 10.621380081647667
Cd 8.79715074445464 4.617160973018552 9.68507525185276
Cd 9.420209280643478 7.6414133123567005 9.773197282883833
