17
Energy = -5.26745307 eV
Cd 8.144612777098123 2.558099139575152 6.373747409333266
Cd 5.494080638430412 2.9797537308227455 4.771312111226617
Cd 7.8522904463758065 4.832241984615578 4.117610121293905
Cd 5.681174522924139 3.766143647657446 7.752886262842291
Cd 4.824929689720635 5.5279211357937434 3.1669116946317732
Cd 9.945141765578956 8.515140346041589 7.5963083755401675
Cd 8.291374056512339 5.622334186293093 7.18209708410824
Cd 9.401451169101682 7.415410938893797 4.815987072580866
Cd 2.8081437814755383 4.334719254213982 8.767768217299452
Cd 8.547924096998191 6.944234204526296 9.878260838381424
Cd 6.356358355122562 7.3375931206645495 5.18496852445906
Cd 3.6977353414796634 5.466207940707115 5.995706977146532
Cd 5.570632461807572 6.764603198332405 8.186108750761466
Cd 7.91744695983925 10.064271107219062 5.6845950503611204
Cd 2.8055781237294997 8.16988964714344 4.632540276709396
Cd 7.095375767582377 9.360759749343591 8.614761520032214
Cd 4.86808666550743 9.643013287440738 6.5807663325765375
