19
Energy = -5.98509007 eV
Cd 3.3193001154305004 5.006642675954044 2.7035539776329673
Cd 9.187238215405694 6.8057323000794 8.338286389580512
Cd 4.435299535460968 7.743744480307693 9.892957123564436
Cd 7.071214442894616 2.244649123982141 5.727752996882687
Cd 7.265496060829548 6.5235053807303816 6.007451619191887
Cd 7.83932795134791 4.0851010418207885 7.99036733666369
Cd 4.211996985486646 6.727822485949532 5.134726318233276
Cd 6.963721299920152 5.067035892865538 13.19132842086898
Cd 5.041885360739625 9.464950440443834 3.9720359110859764
Cd 7.230286309876535 8.961942705859002 9.45769625636402
Cd 6.143613499928632 6.201245033986146 2.7742355055699384
Cd 6.892269865683299 5.857386272129197 10.226280358160153
Cd 4.9572924694925 5.50885411643831 7.851537053394063
Cd 4.510155203257921 3.628211423720691 5.290546956363681
Cd 8.240612779779404 4.368052358234984 4.034384310379756
Cd 8.427096627421909 9.383437811215341 6.70707035797145
Cd 5.241850782095585 8.728295635804933 7.110105408629168
Cd 7.925220773945194 10.16753829571818 3.8638625289550044
Cd 8.897941942862115 7.327672746619629 3.5276413923670975
