11
Energy = -2.90141185 eV
Cd 6.344601058684595 5.819349750423276 9.217390788415827
Cd 5.402105486111892 9.509772663621238 11.760978816161101
Cd 9.378639744154233 6.6556166100590355 9.002011700693057
Cd 9.9536199809545 9.340056173668106 10.422820825054217
Cd 7.925315495607187 5.283846896894194 6.604817352963318
Cd 7.1169432488348505 8.887042043492228 9.195988670135437
Cd 9.715874828481622 9.330123074010288 7.353237026201253
Cd 10.729303682619172 6.569895301234431 6.146042867092382
Cd 5.681787112765677 7.559930925007534 6.738770939212828
Cd 6.918327722458909 10.366794877012975 6.413563443139017
Cd 8.264107152878003 7.991696636391975 4.9219743656589365
