18
Energy = -5.88733888
Cd 4.808528959449113 5.607980049786612 2.8643843166434966
Cd 3.3869135109791286 7.783691065054162 6.28682170487355
Cd 8.705077960668062 7.037328845248381 8.799785238966935
Cd 5.980801352059735 8.306377129217855 8.188687942502307
Cd 7.662183827875784 2.9630920932153115 5.765415759443378
Cd 5.562751481273837 9.94595131028757 5.604880980824747
Cd 6.061351935801537 5.291320891043489 9.189319836425312
Cd 8.704275780923346 3.5824011368257027 8.776098080549973
Cd 9.462195063525291 5.604076232751045 6.284742402227914
Cd 4.601977458118958 2.9103356632514514 4.63101753831063
Cd 3.355861282075699 8.69643311049122 3.1420870547567996
Cd 3.5585161590670142 4.814325736177459 7.384783856241939
Cd 8.499467683608477 8.715522228654505 6.04163987718339
Cd 6.688236758258588 8.213502318899492 3.405758863330032
Cd 6.0394321222034355 6.062911258811677 6.092004060406551
Cd 5.45555817216235 2.4521039436564087 7.743542437970791
Cd 2.405716227180334 5.304699590102247 4.607209439634187
Cd 7.692599965088852 5.339393096844398 3.823266310027187
