17
Energy = -5.35991955 eV
Cd 3.507213917843476 2.6448845179761418 5.8315559643478805
Cd 8.131656386542236 2.6386243195596775 5.8190639368256525
Cd 9.567100808527252 7.033821953224215 5.8129706460376855
Cd 5.8280906334096025 9.756630412211358 5.8235590150743715
Cd 7.358928781667721 7.923086648920316 7.659282672352613
Cd 4.30604424720254 7.926769806434498 7.6736785979893805
Cd 5.814411641331623 5.822956520781573 2.3151514005020832
Cd 8.298572598991216 5.019282918392791 7.659816473161142
Cd 5.827448101961512 3.2296186954463115 7.666741479197607
Cd 3.359253253029257 5.025848331628818 7.675576284529792
Cd 7.346824386475983 7.921186957621161 3.9767740195835173
Cd 3.347953539519584 5.025000115692939 3.988056281063791
Cd 2.087204439176586 7.04548666879604 5.834853223629305
Cd 8.285401996251164 5.017657634588732 3.973109318816847
Cd 5.813459449309021 3.228601073339677 3.9834263207190608
Cd 5.834985322228768 5.825119535195892 9.331497662531486
Cd 4.29661139609179 7.925675650301645 3.9839381759246697
