12
Energy = -3.32003469
Cd 8.841307961159728 6.683781606360085 2.270229163150774
Cd 8.145620760530855 7.025004734037769 5.3534454091218375
Cd 4.492250025198614 4.963409446776252 7.903886366235257
Cd 7.5923115757172805 4.375458416152166 7.18585668118637
Cd 4.798082428751943 6.685734694190171 10.549473752089197
Cd 5.2520899081599115 8.333321900942337 5.247518961143098
Cd 6.004215774505888 5.7959597166928205 3.383306512748895
Cd 8.532852720047721 3.98550477791946 4.039236870033382
Cd 3.3274823992401386 5.857431686187889 4.998570286534713
Cd 5.264471168591214 3.3158284582960507 5.35861330805038
Cd 6.629878563194337 7.283820106473584 8.018094699350918
Cd 3.3568291812715256 7.932136922340574 7.929160456724479
