16
Energy = -4.80128278 eV
Cd 9.260355449779535 6.3309519287242315 4.6589248787635285
Cd 8.815238934903938 9.25363938036447 5.535077477411146
Cd 6.755621288798117 4.929694762926336 9.347420347691704
Cd 6.99446057249126 7.8886787854080005 3.237634736909508
Cd 6.418523529492824 1.760103609304346 5.107887285455064
Cd 7.948810755158849 7.193436723745673 7.547310383837001
Cd 7.092779987560365 4.865109556408403 2.92978121427762
Cd 6.8846753066721 4.7075439020564795 6.046737252568571
Cd 3.690182715732511 4.59750486058833 9.354379865867234
Cd 5.487384193346173 2.5269280526257525 7.94499516673138
Cd 4.165942926962668 9.196002569703268 3.0003450311782216
Cd 4.8671132198800535 6.917055306099633 7.569587038370505
Cd 3.853139934826676 3.3676390577233635 5.391543886755329
Cd 5.741144608366282 9.174848128706195 5.721167247088553
Cd 4.521625880736459 6.362465067069659 4.525159720516492
Cd 2.2293231985426454 5.497070399638338 6.7666775503923855
