13
Energy = -3.51650128 eV
Cd 12.90668306556184 9.015546637424038 12.039745194867711
Cd 12.738905002104719 6.765596678166009 10.01011116882448
Cd 13.015831094529194 11.896351849793415 13.081945566850289
Cd 12.885297431830148 11.607870919625197 10.099104299991941
Cd 10.07881868151543 8.015403282756639 10.520382951831797
Cd 10.305881844430042 10.94200348058622 12.160332912479648
Cd 12.00778665567194 11.984773484163929 7.260117614644171
Cd 12.391833908647854 9.116533512628052 8.178841211653783
Cd 9.800061113692495 10.908678247338296 8.95114476516484
Cd 7.755178017206849 9.832859590543325 11.07883481014789
Cd 5.6533896117515585 12.224111319880816 11.015348753582774
Cd 6.698945219455219 11.397368407104516 8.196720353506311
Cd 5.011077072693669 9.319444013723398 9.777575113110634
