14
Energy = -3.51365236 eV
Cd 5.799063463600849 6.021743328301833 5.747982475578785
Cd 11.176640895595737 9.353302800243753 9.834556997747976
Cd 10.153292401695728 8.377743549998556 4.008419545952129
Cd 6.106067014635281 8.346750574518873 8.48766100379179
Cd 4.539034950925941 8.677870083304093 5.9265265881578495
Cd 5.763719603556328 6.109924551888782 10.791790993563268
Cd 9.518803244862015 9.625367290520492 12.597620127580203
Cd 7.243302754857186 4.677144015940642 8.366205734607911
Cd 8.579646911993803 7.148832112146061 9.853001748233964
Cd 10.556481199421409 12.089700921382294 10.87892977938265
Cd 8.11834733095562 10.613976380809817 9.471869684095381
Cd 8.967548965788257 5.937360965777994 5.59523659817685
Cd 7.5971682996025525 9.096350790486575 5.5566854831843475
Cd 9.96688213824977 8.307014117829322 7.2517819634308145
