14
Energy = -3.87528017 eV
Cd 11.497628056994175 6.390601465486454 9.061173201074942
Cd 11.245074017776835 9.574951737730531 9.924494311293442
Cd 9.8985766946491 5.932162349979507 6.381562456171866
Cd 11.537263268543436 8.679982190296816 6.826381637542875
Cd 9.638882376477865 3.8441024367617223 8.751379906647697
Cd 9.656410190607001 11.383836938234909 8.040635606095053
Cd 8.76028691821183 8.137373978176928 10.609254234140295
Cd 7.476792122085808 5.954827801663459 8.853213066836886
Cd 8.63960978862898 11.290154140684253 11.09658715298286
Cd 7.624620176592455 10.999535916017523 5.774757790177791
Cd 8.217693906146879 8.511152885030183 7.3194156484206605
Cd 5.946505798100913 8.457466753247665 9.447372524476489
Cd 5.60592786734362 10.750786727607506 11.419227675981366
Cd 6.4971662129323775 11.507641147081316 8.562481287596416
