16
Energy = -4.84563887 eV
Cd 8.46082296312802 7.037723255538212 9.833945211875891
Cd 9.06023793369312 4.02375565608479 8.976852239815363
Cd 6.405970036887677 3.0085696824433215 7.881960843309593
Cd 10.042953270988075 6.427035567381253 7.334156560733235
Cd 7.835911458015624 4.897983524239462 5.874879841985515
Cd 5.56678907570313 7.846532775677932 9.615587817622275
Cd 6.235212857895704 4.886359464717095 10.322349867015298
Cd 8.35368721146522 7.257061742178349 4.001233960239183
Cd 5.323546037286435 11.231667050715687 2.413328436596923
Cd 5.047937561913845 3.9205905982547873 4.944850860665251
Cd 5.0299890929112765 5.702269872090963 7.428235543224868
Cd 7.334677877474376 7.932713083166686 6.856860177079746
Cd 4.203221153935012 8.63579530734242 6.795738700394616
Cd 5.922362283972093 5.887463361947586 2.8363602593243606
Cd 5.723625523727146 8.767524332518738 4.181333546860723
Cd 3.44934290789944 6.533241972599519 4.698613380153802
