10
Energy = -2.40265453 eV
Cd 8.22225804588055 8.534898090713414 5.197624021134912
Cd 5.42445034541998 6.002592998979432 5.524455600091323
Cd 7.671719850001769 11.26962290427519 6.909254363388695
Cd 8.420763143208712 5.419241838906572 4.757389809035297
Cd 6.433542525782338 2.959480171736373 5.662846126443882
Cd 5.378516246358752 9.104884802913672 6.41528940414178
Cd 7.883820537247693 8.47640586010533 8.350244401279552
Cd 7.645679725111455 5.029279993878054 7.731069095126694
Cd 5.109655184628857 6.776157951169153 8.81815614055883
Cd 7.69364895280969 6.311489943772875 10.517725595249207
