15
Energy = -4.33372588 eV
Cd 13.659300016177362 8.822520896839716 6.031868062262649
Cd 12.02289876377386 7.06284181595371 8.394858806963457
Cd 9.491556954481592 6.042992750568456 9.795238380029401
Cd 10.037748191829126 5.165865900946423 6.823726784469499
Cd 11.384156505938197 10.083720539433438 8.378871002770454
Cd 10.520996194639258 8.209380009446734 5.869524255889737
Cd 8.729455673464203 9.220670016144327 9.843297078116171
Cd 8.403384579657311 10.195107895123831 6.995392581234207
Cd 6.592449211750254 6.930245599489526 10.465466912058778
Cd 7.648799138924195 7.202876848880115 7.462537171041167
Cd 5.367127451035002 9.561602645989229 6.771754410944419
Cd 6.449287009644252 9.8211577967274 11.818698761279196
Cd 6.398178510768782 11.390383633907451 9.121249066268444
Cd 4.680365878539748 6.687114966295356 7.820908741019456
Cd 4.335893946683332 9.063730980443085 9.744265437937024
