14
Energy = -3.53603275 eV
Cd 5.294527781010141 8.893963494592125 2.1978543226686043
Cd 3.468421785933247 6.857435299289003 4.027461229537357
Cd 9.415681687917896 6.4320742448298605 5.391788347522368
Cd 6.734235469310014 4.538164852408547 5.353668488173235
Cd 6.65147746440813 7.577724076567999 4.568217876635697
Cd 2.124776689411993 7.646329655957618 6.970141964973311
Cd 4.168149228792994 9.637646568682632 5.225114922691172
Cd 7.876120634642916 8.678136539128378 7.230274549514595
Cd 9.217650474086911 3.8962630821315187 7.257894016367065
Cd 10.027813969410778 6.671214524841676 8.467047872581636
Cd 5.047246788066228 6.818770035775245 7.39335653302221
Cd 6.372365755707202 4.194125338072379 8.400082220352635
Cd 7.194287712890169 6.85893731850074 9.65233546188024
Cd 9.228443274295833 4.120413685105611 10.68596090996419
