17
Energy = -5.20709329 eV
Cd 9.089729041252498 9.0958323181611 8.250505107325463
Cd 10.156756140029023 8.574891018786051 5.31963476293132
Cd 10.788651339098427 6.61600641529093 7.608578110768906
Cd 7.3855746816431145 9.987025466645276 5.706925222749534
Cd 6.2176237285924065 8.205256818745665 8.574223648528864
Cd 7.806464904691979 8.00218201497068 3.2709282199830425
Cd 8.94034857521857 5.701725757499645 5.055496209951767
Cd 7.938889351589774 5.636279778817522 7.9791296759558685
Cd 6.164855556687615 7.187310085092572 5.768340922065188
Cd 5.131372204085056 5.60140056099639 9.807529473831684
Cd 5.113222720857045 6.770913474291599 2.1909067081210933
Cd 3.537894138799883 6.981385045157995 7.377507287555529
Cd 6.443480606124296 4.0465166895008 5.652890372650947
Cd 6.402274287362828 3.0527340490100388 8.64662903956949
Cd 3.7799203367884213 5.480709798732889 4.681927651946782
Cd 3.7821260460908035 3.921314366957768 7.39231465504495
Cd 0.8958898989253846 4.713589899180539 6.291606488857172
