12
Energy = -3.25045421 eV
Cd 7.134207097757861 6.325496284104968 5.545912747692711
Cd 4.406686433315134 9.395790415337393 5.5154006009265695
Cd 2.6806121788259842 6.927478838757445 5.291116915686314
Cd 9.566451022513336 7.977058024421198 4.992103081806933
Cd 4.53361094164705 4.879990041342144 6.49627679139435
Cd 9.908610909747505 8.477738987277634 7.985236019088647
Cd 7.164278991342414 9.31960082622576 6.634818216754669
Cd 10.101053450948616 5.520359092066254 6.9454743938642896
Cd 7.371843254655837 4.282185110913515 7.80828320863962
Cd 5.949907841467709 6.933713154027182 8.374924761593705
Cd 7.526602500843828 9.03375170419555 9.807855584316435
Cd 8.875853906116077 6.146556050512138 9.82231620741754
