16
Energy = -4.68795186 eV
Cd 7.745406524490889 4.8472784499686385 9.09695795804945
Cd 8.014420394831358 7.59713201111276 7.808686628433023
Cd 7.90464501804851 5.5306206203101205 5.491581998370562
Cd 7.715938162893152 2.615607222531114 6.912162790091725
Cd 7.417099518057748 3.0754418113953848 3.7902681428952096
Cd 4.9901361598259975 6.394900193515654 8.056883571589736
Cd 5.800651156099702 5.736451125234704 2.7668819932195396
Cd 6.003602364201205 7.968325616227354 5.560978248581166
Cd 5.460906325299948 8.780935981695722 2.7194897231367694
Cd 5.18343489241324 3.2785284969472377 8.727252287042731
Cd 5.091450110269197 4.003242519350464 5.680042579528553
Cd 3.089333733316817 8.728794596920721 6.707169856005429
Cd 3.0532351437644856 7.269100759654312 3.717954961264318
Cd 5.177841490548477 2.8349986315605014 1.6692404632163595
Cd 2.6194551384193825 5.591725085615895 6.22995065660827
Cd 2.9311467545085352 4.118289861910592 3.3537513476670133
