15
Energy = -4.07609191 eV
Cd 9.512951641043756 7.661660835785904 3.7470605719145555
Cd 3.551863706754334 8.093693510266425 3.951588283114721
Cd 6.5074522778573565 7.165677723671326 3.8358151170492145
Cd 8.835966879574546 7.300426601744668 6.753431868233244
Cd 8.57494249555063 10.160900762378773 5.620233450732431
Cd 5.476530320771609 9.460061743102735 5.871328952897066
Cd 4.7187910019010495 6.34142211572516 6.243587197715823
Cd 8.929498285161358 4.7485691952509885 8.343828550719241
Cd 7.179131098309365 9.608735549427658 8.425548992776045
Cd 6.428371530369688 6.5481879610015 8.722262620730131
Cd 8.620357606364212 6.282662080031971 11.192305929029816
Cd 10.907166646475693 7.226023423159302 9.11788910674636
Cd 6.206018696113161 8.503972535954732 11.162106854210853
Cd 9.23865325796492 9.397728015173046 10.73155148969194
Cd 11.293283156708974 7.481256548246714 12.262439615359307
