18
Energy = -5.7296309 eV
Cd 10.570288769821358 6.895639772831023 4.802936141636582
Cd 8.23699769657252 5.025244690921092 4.595561491696608
Cd 7.904077966196858 7.705083080497674 3.18035437951074
Cd 10.362085691446914 4.41437118983038 6.73432184162662
Cd 8.593542173740802 9.074887221105186 5.775256497369864
Cd 5.1337592614200425 8.213338036812353 2.0727836047487744
Cd 3.597761439632872 7.5628499842786026 4.598215529615585
Cd 10.117063451751584 7.210392308484632 7.944469191701128
Cd 6.23983490861262 7.065999226215347 5.901196574085069
Cd 3.4874162101536195 2.2255645967436664 6.447114318133535
Cd 7.599807031306525 5.280019917788881 7.933464403600557
Cd 3.0859184315572987 5.354782593458407 6.637681434038387
Cd 5.821634646978939 3.8911844681027072 5.6938124797507825
Cd 7.397884766606381 8.451873135593047 8.5145448930973
Cd 3.796189467039457 8.206997546217504 7.592164497499971
Cd 4.811295628100157 3.921100523409996 8.76708099853639
Cd 5.17190600092337 6.662590832524646 9.92690226923855
Cd 5.0586876034677495 9.824232020513932 9.868290599442638
