11
Energy = -2.64213214 eV
Cd 10.548835360007661 9.6878542394686 6.776467477707037
Cd 8.409418600809907 7.502695768816143 11.324010925697193
Cd 9.41574559388182 10.116149394935233 9.662204964242754
Cd 11.306330372211278 7.579047362381922 9.369548577658389
Cd 7.590149315023458 11.244115816004383 7.266946971923276
Cd 9.811699886545863 6.4547657946273125 6.728945064699804
Cd 6.799404024723985 5.274051897499231 5.658877963457297
Cd 6.227351517362548 9.571649657213483 10.0100870114397
Cd 5.270123979685953 6.614551568855363 11.088078067556975
Cd 7.735979592868777 8.524015667946115 5.500265324068277
Cd 7.302833403702644 7.2199767849488525 8.22225472477945
