11
Energy = -2.67482973 eV
Cd 8.217218521157221 5.6032184409461365 5.27060873895694
Cd 5.9909382947558125 7.621073510882414 4.300264054218359
Cd 6.155252253126449 9.39047715773098 6.912513101082053
Cd 5.231558847915065 4.528710076314581 5.794276654348532
Cd 8.86147412758288 8.691065153620645 5.447039908744069
Cd 10.14861206040837 6.367046832511133 7.736989375191975
Cd 7.9799445123873385 3.600382119624176 7.728441929007538
Cd 3.72900653378795 7.288026646930431 6.983194144816278
Cd 6.797381830894388 6.394045095587484 8.142587600551726
Cd 8.651095454809825 9.109800582776755 8.9335258850206
Cd 5.327302065121511 8.49593888502194 9.84034311000847
