15
Energy = -4.08750586 eV
Cd 5.97422182836116 7.08818176203773 3.5701477800627828
Cd 7.2028450595585225 9.969534252493068 3.78898931145079
Cd 5.420271239220162 8.810656365747363 6.061896708615065
Cd 7.149482723241426 2.974428577930688 6.276149177355143
Cd 9.003286619411266 7.332879260159728 4.059369944985196
Cd 7.165160088238886 6.153073759176773 6.3688140395526185
Cd 9.718972571413175 9.945318630084916 5.795608784999339
Cd 7.085855464045874 11.438303669089594 6.546220704819619
Cd 4.364217858071875 4.298178111396611 7.324449810407181
Cd 10.17385982941918 7.0291028107998095 6.913216773784699
Cd 5.29159703825744 7.366453795648109 8.733657732239932
Cd 6.7593278368654754 4.2296640792558415 9.25991083490614
Cd 7.8746729055869515 8.775568311243248 8.033149501565434
Cd 4.991034917770719 1.4243279175579369 8.90939645765217
Cd 3.8776459144676134 5.216780591308624 10.411474331533805
