15
Energy = -4.64307492 eV
Cd 8.561192798669396 7.605345654034523 4.2587001029821305
Cd 5.530388835696562 8.144458069528838 5.1352233180889355
Cd 6.855289178523488 5.278682974124709 5.641003710908787
Cd 9.81706880651921 5.704008815416116 6.295043899405555
Cd 7.703692509825577 10.280333056130551 5.484641109051956
Cd 9.667627922325732 8.653267458390081 7.266591305666109
Cd 4.985823279472514 6.5650487785327964 7.694592999372768
Cd 6.551664601574766 9.200497501316503 8.167202547226774
Cd 8.777838687155235 11.332628599601936 8.578779313395547
Cd 7.912764572926239 6.262563138075168 8.68809234585085
Cd 10.902214455292247 6.761150387511669 9.397496049265072
Cd 10.671703947240353 9.66996973988916 10.319366130455348
Cd 6.068357943147342 7.61278318197288 10.789834189859448
Cd 7.635494038670649 10.199653565200444 11.193177912900332
Cd 8.97133663687406 7.34206729418841 11.702713279484037
