16
Energy = -4.91732911 eV
Cd 8.589037826853216 3.87499877889172 6.124487611902816
Cd 10.481883750736706 5.886957260235019 7.554425003412281
Cd 8.02473080566594 7.097566628342243 6.24954782313354
Cd 6.470437885593099 2.494496065140621 7.97398259309137
Cd 6.965063888612603 5.412234255974343 3.9558162823397005
Cd 8.826309069546406 4.02806008707684 9.331740393108877
Cd 5.440089436914001 5.013014226889577 6.571899948511714
Cd 8.271180381582095 7.131851139795129 9.435719931200346
Cd 6.485791561955583 8.433563427214157 3.629979248153766
Cd 4.022458914684562 6.431238370137341 3.974686387248858
Cd 7.035536655732048 10.026971995542524 6.267419048760705
Cd 5.88070839477037 5.0950387614425745 9.675255538198623
Cd 3.9865787705938867 8.587449468699267 1.6454870126522647
Cd 5.549484692553254 7.771577375560835 8.1470895323499
Cd 2.8608447618098163 6.627723423113573 6.856153245091956
Cd 4.149438087855532 9.126833621403337 5.645885286301958
