19
Energy = -5.9992838 eV
Cd 9.407816415430311 5.066848061596118 4.586615706989162
Cd 7.796991423180111 5.119400641538475 7.401846371506638
Cd 8.82681005548323 7.7539740743214605 5.743620034226468
Cd 9.322389311452037 7.45453218857094 8.809825177188534
Cd 8.68451066461167 3.5311214642398983 2.076497212620451
Cd 6.318925492074022 7.315623514266568 9.362800617553148
Cd 6.283418651004094 9.424114489905289 4.864510118567717
Cd 7.425456450643128 9.668644100159932 7.713687854537119
Cd 6.289871645479954 6.3135722372650935 5.037527149722928
Cd 3.2619133997431473 8.77887680643902 4.10574753893704
Cd 3.523677643408696 8.653857474373304 10.042611533815945
Cd 4.479509192812181 8.25133332184778 7.017932772478685
Cd 7.578314329042081 2.5925403884422193 4.874619560280517
Cd 3.413550472836015 5.756370513165519 3.98698871089925
Cd 4.713269216919494 5.306562878384101 7.80704864321736
Cd 6.348449441023086 2.3897185112596993 7.609526830264921
Cd 5.885219188943462 4.436511341854726 2.725587074578702
Cd 4.457922652465269 3.2437180971611848 5.329314341581207
Cd 1.923733444492367 5.004394021860896 6.6243189802821085
