12
Energy = -3.13963281 eV
Cd 7.981065685542468 5.151589602936832 4.67777838326141
Cd 9.942787273623098 7.717268721951372 4.575317030778009
Cd 7.222884228571803 8.792980431973913 5.005581039182329
Cd 5.626867569003464 6.4434072826028945 6.255460451198362
Cd 4.294027336862471 9.223857013032411 6.206512707283451
Cd 10.01785051356486 5.828060337224356 7.027478220196375
Cd 6.676039801630189 8.69934272677062 8.094186309051695
Cd 9.74761812342377 9.002914581312051 7.518831639811016
Cd 7.264137388962601 4.484142096036609 7.851899538074802
Cd 5.250481883967415 5.808738140219644 10.099407603952079
Cd 3.2837220398655775 7.8053586980424265 8.784544232469418
Cd 8.38143977201901 6.73126198493417 9.591924461777811
