10
Energy = -1.92069693 eV
Cd 6.746161530083551 8.533002483691348 4.758815135383995
Cd 4.896995601270525 5.560782535773993 4.110405492548411
Cd 3.3741950897326918 7.875787396947495 5.753137721477104
Cd 7.996456260927375 6.049973831847949 6.280442427794823
Cd 9.229633596640593 9.09339164750211 6.878405024689449
Cd 4.963672261628885 5.539143021904415 7.641483715566993
Cd 10.983993042367564 6.501525623046553 8.57056584300569
Cd 6.368183934356216 8.345239630059796 8.028031086087333
Cd 7.830175788292234 5.625143086635549 9.425563447510374
Cd 9.38877483679623 8.654252684686263 10.331392048031423
