12
Energy = -2.94980923 eV
Cd 4.7654292113233385 8.942473394209985 7.50242221999058
Cd 5.277650217077794 7.026023644955577 5.057883998482803
Cd 7.502158912373852 8.416509473516536 10.160074807972473
Cd 5.939181684540713 6.1784165285730595 8.146276960730328
Cd 6.384563095660369 11.111795214304447 8.941925111138172
Cd 8.124252494231126 7.403763293582836 6.280726693502552
Cd 11.117973558141879 7.754568925916031 7.258639566269217
Cd 9.062083996475472 6.028845283184254 9.022523023306462
Cd 8.925079641541673 10.149654662396168 7.588137954924751
Cd 9.230034396374396 10.873848011721412 10.671484957445104
Cd 12.040811460883418 6.476290782180919 10.039484662817866
Cd 11.844276213291522 9.58281489476661 9.695059865886565
