15
Energy = -4.3027584 eV
Cd 5.976819379029356 5.606040691443735 4.815641066814636
Cd 8.99572985332746 6.2520149921207455 4.39015654450819
Cd 8.828784579271487 9.050078885183218 5.536130423499444
Cd 6.070949083121598 5.802608948300568 7.911211898367873
Cd 6.573897730868893 11.540146949479032 5.277633422140141
Cd 6.001444231741884 8.454963629337279 6.457197412104603
Cd 7.867319559373526 10.617752236038616 7.997319135173425
Cd 8.245255595183155 3.9016155823586534 6.270813361625974
Cd 8.995750860210588 7.507688856184869 8.162912550570816
Cd 4.210141992710694 8.243722046358732 8.952528678508298
Cd 8.657797369760178 4.705523994484121 9.288216090777679
Cd 9.164112970785824 9.449489514526359 10.567607479625934
Cd 10.912463762482426 5.412141536012359 6.858362066101968
Cd 6.152465725293672 10.022710788693367 10.468195910515544
Cd 6.944240925260891 7.030674967900297 10.643247578087704
