18
Energy = -5.76952931 eV
Cd 9.77800886024265 4.243813754803494 7.586044067550484
Cd 9.33883387270015 7.198782608199846 8.009386033419979
Cd 9.945438641124175 4.362579172189304 4.556325789090159
Cd 8.912476572547794 5.254478634775095 10.382998798621959
Cd 7.975650660870979 9.517147385701964 6.791979821475533
Cd 8.145274848110367 9.512768101093064 3.714658492383964
Cd 8.078525588751416 6.710255890971235 5.0701980894859675
Cd 7.294825648223583 3.434821323580131 5.911981452137484
Cd 6.243062637181618 7.077385098275096 7.564668789985076
Cd 5.051108568137249 9.832769287346279 8.082575342895854
Cd 6.472173772591306 4.393359545092172 8.8280796061036
Cd 5.607982348972628 7.9396289433284295 3.401981034790576
Cd 5.538352392451136 10.468929926333592 5.152482435965611
Cd 4.35834318634169 3.1947877434691896 6.982644607203348
Cd 5.235795960326234 5.410712572819994 4.809425147989765
Cd 3.4071829816453105 5.753526651960674 8.62050056986705
Cd 3.72695900114979 7.893701418111131 6.016778363378412
Cd 2.2405044392826783 5.151051922599907 5.867791538305182
