17
Energy = -4.94005568 eV
Cd 8.792095180587678 8.117408095888 4.448877020980107
Cd 10.087092761175088 6.286305962225831 6.610348930456481
Cd 7.251568167024542 7.841017413658287 7.519890897945678
Cd 8.514430311727988 5.4750748299638206 9.17632274470939
Cd 7.040029898167446 7.468963851689798 1.8923066039467558
Cd 5.7203115196443655 7.755239623789218 4.7573938399666
Cd 7.735046718268534 5.2166503660812245 4.8417584096405335
Cd 6.305316420085691 4.230233513530945 7.550790342177184
Cd 5.693907224942028 6.424993997252535 9.775342415414192
Cd 6.386610530470692 4.448361677385929 1.9613421926767998
Cd 5.532288179103485 3.1874981976822454 4.747701110470474
Cd 3.7712098150463915 6.365435715354584 6.561024192135981
Cd 3.8266078942203428 5.439575940069652 3.357572006333156
Cd 2.681509747095131 8.02937895465719 4.282067863359873
Cd 3.29389180078389 3.3006344960346845 7.089898539040906
Cd 2.839436028161113 5.443315782845651 9.234547704773577
Cd 2.4809031761133293 2.7904519638024774 4.177369605665053
