12
Energy = -3.07012888 eV
Cd 6.241715221835101 7.867408238773036 10.531790167389152
Cd 9.527851773585056 7.866151415907356 9.940931054252806
Cd 4.540512379893389 6.309167683559892 8.142590986931722
Cd 4.54573959302926 9.436833376043998 8.141598179499345
Cd 7.575631833967226 10.155552325647543 8.89229142002252
Cd 12.485390381386784 7.86862895188262 7.4633696028773615
Cd 10.058492997435629 9.64717900989804 7.061305483223664
Cd 10.060673972645942 6.087930143376882 7.063232031269996
Cd 7.250228084225803 7.868339293914077 6.597090500498382
Cd 7.288639596863814 4.995949909266126 5.847163302894315
Cd 7.279313404186796 10.738913294224536 5.857313905620687
Cd 7.569427560167409 5.581887490625399 8.884615830845572
