13
Energy = -3.49848077 eV
Cd 8.953531646573225 2.6953978985961347 5.458917590119364
Cd 3.9623008854441353 5.636613429935612 7.01519067391782
Cd 6.085489077489196 10.550106828084317 6.123822027986892
Cd 4.20840011560694 5.074163071955118 4.02854845320573
Cd 6.220139506078899 7.738535337133811 7.728198545782513
Cd 2.9561852187699964 2.767090943376565 6.091800759097293
Cd 3.276899131376765 8.711223932642131 6.278339507490457
Cd 7.353041378582477 5.037622967298407 3.6970378424330925
Cd 5.989336727786651 3.2388133956382132 6.043977226169759
Cd 6.315030691905898 4.917767418609747 8.949325400422772
Cd 5.887081310196024 7.659178545440774 4.581616601198763
Cd 8.229975399136848 5.5849887015526045 6.5656759545893735
Cd 8.818383869379925 8.644292488063408 5.693344375913153
