13
Energy = -3.19616051 eV
Cd 9.160624908458209 9.810464940253825 7.404798064825285
Cd 8.429255440910188 6.551612353456718 4.829509219973197
Cd 6.303536373355379 8.25169624985398 6.707071161228504
Cd 6.2684336287814455 6.118472537277727 2.58912585775424
Cd 11.170211255724677 8.319905846332635 9.299968040978982
Cd 6.335156495153028 10.685543147574299 8.940302629204092
Cd 8.449944053332345 3.8719084255868403 3.1570418624966923
Cd 6.064776687722669 10.260562752716837 12.079602650700787
Cd 8.935935304425806 6.675417729644 7.966970560086452
Cd 8.459036348653132 8.924527697822072 10.586963793966355
Cd 5.527448183009044 7.823551182691361 10.001175095287435
Cd 6.143394749895608 5.439085641039787 8.134604329927877
Cd 6.053701626771949 4.334162226102107 5.164424285764006
