18
Energy = -5.52495128 eV
Cd 8.317849173213641 2.592847358374262 4.12237791847382
Cd 7.845999830419103 2.452255873578187 7.169243121880208
Cd 9.267549939940052 4.98934825254596 5.782607020083619
Cd 7.405494979619496 5.4819893375999795 8.346148569942843
Cd 5.353288303590386 3.296855683007901 3.9262899457318463
Cd 7.762105913894107 5.405528117695541 2.9527281861652104
Cd 6.164825966157212 6.061084571615929 5.452764786770188
Cd 5.0854960279087615 3.6126396010373716 7.114251643242777
Cd 4.801174312783397 4.405787192752187 10.071709546991455
Cd 4.966068355428339 7.36349084854573 9.38197224047958
Cd 6.708776996104055 8.401605537536408 7.0877493828988705
Cd 4.527406493127247 5.7442521198576015 2.1776590840438823
Cd 2.5452214821493153 5.526056530048002 8.258856849489547
Cd 6.823569735823633 7.654256944656496 0.9304771201096451
Cd 3.1115801985899916 4.943731004431271 5.35676689575903
Cd 5.129829190672681 8.49752604414969 3.5870295969469614
Cd 3.7420501872672385 7.916427971429575 6.424996114512421
Cd 2.2251696827392786 7.279850086963103 3.6101035420546608
