18
Energy = -5.73545231 eV
Cd 9.699344297245487 4.99037493182191 2.2261337210408314
Cd 9.48692679942528 5.636479345955306 5.381640575598659
Cd 8.394711637944413 6.764617092635562 7.93766950092589
Cd 7.312097352232686 9.094322562197386 5.762766279733954
Cd 7.809393518566837 7.148804462919479 3.360979955015298
Cd 7.902990614712308 3.683686917440581 7.259807312026612
Cd 7.35270964447235 3.99255560191637 3.8821575015918066
Cd 5.915742476181081 6.09477322877371 6.168828858086661
Cd 6.059375409981193 8.705686288052798 8.650038485533138
Cd 5.195963936676643 2.871451969875493 8.609937279051913
Cd 5.756417548222221 5.702672442940902 9.417166285220107
Cd 4.989612605297198 8.077961691260958 3.7576977117183903
Cd 5.27119029403056 2.58194035290197 5.59557559119667
Cd 4.450155022466613 4.949563803014343 3.7006925527651515
Cd 4.177938714165716 9.635639045099888 6.3270982715640365
Cd 2.560302437353086 6.9670060797324105 5.3433959468405945
Cd 3.293250829387057 7.301856512680786 8.288546025628763
Cd 3.017830059843576 4.3849601481205305 6.999415428724869
