13
Energy = -3.07669295 eV
Cd 8.640396949451077 9.333544784005227 12.352023120836199
Cd 8.356879558615615 6.714450399238366 10.28914363860139
Cd 6.46725007497631 9.074637229073893 10.186991955894914
Cd 9.722684194959383 9.138995469546007 9.348045679056487
Cd 10.652536623462087 10.911622918370028 7.00849060957631
Cd 8.660364101586415 4.394492514695117 8.276329326073494
Cd 7.661511807285287 12.069517056661097 8.050276587947558
Cd 4.816319406100417 10.652104152292289 8.344717841243273
Cd 9.635027092012024 5.486593951097954 5.400353365886961
Cd 7.987211199919814 2.8161670990710674 5.537286844004903
Cd 8.863955450499205 8.469093294502303 6.096995679168641
Cd 6.4950752539906444 5.408535399650499 6.134635330307387
Cd 5.903722540177703 8.443530034798192 6.603178733472468
