11
Energy = -2.67073735 eV
Cd 9.945581163339094 10.124877263007825 8.854782838351447
Cd 9.493023913884597 7.617527321200114 7.089998839944432
Cd 11.092579947968078 7.160003416010997 9.740023878730998
Cd 7.748335091159187 11.47540326488125 7.036896862794021
Cd 7.259283623117631 7.386243837148732 5.126710175028236
Cd 7.388639431622672 10.289360765321776 4.277616622770525
Cd 8.574973493722851 5.315687757561903 10.425728092163894
Cd 7.3501034485146235 5.480196803154647 7.611049655930264
Cd 8.701969956511402 8.266384038877774 11.378235320777163
Cd 7.032325030169018 10.506863440240007 9.936823715891382
Cd 6.373250528077656 8.336206913016884 7.94822279598552
