13
Energy = -3.39598943 eV
Cd 7.908994916903194 8.136405283603036 6.289699534238097
Cd 4.9956645768486085 8.133202926838216 5.341898712998033
Cd 10.496981373664015 9.818959860008377 9.719637609234033
Cd 10.497301715932291 9.812244964401438 6.542679036496016
Cd 7.9583600640162775 10.631634664031907 8.139922413737864
Cd 12.535423005758792 8.139188641760096 8.134619324176551
Cd 10.501689642363393 6.464288777395323 6.536237155904125
Cd 10.499869046113153 6.464777486959474 9.717842278203136
Cd 7.969290563929834 5.640003864335265 8.133160773975646
Cd 7.912105472473245 8.132997934907594 9.988118715569101
Cd 4.744346346969252 9.680941328863547 8.140670441576685
Cd 4.99833875452338 8.142374594256903 10.947527013891458
Cd 4.76025533691505 6.581276155152213 8.145959138616094
