18
Energy = -5.82810053 eV
Cd 8.521280621662495 6.811019416820806 3.1783434970432025
Cd 7.136842843925078 4.423577874244846 4.4309831425003425
Cd 5.157806579601018 2.2802294941374264 5.363502339849787
Cd 10.327676224269931 8.057067030177361 5.17528588119276
Cd 5.880922955837539 3.8697011167150235 7.893706125300394
Cd 7.481573784535617 6.0994925425587825 6.816594575574898
Cd 7.804936190762846 9.677997699522276 4.235846137223834
Cd 4.15873821833656 4.823281663034292 3.758917038631163
Cd 10.269130324069774 6.396292755212354 7.723419704951966
Cd 5.733002651624364 7.370725355389505 4.56543275696813
Cd 8.558461021752473 8.913767086641457 7.713402102805641
Cd 8.673606260977445 6.916738427189067 10.275211059113797
Cd 2.7296476075068665 7.148546933385158 5.302120235873572
Cd 6.004043466035899 5.652285160900659 10.336966009750281
Cd 5.804482758354422 9.53437372311743 6.799986515442082
Cd 3.1252749157536197 4.355422839737461 6.612695100143224
Cd 4.591161451005403 6.8387954463057365 7.797198577522164
Cd 6.0224705299309695 8.718602078965613 9.924905637943601
