10
Energy = -2.20708122 eV
Cd 8.49582174241301 6.199915409219579 5.305722640396477
Cd 5.5179943757529895 4.803746652514586 5.762036133988768
Cd 6.006058906697159 7.997261468323244 6.400797804426952
Cd 10.482546034849358 6.351263493479895 7.727471336399361
Cd 9.925244250139471 9.015981325418448 6.090316063027259
Cd 7.412580300499806 10.661880351152972 7.536686223641013
Cd 9.37505065730995 8.949061991629648 9.381970359908667
Cd 3.99129698820603 6.264299574787324 8.569924834212541
Cd 7.332834404171451 5.818248832343238 8.337913876804183
Cd 6.1584687234410955 8.636237284611669 9.585057110675379
