14
Energy = -3.23401275 eV
Cd 4.138743330202106 4.772653942860699 3.3227902634135327
Cd 4.769023733374783 7.637309913281315 7.418566456588181
Cd 3.607345466359322 7.841705777810307 4.216652986036168
Cd 7.028556460546471 6.01095899996813 9.391355023089082
Cd 8.925894111725 7.386869182427527 4.582923365462949
Cd 7.099418819844824 3.1838933963267273 7.800675166776721
Cd 6.345549282149002 7.044524804660714 2.6691576322910655
Cd 6.371301221294639 9.350428370411034 4.949314393996217
Cd 2.5542658957861066 5.416172509714697 6.079274672124292
Cd 4.519220700332338 2.8408553088459443 5.886083539726294
Cd 7.270546562654997 4.402667687600241 4.621356892460168
Cd 4.265088820431912 4.5005605991877875 8.661641581519403
Cd 9.304122665546387 5.456482636408241 7.148509387609745
Cd 8.082317541430555 8.43631148217468 7.533093250584228
