17
Energy = -5.35156027 eV
Cd 7.265146053755664 2.8911036017625844 6.287997811869466
Cd 5.236901602285875 4.273134727202208 4.390573024307086
Cd 9.022433757745185 8.352038831348615 4.553023815896703
Cd 8.073620152130802 5.426094140005343 4.858018632109271
Cd 10.392232261145875 6.760917842121138 6.844749209054173
Cd 7.870984140857277 5.466749284529641 7.971027508787005
Cd 4.3382161967466795 3.019921819273449 7.265084279089921
Cd 6.572238832283892 3.0630718904042156 9.41101248527547
Cd 6.155504069745228 8.180840619604353 3.4421468466322045
Cd 3.527861934654612 6.606728212874782 3.084141108340633
Cd 2.9104505327024923 5.487656517510402 6.139394136714249
Cd 5.621632715853503 6.91755315935192 6.242466520789063
Cd 4.745199566078054 5.612500040439644 8.857841460636596
Cd 9.08977920567845 9.330759251010026 7.6866329422821265
Cd 6.557434616878565 9.865618832446149 5.942915701549863
Cd 6.580425340339534 8.112883216249386 8.888865582424437
Cd 6.598162628625412 11.190651621372483 8.692332541748996
