14
Energy = -4.03274322 eV
Cd 8.998465966056992 8.024425999502263 4.653903746392257
Cd 6.266112918731128 6.046916079929862 3.948564486367598
Cd 7.977367027127093 5.89367552610484 6.486116232304388
Cd 3.5838068725827394 6.906515060456724 5.491493061821171
Cd 6.197243238162477 8.533230448119896 6.001692903151171
Cd 10.871091193250917 7.840284696242933 7.143744807056807
Cd 4.7244240520268574 3.988030634734373 5.8085019478310365
Cd 8.876219711028043 10.313772978737386 6.711716772881265
Cd 6.442718778345217 10.147039818325078 8.585838073437518
Cd 9.381209502944555 5.933220062000194 9.116578486265231
Cd 3.811762719100184 5.60590293613191 8.355587745087238
Cd 6.4502394559865115 7.116190745669121 9.014080202535698
Cd 6.581914125658186 3.9558120570780244 8.387191889371158
Cd 9.106992785875901 8.964551303844194 9.564557992374539
