17
Energy = -5.41683221 eV
Cd 9.229600072274534 8.966841169561448 7.238328917113103
Cd 7.413721644545361 10.930580432780516 6.055407333477723
Cd 6.449652470735411 8.423291621841534 8.738946448468656
Cd 8.852912533092294 7.004435689836543 4.842081029517461
Cd 4.7282306949631066 9.58268758357162 6.426866818536746
Cd 6.5610665371736845 8.948492730689955 3.9301416754320053
Cd 8.129959061044598 6.1414835218405175 7.631005216012446
Cd 9.661957106809375 4.147116441204825 5.824891445198071
Cd 3.5097760744502144 7.437486589107017 8.130373541875649
Cd 7.9278965499794065 3.455771101026399 3.5378198642736027
Cd 6.829591852812597 3.4682658025867266 7.060030033883134
Cd 6.573909125975342 6.113737669533703 2.955336184393225
Cd 3.3938670916184255 5.162519906054383 10.079897861800191
Cd 5.448437893538428 6.651212046145888 5.7922566318047295
Cd 5.069370472499358 3.8583865658664678 4.54814814645185
Cd 6.300223890399955 5.246177672597321 9.828821827647602
Cd 3.7642368597243197 4.305923387391394 7.224056955750627
