13
Energy = -3.03507602 eV
Cd 6.652697968978004 6.652697082654064 6.652696350176288
Cd 6.652695310006185 8.406410669259614 9.4851751538463
Cd 6.652696196330123 4.898981723400634 9.485176040170105
Cd 6.652697082654064 8.406412441907358 3.8202184328303503
Cd 6.652696196330123 4.898981723400634 3.8202202054780976
Cd 8.406412441907358 9.485175886323939 6.652692804880526
Cd 8.406410669259614 3.8202200516319347 6.652693691204331
Cd 4.898981723400634 9.485174113676194 6.6526945775282735
Cd 4.8989808370768255 3.8202191653079915 6.6526945775282735
Cd 9.485174113676194 6.652695310006185 8.406413482077467
Cd 9.485171454704238 6.6526944236822425 4.898981877246932
Cd 3.8202182789840524 6.652693537358167 8.40641259575339
Cd 3.8202182789840524 6.6526944236822425 4.898980990922992
