15
Energy = -4.40107901 eV
Cd 6.737829556044634 9.599490828319665 3.2052480108721686
Cd 8.146818248163903 6.900878487604106 4.370184073459581
Cd 9.498734336268159 9.500614425419041 5.09106670567138
Cd 10.562900324147101 6.749632267002124 6.4358298847867195
Cd 8.412858843163113 11.447357561483024 7.178674796462614
Cd 6.526628154296708 9.073169164801698 6.216359825100613
Cd 7.5702929150866805 6.289786954261101 7.322723431651605
Cd 5.164826674245707 4.526906403160633 8.526171096408563
Cd 10.68947002658962 9.546005815967394 7.937007177881598
Cd 9.784721996138586 6.968437029723805 9.503965471859676
Cd 7.588400154544451 9.17286468710782 9.113362557044475
Cd 4.86786446729123 7.704488204595959 8.309416712283124
Cd 5.147563833039965 6.357860776378313 11.013432092671334
Cd 7.777432187085218 4.791282848775751 10.296306249892648
Cd 7.877365178909466 7.72493144041451 11.833958808968129
