18
Energy = -5.66486907 eV
Cd 3.4316481035150823 6.332036789437276 5.413403567184497
Cd 5.651616694525002 6.072212075816294 9.623848815589126
Cd 3.9040609922551646 8.783223290179045 7.3162137022854585
Cd 4.787111457352219 4.080069589093526 7.083091911385776
Cd 4.466683196439157 9.178885082585275 4.3154365938055985
Cd 7.098594944503321 3.493735412466946 9.000916582906223
Cd 6.172903360996899 6.851718354339609 6.719925983617023
Cd 4.397459903133596 6.525802058079653 2.5462298832787043
Cd 5.6808410019652875 9.140854939678116 9.774403790727218
Cd 7.61482971627567 10.760597021495203 8.126608143969799
Cd 8.517385758631828 7.891564099238954 8.754776252059113
Cd 7.356326222654957 9.58797855050681 5.405956893541538
Cd 8.763126892389291 6.73819866482942 5.297376135800245
Cd 7.100747128186951 7.829071040842937 2.8826479475567295
Cd 9.31489405108024 5.176560301003209 7.8653647425534325
Cd 6.330542804802085 4.852419113567626 4.158952659275109
Cd 7.845053471280853 3.101488496339224 6.04932215837931
Cd 10.064521816600282 2.1019326370886304 8.16387175267283
