16
Energy = -4.76323671 eV
Cd 7.427568435214114 9.834979094978497 7.301343786313554
Cd 6.545609043907457 9.487369630933339 10.170945197643547
Cd 9.322977834089466 8.31174674508948 5.536562169759265
Cd 4.296509278569301 9.816677120401973 8.067552705923532
Cd 7.273965477582395 6.425333935807923 7.41571478892486
Cd 6.037532963911767 8.115910629434616 5.165645225594345
Cd 5.3706621131962216 6.760388295512672 9.85267168009368
Cd 10.490598875665391 5.39402344217848 5.744754001499643
Cd 9.88264964065542 6.690656005751803 2.972079614309159
Cd 3.905982994965817 6.835559557306549 7.041373910005412
Cd 5.202744330454623 4.244872093260746 8.206559910056352
Cd 7.41131923293012 5.410268042946531 4.24106036093047
Cd 8.113546051759316 3.5826451966788255 6.814073836886113
Cd 4.339911012593999 5.792757950519883 4.0427057781039295
Cd 2.7829340183694042 4.119374261868619 6.096969944324857
Cd 5.546980448488475 3.1289297496824817 5.2814788419841205
