12
Energy = -3.17721647 eV
Cd 4.307423239855237 10.053735863946091 10.232731725410888
Cd 3.7729423094485695 7.327733289138128 8.421690052347339
Cd 6.877152677497758 7.426030601185214 10.161452793518897
Cd 6.270401054804839 9.231643388500599 7.7185491404740265
Cd 6.545454665449666 5.951616006866292 7.4397045327509375
Cd 7.340214062615248 7.80570452996432 5.027385765978646
Cd 8.597631823014714 10.416206958819117 6.193255163472744
Cd 9.31939786014184 9.05146796347824 9.003231792079243
Cd 10.22075743496414 7.7196405261906955 6.251954400239974
Cd 8.81192963734227 5.022617950189621 5.624516904706817
Cd 12.165450511211787 7.694963289226199 8.599365487041592
Cd 9.37982407440327 5.96332697232436 8.785935838478753
