17
Energy = -4.70607931 eV
Cd 7.448025347748566 9.367451076695586 3.6196432784017634
Cd 7.0033148446341995 6.610142204889704 5.283367408606035
Cd 4.735595368026561 8.4854282371628 4.831234132488142
Cd 8.881905508974858 11.647435234334505 5.138719997073803
Cd 5.759665582454667 11.412291644394983 5.351421531756644
Cd 6.924704390715207 4.555466253673703 7.44016564013907
Cd 8.995070582382045 8.710545390207116 6.3197976395743645
Cd 7.464097845224287 11.20555849333941 7.893513313787168
Cd 6.129835169606279 6.385581464633135 10.041473016527881
Cd 5.850308538865965 8.548567904683736 7.672659809423283
Cd 8.472751179281106 8.72504556172646 9.327686173100574
Cd 8.894056924676205 5.546441949956939 9.563315554954455
Cd 8.643831506388992 6.234373126947414 12.597315202035162
Cd 9.424191122200185 9.27860444345462 12.30360451265545
Cd 10.788134987612905 6.61247162805345 7.577947618868241
Cd 11.432945682641169 7.805509042641691 10.193663437840415
Cd 11.581000640299752 7.312735192694954 13.439926186314441
