16
Energy = -4.87262332 eV
Cd 12.01657674940002 6.1305662236060865 8.12570294435174
Cd 8.408792382751713 7.645104276512163 4.193534632296343
Cd 8.557794030597435 9.72253146276074 6.56350942447004
Cd 9.197991097962037 6.742904589999801 7.149198069805534
Cd 6.358496786331464 9.923626929423186 4.45435589642851
Cd 7.390500465896127 4.954269886107956 5.380842046774503
Cd 5.1949946761399 7.187688644331501 5.063056920767597
Cd 7.865698454160644 8.515352286398796 9.315386696928364
Cd 4.984996267404712 4.811157334519938 3.130238150868304
Cd 6.657628542095591 3.177594826115935 8.010113459795736
Cd 5.063325087206235 2.8423725927322487 5.458371645460928
Cd 5.5204794577315885 9.336542948837588 7.456366810926133
Cd 6.269004124424407 6.197031652853265 8.031676292864432
Cd 2.7905790305178786 5.0442812285867 5.292708751439641
Cd 3.7011305147543987 4.052547860211763 8.175385037163439
Cd 3.377135756654582 7.071550681030878 7.554676643687152
