16
Energy = -4.79021359 eV
Cd 7.447408146475306 5.525613322256722 3.661567406280026
Cd 4.385734380972598 5.274186661837552 4.372405154191093
Cd 9.14053922994458 8.594785759447207 4.303266025530302
Cd 5.699318938052367 8.09142370450526 3.745050323268088
Cd 6.358091957831435 3.816238677646856 6.269676928017969
Cd 3.74463056748017 7.579616035869572 6.345565102419288
Cd 8.299299595311416 6.078665159208135 6.492679005459099
Cd 8.95204765464586 10.206381583532139 7.433620896519855
Cd 3.4765615462137247 4.584611525426309 7.3630457912818175
Cd 10.712295768079827 7.647737190694519 7.360053596443746
Cd 6.528137026714448 8.633251147264632 6.589947356599181
Cd 5.935403429147577 6.2680086729763405 8.463856953829005
Cd 6.5042660153986604 9.377684348997454 9.47993368425878
Cd 9.430773805883627 8.555855390083053 10.097230582372672
Cd 9.063165749081806 5.573320414570402 9.335803298807702
Cd 7.019273490116375 6.889567707034185 11.38324519607172
