13
Energy = -3.44009857 eV
Cd 11.663751754752031 9.462988753052255 8.398333535364742
Cd 10.212283817059703 10.752822458364642 10.7984310900892
Cd 10.097408615510014 9.213477647652253 5.753477435468199
Cd 9.543030718813496 6.633216908176978 7.430561222932832
Cd 10.267995224853653 7.503812638553702 10.368829387457263
Cd 9.083550622450348 11.457090529912518 7.78964660186626
Cd 7.442510892157807 6.543017585578972 9.68893657703575
Cd 7.966633120607125 6.50535080278927 4.758884513817127
Cd 7.304793826124446 8.906112803094715 6.911693639506265
Cd 7.522438013699407 9.562727956566045 9.924174769088836
Cd 4.842839335265996 4.96602127272365 9.073044269370746
Cd 5.297100550972778 6.277378486753095 6.321904422549262
Cd 4.7204057436206215 8.207325982735505 8.766433883662325
