14
Energy = -4.0285278 eV
Cd 8.010619334828696 6.3026031681468355 3.6887192410193776
Cd 5.324565438363742 7.029519224317534 5.442571964353098
Cd 9.668290142302471 4.3132798432736585 5.36030368957373
Cd 5.252328227746892 10.121598506370868 6.45136589607727
Cd 6.599299618486697 4.016788686616881 5.345967537975162
Cd 7.914326862166269 8.470420114100817 5.921324351783301
Cd 10.582171572435223 6.971403657520775 6.502076484135209
Cd 6.194943496473591 5.648359672065128 7.964766116935079
Cd 9.062329418321731 4.464666170422106 8.329257308740637
Cd 8.036161479806832 10.614700068122929 8.066774297271925
Cd 3.772445539660374 7.67955888440039 8.231433454074045
Cd 8.40961210862341 7.541992309899808 8.74688595750482
Cd 5.895671368422894 7.109016902701372 10.618424914609724
Cd 5.470433106966517 9.909290506646395 9.52332650055211
