12
Energy = -3.13716865 eV
Cd 6.682668243945263 4.113331717801559 8.858287769189284
Cd 5.392614676032524 6.196475259306001 7.1170815225954405
Cd 7.644715771936113 6.307281127745108 11.03736671366378
Cd 6.6811422196259835 8.370794244655915 8.77164339357027
Cd 9.49919370178307 5.305318696725566 8.745211517394855
Cd 8.007332458746065 7.182387175633116 5.865725904528864
Cd 9.609397359223367 8.397317531350634 9.540360142808751
Cd 5.601417231738109 9.070381255492823 6.047036502030847
Cd 10.852570915129292 7.267579541282857 6.74293060367788
Cd 8.083375805754049 11.215212854867216 9.259950074796755
Cd 7.26579656133571 11.572424866410055 6.156299778421817
Cd 9.900306066203672 10.224586372700456 6.943212528994646
