17
Energy = -5.2305572 eV
Cd 7.838330056190894 6.611537364558303 10.513247965558401
Cd 8.382425607574026 6.278607741114865 7.56287696044105
Cd 8.343766698832487 9.26297534945672 6.925716701751858
Cd 6.751845530923884 3.7013555870268067 8.056154111928253
Cd 5.739539631330126 7.997241986132508 8.822238343659642
Cd 5.268943005244504 5.001447508761748 10.399176914134207
Cd 9.018894183951566 7.507709278713201 4.499128236861545
Cd 6.372339105297419 9.212096032629326 4.619701369774581
Cd 10.296157078708362 4.865124329945732 3.5630737202353315
Cd 3.8668371471537064 8.236212622821947 6.469028415197551
Cd 3.9464310485013416 2.7427121536188483 8.558537203568921
Cd 3.5532257322925287 5.6519510425212856 7.890784701992211
Cd 5.768461314779761 5.80161410971161 5.789838506931265
Cd 8.281925604044382 3.9600509687283156 5.569768818454997
Cd 7.3686799927201445 5.4551683548462755 2.7621962194375485
Cd 3.279707422546241 9.58098878531662 3.8641322006379233
Cd 4.856943998081336 7.067659942268615 3.068852767607431
