18
Energy = -5.80103618 eV
Cd 6.294186954722989 10.335881458807997 6.622239565206302
Cd 3.6892118282974824 8.52547601034964 6.539070354313209
Cd 6.6703992727243655 5.929199719583855 10.640224916879504
Cd 5.38583852199266 9.0119275786879 3.9968016816335523
Cd 8.740585388987167 8.521468732933679 6.560105295888433
Cd 6.8294799669405615 8.538801163473838 9.014646880097747
Cd 8.03209122568863 7.353399644212184 3.6382701897137046
Cd 4.179240301668475 6.821170483935883 9.096865246297572
Cd 3.362323364507638 5.444339617687251 6.507655834800854
Cd 9.942624278669067 5.843852026562206 5.602167352379144
Cd 6.326207530066478 6.503916949882329 6.353645729012956
Cd 8.725701610081204 5.91408657237826 8.414052677490073
Cd 2.8577546492489514 4.277184779616623 3.7439259264260345
Cd 5.248529203954539 6.061347407477701 3.413735995747939
Cd 8.119394152791104 4.194580490229212 3.666071251033117
Cd 5.773937428713798 3.9961753470915364 8.360935667229784
Cd 8.314364932265837 3.3281304219122356 6.68906994244577
Cd 5.562289606419595 3.504149765898403 5.247620051903323
