11
Energy = -2.21146114 eV
Cd 10.857927141471727 8.998576619083677 7.97599790715132
Cd 10.91075287711048 6.052941686370921 6.517098514024209
Cd 10.12809783641329 6.320795668506358 9.825608543537626
Cd 7.996224379337465 10.607605836685396 9.446083760643997
Cd 7.899677551463916 7.768853442220242 7.974261883144696
Cd 8.805570100560432 8.039648673654375 4.903656958585343
Cd 7.615218415972628 5.1078497120407444 6.165421888338994
Cd 4.924319654551875 9.424754320929836 9.572175140474194
Cd 5.869613957428397 9.69775287374716 6.4168951187076955
Cd 4.915078551669143 6.666292624248909 7.548147968212803
Cd 7.465998806417549 7.823800415063956 11.188592295957012
