16
Energy = -4.88501112 eV
Cd 10.686510683451019 5.745118586817482 5.012399027744967
Cd 9.495290640009182 7.237192018015404 7.482133017503117
Cd 8.217282802250981 5.954298397353775 9.875351194150893
Cd 7.766511703041896 4.8928617385059825 6.219153187518273
Cd 8.112213607923673 6.0448577149049925 3.279004810438583
Cd 7.178931213361461 7.9789064817910065 5.558682568105394
Cd 6.004702816577442 4.208988017871856 8.698374112758339
Cd 6.946471060372148 8.737763868244766 8.43842666847074
Cd 5.1273975437056025 6.8031035615944875 10.217292568363765
Cd 5.275395387097228 7.304078123649827 3.316256979053123
Cd 3.9795984421605946 8.939405015614213 8.12750984283612
Cd 5.065635219546293 3.422392226235511 5.827798855050306
Cd 5.884959726180907 4.0411390770381495 2.9833922038861074
Cd 4.830147353759426 6.279410615064166 6.798038312893502
Cd 3.055167098194877 8.091836602670874 5.156032866635983
Cd 3.099312108323232 5.089218781810657 4.047659482570302
