15
Energy = -4.44508868 eV
Cd 6.836806389527958 9.276738236857344 4.108687331754652
Cd 9.232580423938733 7.711264636208586 5.244502190386729
Cd 7.436866906983703 6.381175162039354 7.432133529910248
Cd 8.679929669642084 11.121808985394727 5.637994106476666
Cd 5.051754541901155 7.4208828370968005 5.870145846201628
Cd 5.9122579557061865 10.594016232208112 6.902648881712305
Cd 10.663935334966702 6.448877397312254 7.575156283973301
Cd 8.941863388959797 4.03132641606561 8.604414435250254
Cd 3.285959611395382 9.096744887758165 7.731497314696131
Cd 8.962633887128032 9.12460131024515 8.053802020451199
Cd 6.124625277919263 8.514225650403846 9.275748074647472
Cd 11.388800169404236 8.607620372023852 9.804811540357504
Cd 10.238068691488039 5.88197702715102 10.63442479904642
Cd 7.097756762089179 5.725621545318499 10.432417890704778
Cd 8.55241234163403 8.469370656601455 11.09786710711482
