15
Energy = -3.62760834 eV
Cd 7.008635466221461 5.458999106105782 9.911868265067595
Cd 4.999294447547612 5.8672976022217265 7.8117045435699834
Cd 4.701172984770933 8.797487819200878 6.914457235945938
Cd 5.7759581062951915 10.592994242042947 9.011109333978402
Cd 7.594069707139561 8.389010951506084 9.7681932304658
Cd 9.839158813012965 4.173586379336525 10.530854311528378
Cd 7.60175842945586 2.2598594302636488 9.239210498905846
Cd 10.177693696662125 3.2735647946928554 7.567531968613104
Cd 7.387858479790279 4.49644082622439 6.768947914930805
Cd 7.36007016780018 12.765754067744952 7.656835238089273
Cd 9.53572018047548 8.510229052175008 7.53973848225597
Cd 6.3047582896552825 9.241389347626999 4.461283932387503
Cd 8.0739517023018 7.08142051855677 5.396733805787101
Cd 7.674715980241696 11.895265662693225 4.733243017582297
Cd 9.982441514810185 11.38046359775967 6.743762437696195
