15
Energy = -4.35787356 eV
Cd 8.141709987447438 7.41606666775737 3.627357168823721
Cd 5.760655140188117 5.914778618808709 5.088132474631154
Cd 9.343853600483186 9.681346289546438 5.530947604936989
Cd 6.137519931791905 8.920835332240898 5.561093073142603
Cd 8.603475688834147 5.3280856089364335 6.128148540775098
Cd 7.618047505360522 9.877788888588363 8.03787603059716
Cd 10.909595625496403 7.085581940280639 5.0987349302547464
Cd 9.8191031914269 7.58891521904505 8.003699561894411
Cd 6.593680968253082 6.838995683206878 7.997724581338883
Cd 6.986287860110412 11.735026983183626 10.232990287586189
Cd 9.129177846033768 9.783220068606287 11.087047036763316
Cd 11.092423180902324 7.499580704400999 10.730926255836156
Cd 5.886089733177479 9.004257654275898 10.878625157420313
Cd 5.122731610960498 6.092570406559451 10.507102764395592
Cd 8.169851225335302 6.547153030364301 10.80379762740524
