16
Energy = -4.83306737 eV
Cd 5.22881102821321 3.7251406850805115 9.275141859476136
Cd 2.962101360577477 5.255110193578132 7.875654209645235
Cd 8.367957501192635 4.037336502972648 8.193822405734416
Cd 6.009833158984364 5.119375628071219 6.572331946639897
Cd 8.917717197730012 4.289746582684127 5.213798824816382
Cd 2.1067580592853616 8.050076787025715 6.97588838052292
Cd 5.308754362172766 6.735568373371543 9.46763187547031
Cd 9.563666176299582 6.680634517322971 7.374465694711946
Cd 8.743456734140905 4.69187668709176 2.179423309240751
Cd 4.526279812898967 9.431837731166171 7.9918031492807495
Cd 6.293046937561811 8.181551130275293 5.660064827814679
Cd 3.6925271145440806 6.467373134931164 4.998513822852963
Cd 9.135168576481606 7.1755617269388 4.012300165006199
Cd 7.386329700856891 8.650506885211176 8.50398452795784
Cd 6.287672549313293 5.858334217309686 3.5854690761740504
Cd 9.269200240392182 9.449249727613653 5.918986435300091
