19
Energy = -5.92082067 eV
Cd 8.662395782193977 7.864582929192389 3.280953534804106
Cd 9.99648194686284 5.82934783301915 5.440801206575683
Cd 7.760791636295781 8.435901473895916 6.041041898342683
Cd 10.410305536628153 4.2813292388430995 8.070685728626376
Cd 5.611474028153114 7.748466795646064 2.8112224643043953
Cd 7.3090626883881145 5.2000147853687215 3.9213274390912356
Cd 9.244378093214872 7.048757254324051 8.359115925251757
Cd 5.3582465040995 9.985793876714729 4.980917926380536
Cd 7.817541361121145 2.8881680040584983 8.229470274501965
Cd 2.8040280019559822 8.710237668192722 3.846143182358387
Cd 6.675104909806974 5.672778770143169 7.050202940931067
Cd 4.412643099343262 7.70033631174154 6.6894968853312715
Cd 4.296588825780119 5.302303039341079 4.39820347365997
Cd 6.229015221632661 2.905103694365916 5.577972414004736
Cd 4.720825215288794 3.068105865329225 8.205110599494978
Cd 4.520049042862959 5.945727102214048 9.158475153246636
Cd 1.213151787288814 6.22692148998668 4.433221387461919
Cd 2.460714084612531 5.204884629821272 7.039644996856329
Cd 3.195508341695098 2.6848755373320397 5.492748162057607
