14
Energy = -3.88765933 eV
Cd 6.970953947221634 6.516221916112781 7.857969998769338
Cd 3.798565823421076 6.95424174949154 7.277713656036906
Cd 5.78007944413432 9.350824558734 7.345128143935165
Cd 4.5176938366996 4.072473695266446 7.86503798615687
Cd 3.6976880264992404 9.122373273113915 5.049610285663494
Cd 5.77106094906955 7.977572540046774 3.1141679586708317
Cd 7.835522285803618 8.2686569042725 5.396655674033472
Cd 7.701712744005643 3.4982932335332997 8.117137700865335
Cd 5.611526690865447 5.403927034045829 5.210494748230161
Cd 4.052051464366093 2.89258093782171 4.362201604537682
Cd 5.769588473199689 1.5298159137575225 6.618857240679092
Cd 3.1267348390650422 6.378331318969493 3.8586042044326234
Cd 8.080946181991722 5.793580123398001 3.6513258945880542
Cd 8.076156718821977 3.031387776262535 5.065376328565099
