16
Energy = -4.86539966 eV
Cd 5.869219856225836 5.2338653745219945 3.6599199126070596
Cd 6.858832211318367 8.232677472653814 3.985170837382978
Cd 7.654309699541262 3.8642232389883744 6.007058184161197
Cd 8.938495939810249 10.124303495326073 7.0402380696848015
Cd 3.981577460536715 7.15623397048004 5.2452856932504694
Cd 8.904260827328267 5.732007667328794 3.7780509963919413
Cd 8.668351799976307 6.974177008961001 6.519628608717901
Cd 6.036123424163319 8.702416365170029 6.878712258335884
Cd 4.4762685023140465 4.217487644237257 6.251890015785447
Cd 10.99324462444614 8.094629765422301 8.227095815815613
Cd 6.196361808158881 5.886689216400096 8.009038083130207
Cd 6.521092121497095 11.010416565714275 8.796357288857138
Cd 8.713168847925655 6.410642402314046 9.649422748994445
Cd 6.071624444553781 8.184501408665376 10.100811165373667
Cd 8.910669677062563 9.47735112319184 10.110454094445195
Cd 8.002820120198152 7.494798645681763 12.537287592123132
