14
Energy = -3.95274736 eV
Cd 9.585996805483177 6.771970272731742 13.553801155753028
Cd 9.518914026552178 9.765473730778876 7.872692038249855
Cd 9.204322397781233 7.11646467205794 6.345781898052883
Cd 7.154719360728487 7.4471039337951845 11.543479404544053
Cd 9.234839664339365 5.385480095611717 10.550501244349027
Cd 9.115841880763263 9.84691567512863 4.746964601134297
Cd 10.024756123372065 8.311947268216983 10.528805249248093
Cd 8.209836888644935 7.194211052294831 3.413212806791509
Cd 6.8685078933496095 10.773798863271493 6.764240371836081
Cd 6.868729787072451 8.069369813109564 8.392040374803974
Cd 7.668384738279106 5.0023269198482785 7.92867566116025
Cd 6.046500686349352 9.235066789099385 4.089858435226984
Cd 6.174864444004842 6.476048126038161 5.717497326394018
Cd 4.431719473680415 8.901225112568474 6.707790097050622
