28
Energy = -9.59604974 eV
Cd 6.792545977185642 11.219587506636483 4.597393706513666
Cd 9.57127794283122 4.082021513737256 3.4901748729670423
Cd 7.1773440135032915 8.101959828970717 9.06179543392755
Cd 4.83199786175159 6.940286724010391 7.351736722409256
Cd 1.8186981204594839 6.316732973325954 8.322267349744793
Cd 5.395545221931837 10.535970671572265 7.238732411764694
Cd 6.823340929085061 8.27049822546648 5.435118958973432
Cd 6.9986908245527895 5.364012041221979 6.020804754038004
Cd 6.667543791435575 4.707773452785766 2.842726507969554
Cd 4.353126942155065 4.885071712706503 4.7669005511858416
Cd 3.9040253569848287 3.847086222626999 7.807250819387096
Cd 6.70829423275159 3.0765740784852764 8.312689716836195
Cd 8.564988818413866 7.048862578097621 3.1622925384932596
Cd 8.920103332062821 10.25606309974094 2.661042728851529
Cd 10.058347571910419 8.789206083443364 5.075100467582577
Cd 8.73005745316217 5.474912769753064 8.693879195961369
Cd 11.577121078765433 10.755801141397798 6.841970236428717
Cd 8.919605617573646 3.1374679943891213 6.279580401252885
Cd 3.3020074222514944 7.179671591093529 10.702563510897773
Cd 11.161484307611353 1.1376758216256246 6.414401134526183
Cd 5.093823800211744 10.105806492513162 10.237937417371802
Cd 10.210539316357359 8.12846590535787 8.12932843524128
Cd 5.787924566470092 5.359102578941842 10.043749642524423
Cd 5.996653376043471 7.7252797068701025 11.945153890293522
Cd 2.933039353255515 9.14203724843367 8.143207887283225
Cd 10.265630941504318 5.864797809100955 5.917004904175493
Cd 1.6320306838366327 4.714752497602623 5.858941225392344
Cd 8.43893656689502 10.467247151047317 7.280979998961343
