22
Energy = -7.66226633 eV
Cd 9.431014474567815 9.3272511078855 4.34039930380416
Cd 7.4461703811681845 10.758584685262376 6.0724665219779075
Cd 6.7132447063028335 7.8371584554102816 4.747382141727094
Cd 4.860648823429451 10.468421075427633 8.031956108468995
Cd 9.183928834166139 6.224722270413628 3.9254403134504834
Cd 10.02683507225563 9.429133390873222 7.387427846918741
Cd 7.335038767003163 8.207275970557543 7.814147019482989
Cd 3.8701468444740765 8.839281039938198 5.628026232266844
Cd 11.326249982073133 7.150990789965536 5.818502098686028
Cd 6.7198960316382506 4.772721159663085 3.173133633450044
Cd 4.768575005449398 11.721835549306636 5.130420253781354
Cd 6.14295918052369 2.1664521263638816 10.724898153085931
Cd 9.935551750314206 6.4126155312669 8.426307981711606
Cd 5.097392070250241 8.109680054621998 9.919432698010775
Cd 4.143303496757509 6.2632123342760435 4.091711184531949
Cd 7.878473562021023 5.394042975585994 6.476741369699068
Cd 4.858266232953161 6.346361756240202 7.222715578395468
Cd 4.851522739355236 3.5651241270868472 5.134582048085801
Cd 7.8436908486273555 6.8088264023083775 10.580915553138158
Cd 8.548930518154023 3.8692938842569427 9.66931619629973
Cd 6.043498135716417 3.4810984626552433 7.808268589092659
Cd 5.286983163527146 5.158237471361512 10.188129794661956
