28
Energy = -9.74188631 eV
Cd 10.458863880737264 2.369283153895274 8.642373183867582
Cd 8.85665508012528 10.446055117002482 4.651405681631999
Cd 5.991800839082249 12.615727087288835 8.978945110372866
Cd 9.869487385431636 9.310807744024364 7.601585179507975
Cd 8.295859246862474 4.5206362649805385 8.602883548601397
Cd 8.54633344529224 2.389708291305879 4.239185697353914
Cd 7.135218644195637 1.0807108462523267 6.584491095820488
Cd 8.359706724981683 7.506835333159386 9.503573073728104
Cd 5.5897031501994086 3.0813026855094083 4.96648808456144
Cd 3.405546608945515 9.127922580063913 9.756353160544931
Cd 5.531733654118526 10.437832926458642 4.64141684383511
Cd 3.9876020758715796 7.919436184775771 5.847309983030676
Cd 4.394504979977407 10.571539560720268 7.393223446841225
Cd 5.925533491499585 6.260969962972598 8.115913063375476
Cd 3.085179353798555 6.307524098054207 9.208882407707772
Cd 4.702703975920089 5.793670488427803 3.811829475835651
Cd 9.5969399752028 7.418418554756506 5.203863279957144
Cd 7.169096715864763 10.29981733723021 2.120274859555482
Cd 6.921962762313764 8.714426248574217 6.77326798198333
Cd 10.415718293760277 3.9521505913063795 6.024467712765136
Cd 3.739777765661602 4.784760694336548 6.550619572291891
Cd 10.7047376592029 6.417530576792671 7.916860403081467
Cd 8.30997044263028 11.891113580266122 7.23400929740875
Cd 3.5367943375994306 3.358451687093879 9.312655792964772
Cd 6.309356182992262 2.4453503669412555 9.078935924637653
Cd 6.328575209444681 9.646453475707737 9.897109115221237
Cd 6.995684862191923 7.64142598771867 3.5683887739625035
Cd 7.554524474928085 5.320079173157319 5.611107899896276
