29
Energy = -10.67302302 eV
Cd 5.703609648546255 3.9914836767173556 11.67184458676999
Cd 10.074396130474542 4.3211774920262735 6.358466484834469
Cd 6.840095492187684 6.555712266800903 10.590699181745517
Cd 7.461046192740388 11.157789060254377 7.32893507792984
Cd 9.425457878286707 8.433721741970812 4.846825493802679
Cd 7.713210057895246 5.7684558460665745 4.798340185514896
Cd 4.986182562670478 12.568768711435993 5.888786812792162
Cd 3.8537769392854964 3.010264789934233 9.495132243235654
Cd 7.7070176340191505 2.57058155152449 6.51592671153382
Cd 7.25238027498308 11.242530622533309 4.3497358581028385
Cd 9.029078394867236 6.393953033815928 8.555749016410434
Cd 6.882085622461679 3.433739345742784 1.6621884142200705
Cd 9.004718883712252 3.2332710872270765 3.705828964808941
Cd 3.882830120494067 6.891179117938112 6.876359370875852
Cd 2.2740121731435003 4.312110951903295 7.30661161333971
Cd 6.892035346884688 7.993639590348939 6.669035761688393
Cd 6.413235016581675 5.1388969180388395 7.654873623590222
Cd 11.221781542044223 7.078035008076578 6.697488501909256
Cd 4.737469666937073 2.3300669962212632 6.767965509537029
Cd 10.187072128179457 9.783822263304074 7.660629382686887
Cd 5.706409773930786 6.019245337259943 2.2993727370164576
Cd 7.79338886574628 9.116046845834862 9.459615741984821
Cd 3.896452394190037 6.121715043332254 9.798464131999944
Cd 3.9660645986556813 7.918969152842668 4.061100903320963
Cd 4.660833833981289 4.780176910684387 4.871759160760132
Cd 4.430046371333795 9.767019519676852 6.494402394183986
Cd 6.815183060212632 8.480384802418317 3.5281940699141314
Cd 5.811472484485836 1.9790902080715336 3.9958485079377852
Cd 4.740994641112639 8.970489838042342 9.45215728759698
