28
Energy = -9.53665118 eV
Cd 4.105674334917976 6.6728569943749605 10.345175580086357
Cd 9.58078277240597 8.80200240905109 4.163103822690957
Cd 10.341685873508736 3.369046092727883 2.248575324044953
Cd 6.324146290007015 9.166195229454067 3.4920803660938065
Cd 7.924181516133868 3.949967275759672 3.953393924973109
Cd 1.778152373831001 6.716313467290818 2.4976122106905
Cd 2.2757679966807975 1.911662222047824 8.727033017350665
Cd 5.242691468886354 9.39124275223978 9.49758112985708
Cd 9.333574661011188 5.828953462770544 8.301124461085376
Cd 10.462913074713734 6.04809641946008 3.7029591476319355
Cd 5.10487322479998 2.801225941482761 8.437758300436073
Cd 6.0854833106266275 5.733229558277076 8.209815131388392
Cd 2.917200501075637 4.492260268198933 0.33511596380136743
Cd 2.454951384664728 2.9986587023869173 5.890479457892981
Cd 7.753322941653425 8.369293290501203 8.2335384473432
Cd 3.0739150109193774 8.103292959318244 7.799150992418097
Cd 4.9261135065891 6.68221184102721 2.1601037867226536
Cd 7.8812341245205015 3.105462402184724 7.398835458790665
Cd 3.3764608310055335 3.8774496588403213 10.892768490498124
Cd 8.081983449981896 10.555986551497638 5.9662081762173145
Cd 10.262259936244213 4.179094332043336 6.020147338785702
Cd 2.6673380673049945 5.1675515930656175 7.931452372398802
Cd 5.3906896412593825 9.27666702499184 6.336775551253252
Cd 5.504668402061282 3.8845878127072315 5.58841305512101
Cd 7.882274670901375 6.747159572181204 2.2800279377911714
Cd 4.078275737145041 6.747494246062214 5.255922328959892
Cd 7.397320222905966 6.676009868282462 5.599811311463363
Cd 3.5441860068170232 4.210496395987525 3.368306192487365
