25
Energy = -8.49057034 eV
Cd 2.8408300341718467 5.6490469273000485 2.1660356797583407
Cd 5.904384834221848 6.891945792892969 2.350719730789491
Cd 5.147297213121604 3.7805609631066126 1.9027862802693167
Cd 7.71497735924558 3.9333902220584487 3.451797346464598
Cd 6.392909378929672 1.2936508172276189 3.388422367228967
Cd 4.017210968572707 6.291567287236125 4.8781442692018615
Cd 8.954340807557166 6.341351148733878 2.2449361422503977
Cd 8.30789732852558 9.088654349098453 3.618645442777634
Cd 3.2163376645002084 3.3052017059461756 4.227956739783231
Cd 10.777195539754903 7.1915117783123135 4.483007010879138
Cd 5.339927167420917 9.212455063568678 4.168991889668432
Cd 4.676873245950351 0.5667315477343202 5.721513534611013
Cd 5.682707428663074 3.545771952678162 6.115718489762061
Cd 6.989990651356096 6.063827935659975 5.376647843647632
Cd 4.256368243354607 11.254774003291097 6.172959125158807
Cd 2.99564429035685 8.473388954810453 6.714707036388258
Cd 5.980348311395791 8.826601601044818 7.381557228826379
Cd 1.7427233123717232 5.183284176450977 6.912277609683668
Cd 8.768088962904969 8.128414510022749 6.50188782723407
Cd 2.2890194858057433 2.192754909888865 6.823971615723152
Cd 4.5840521696787455 6.13816274376697 8.088580764684595
Cd 6.295395789075823 3.765543197627835 9.136249246191465
Cd 4.784688034704492 1.1815423191859882 8.668950701878659
Cd 7.669394330182418 6.342867333351261 8.641643877142046
Cd 3.103936484560756 3.789537795388517 9.294431236379065
