25
Energy = -8.31933134 eV
Cd 5.793992679318459 4.702859039983818 10.822473266844996
Cd 5.6554036600451445 6.809198095792969 2.1174009487521945
Cd 7.4044053978313515 4.269788527247228 2.6710624740284183
Cd 4.27378230991832 4.043140048381289 2.572234657676134
Cd 7.63018655754543 8.680523431409394 3.2763021725352997
Cd 4.717403267478026 8.343917303840403 4.520206111274263
Cd 6.888532809820474 6.313670105275565 5.294827852376142
Cd 5.690522490180453 3.1881154002858563 5.260589348633456
Cd 8.040662579052126 11.100008422396355 4.943583960596854
Cd 8.69284554082095 3.859476852343391 5.357832411082396
Cd 3.488779588211764 5.410268364221044 5.1191658905595
Cd 1.214559568676431 7.513276544635549 5.452717642052653
Cd 8.959125494548397 8.466348415691154 6.329422711031712
Cd 3.3730356099708727 8.876489225595547 7.1875998103126895
Cd 10.756413035638964 3.715413199300854 7.70207865312545
Cd 4.478206969927659 4.0247331263036275 7.9957008687444775
Cd 2.2856918449550054 6.07079689961406 7.946180522223847
Cd 6.147596261067328 9.906732113819778 6.979869409615228
Cd 7.414530673290261 2.8602956232223544 7.96256547162379
Cd 5.645445409374529 6.972321952059269 8.129524674806689
Cd 8.560801485827259 5.90601351844961 7.9936133790132144
Cd 8.40009801506667 9.83480633178817 9.087630425739171
Cd 5.4759272776446055 1.9484641245558754 10.201694657714324
Cd 6.565243417489812 4.812632748901175 10.325577942614208
Cd 7.617406366017434 7.541308894603377 10.822473266844996
