26
Energy = -8.62432656 eV
Cd 8.619796906095274 2.426898678728389 3.0883896865367704
Cd 7.630053901310007 4.614586550523042 5.013823308070334
Cd 4.611915841971309 9.280806591006604 10.152306673321444
Cd 6.267651881778671 8.746168149072762 4.461720668497241
Cd 3.2361575476187925 10.20257735468839 7.64146635446054
Cd 5.411221394778343 6.072577142435922 9.918829099471152
Cd 6.637330598997468 6.66286056361176 7.10333265430542
Cd 8.231347863535637 10.961972842076626 2.7048915924848735
Cd 1.0294446482482993 1.5429575783911946 4.604626662837773
Cd 3.7279818036407213 2.7927493974667326 5.49876045449847
Cd 10.245058904756066 9.174079960465535 10.9240643011438
Cd 9.699613962474247 8.661723293858927 7.93030098997754
Cd 3.969337418662745 5.004581653208673 7.408687089755425
Cd 5.497557908573276 3.213197695095933 3.2104817954229268
Cd 7.405204021915944 8.426125461307468 10.090458761941175
Cd 8.767922338666496 10.39145930693388 5.701991941302161
Cd 9.495963123732649 6.178777074544949 10.169463786215786
Cd 4.018091696074371 7.758817448005513 6.039784991998664
Cd 7.357975227497323 4.952691540372368 1.7401710755166613
Cd 7.495814928197005 3.907745276649453 9.72095587397433
Cd 2.6995233407566737 7.334031007955279 8.833302013046707
Cd 9.419704339223573 5.3626259210451765 7.330606097416484
Cd 6.296164250040836 2.8667718654812364 7.19101102134018
Cd 8.004306624682444 7.72991907349681 2.319313301866592
Cd 9.22925021617838 7.35642125612945 5.0505297759600065
Cd 6.3278530072208055 9.709121014075606 7.482973725265062
