22
Energy = -7.702493 eV
Cd 2.495834572960176 6.016402495904991 4.260116500837026
Cd 8.049816011527215 8.799911639427968 7.046539040359888
Cd 9.799836531867163 7.009518674720574 8.762790838025644
Cd 6.865753374562028 7.464205016497502 9.526271693596687
Cd 7.461450517541796 3.034401020226484 10.216171534702932
Cd 2.9148221045931684 8.910145257074381 5.232616416121752
Cd 6.3610024828433875 2.8388921372435263 7.447341618435872
Cd 6.037600939780663 9.138902728277978 4.899537522539796
Cd 4.685925103584502 8.443204441268083 7.641256473045777
Cd 3.479052227011449 3.766021619965578 6.131586796497278
Cd 5.595208048918098 1.9599400749228357 4.750410200835517
Cd 8.55509824937412 7.077283922923582 4.513813929121414
Cd 5.010013521051529 5.43275655368132 8.264217921342565
Cd 7.17043574519471 5.714072290388018 1.7987988798520336
Cd 7.821980980694895 3.9769659989419175 4.259773082980239
Cd 8.674807144656391 5.548387091561423 11.243774328874789
Cd 7.352557723748307 8.679096924437443 2.2059042478707047
Cd 8.13317642963698 5.267417207321325 7.02208664931962
Cd 4.808367951407175 4.400605254982901 3.162829420660557
Cd 5.692294397576315 6.183202022816351 5.459990204331115
Cd 4.564352858763406 7.500599660473126 2.6436440385564177
Cd 2.199225143456829 6.566680027692214 7.239140722841446
