29
Energy = -10.54962763 eV
Cd 11.019067284031827 5.847500812196728 8.779485447397327
Cd 8.533762045287732 5.846115918934372 10.489306182675994
Cd 9.260535183360483 3.335424971746939 8.953233560984836
Cd 10.73631069985315 3.906297761890688 6.2795749432564225
Cd 10.94275705376631 6.847611184706108 5.966846617451067
Cd 9.113170010790247 10.158406191754429 9.251311337606493
Cd 7.860353834245463 8.552280506719553 11.547372292897945
Cd 8.537830692580208 7.512558432395747 7.70395960012088
Cd 6.83929827563529 4.987360764636146 7.872705828399183
Cd 8.1045368810889 2.53858240650924 6.25175103125183
Cd 7.749168124738689 10.271905958209919 6.420440009402078
Cd 9.747774326849859 8.893290208244556 4.3428219412470686
Cd 8.318942905368552 5.423257934095314 5.049285990402962
Cd 6.125696741987682 9.211589513526985 9.038811979048264
Cd 6.599476275771128 5.993212133637546 2.6886460888787886
Cd 5.954259358734348 7.245436611547516 6.062965956423547
Cd 5.844291395557014 1.3475961234488774 4.819878818708393
Cd 4.797826677801615 3.7431669220031516 10.09358199973604
Cd 5.123372118988972 10.803438014347346 4.978905850080841
Cd 5.607154474153157 6.575450779531594 10.624464601209134
Cd 6.9605204237731355 8.845218784515314 3.5767459023313943
Cd 2.9935105142513625 5.798468003074019 6.056189029805888
Cd 4.883656536746668 4.1459423584001875 4.168558315684159
Cd 4.436629073422136 3.385037629544076 7.0850729742474075
Cd 3.762803965914998 7.450868665648892 8.446953192074632
Cd 2.8769479877005177 8.738899462194627 5.631169266202783
Cd 4.563647535997146 9.774838534222754 2.0064540071115666
Cd 3.9691332618139232 10.725394034946294 7.664914764004542
Cd 3.7937094513342537 7.084540393184027 3.1917237111102668
