26
Energy = -9.10864364 eV
Cd 4.346176458489293 10.707263939485847 6.917710779201478
Cd 4.9492713625553355 5.118639323985896 8.930265622849177
Cd 3.3705570890833507 8.097854327432097 8.333949415414706
Cd 6.26718493898883 2.696594303883298 7.6068849562029754
Cd 2.4396536832206337 5.491611197389106 7.314832550887488
Cd 8.601065453177439 9.686147553248942 10.70619351587849
Cd 10.582269030593157 7.6049135610965495 5.503157702132038
Cd 6.570438976632832 5.949631239535214 11.326645384590046
Cd 5.106271005106528 10.001037603946607 9.824122709644788
Cd 9.537048971375267 9.473665282727316 7.878416131170045
Cd 9.073757580310536 3.669614747970096 3.671230872867238
Cd 6.3237206951961005 5.19899742584015 3.294845944672217
Cd 7.769187990761632 6.04572737574574 6.116580227047215
Cd 9.03214854960197 6.722729798388743 3.1390640870551714
Cd 7.1917252403720395 11.165608821100015 7.712041867086778
Cd 11.759231722154214 7.643236247000245 8.377405445268103
Cd 7.98123708439758 9.144296294919082 5.243902213016076
Cd 10.651163354570462 5.090416850187746 7.239698331410494
Cd 5.0839357209040115 7.516262365245566 5.778316930274364
Cd 8.997364946634988 2.773238802442893 6.508959758309477
Cd 6.292897962323074 8.698894611703555 12.18903903545311
Cd 6.869974718028469 7.6603197123533855 8.534062316409086
Cd 8.15047015960757 4.743660429056769 9.024834010344275
Cd 4.879195127621755 4.4677584616164285 5.7771362186833635
Cd 6.415229580917022 8.075916867461247 2.3781100072502532
Cd 5.298757806453121 10.095898065314504 4.212529175957727
