28
Energy = -9.77708994 eV
Cd 4.625105734534492 7.298188324174165 10.412447164308908
Cd 9.604980307486965 5.559660379670533 10.269791936509433
Cd 6.3161575765798155 8.071078368006933 4.412255911179627
Cd 8.141616269405247 5.7701001916766455 5.579018264283854
Cd 10.91217379169726 6.977026259929208 6.9360522109419485
Cd 8.150872886266024 7.711127183549705 8.168986229431438
Cd 7.023577738563905 12.292826156835325 8.562479696121352
Cd 4.8122183341021785 3.8419854697972466 5.998567629529165
Cd 4.655561422309435 4.6605153021623975 8.991944633030815
Cd 13.12633506040887 6.354684956909692 2.304728526659159
Cd 7.71900860822196 8.102370902162859 11.203280006355378
Cd 5.767734624589973 9.678610706835656 9.243731650596198
Cd 10.687964930033369 8.889713892605425 10.09453739029195
Cd 10.58045911532025 6.5640311382833065 3.9533482351865032
Cd 3.49829183170442 9.335135990163671 3.664143385386562
Cd 1.8119588906850015 6.3253528181659835 9.894718059428515
Cd 9.559748340479029 10.537873566688464 7.791375366199638
Cd 3.6405444976283166 6.527555213524778 4.888321430820881
Cd 8.611070098835214 5.12342780422031 2.2552844726437247
Cd 12.29893766022953 6.476125675734875 9.486529162485688
Cd 7.526274704122458 4.672058189122022 8.203611223778166
Cd 6.766167055709153 5.23653647653236 11.179643833013579
Cd 5.8830665751411155 5.072911593255166 3.4297002737865916
Cd 5.3302688760963655 7.27362620207191 7.336056026225586
Cd 8.575363954412643 10.943186667595494 10.746510239156382
Cd 2.157239116633035 5.221111009407453 7.09314471769396
Cd 6.71030731011016 10.293173132347528 6.345854153664652
Cd 9.244557842082466 8.927569581961372 5.291501324679921
