23
Energy = -7.7715887 eV
Cd 4.362179598661087 5.447608569275172 9.91674798657001
Cd 2.9011687916071756 6.765997822424661 5.730120268639303
Cd 8.889270711774877 8.19780058430466 8.058058010228207
Cd 8.017030173918604 4.508508075366617 2.6451157504814553
Cd 7.500010683062433 3.4741971302715426 6.945642465629839
Cd 7.321234652074156 6.085717386493777 9.808820238451744
Cd 4.451510259759929 7.959229269972823 8.179169722839857
Cd 5.67345391669191 9.511683561760082 3.51188807886544
Cd 10.331541941899312 6.586754075020207 2.4051587157737933
Cd 5.302277842394641 6.579924887467782 3.744081766460472
Cd 9.72374375710032 5.263158661789675 8.241265587605323
Cd 5.048910861873798 3.9628797938328337 2.349473799538812
Cd 8.23978092675518 8.941373717108148 10.945420613680156
Cd 6.14517117769722 10.485350210770148 9.364924420498381
Cd 6.70671909566618 9.53488349203346 6.501177105401778
Cd 4.627166559585826 4.303341500485826 5.727430233715129
Cd 9.476141145813319 5.146657340113245 5.213812665718058
Cd 4.881742083271903 2.923512237317486 8.397376130533472
Cd 6.5749264715091 6.440752118307512 6.6816494934920945
Cd 6.650571701559808 2.197886529792529 4.269629703608736
Cd 3.727732342454193 9.647361198412288 5.753370805852017
Cd 5.233663216825812 8.14398330585604 11.20628551454817
Cd 8.098734431830213 7.776120875609876 4.288063265654753
