29
Energy = -11.27400993 eV
Cd 3.1239056088152175 8.554791881793452 5.586839822952071
Cd 7.375784348624186 2.5120656921209146 5.175903697880777
Cd 6.480063637131026 3.4259129270338438 9.99293395944346
Cd 8.515446530615343 4.531623371259519 3.2326408997448124
Cd 4.586612699142226 3.5940784062357434 5.521666783165725
Cd 5.155022694750154 6.460809814337826 4.7203962708658
Cd 5.904161815620027 6.561051673731509 9.650213270895444
Cd 2.411956706936203 3.9242728039657964 3.2301487731540566
Cd 3.817210689418307 5.947416290777568 1.4005315076301856
Cd 5.348574859179401 10.609196935697279 5.082546089220137
Cd 8.864852385476048 5.379317763640463 9.168859355621935
Cd 5.814940627954267 8.394819577411154 7.12491894410437
Cd 8.185882034004903 8.51562367616398 9.099142175991082
Cd 10.217469295096123 7.474723930946438 7.164710547830004
Cd 1.7004431700885074 6.973244639903947 3.348785964116439
Cd 4.299198074514578 8.756520554196682 2.7131886878010505
Cd 7.361007545619092 9.558557112035148 3.129292645767567
Cd 3.937456882643392 4.250478164734778 8.446454116163975
Cd 6.65192287288641 5.388457028070434 6.949899027484815
Cd 9.503156252862876 4.66015935108698 6.192041054825098
Cd 8.583745395140806 2.3882675044933666 8.027639139199385
Cd 2.257035066011812 5.502123294780113 6.014697927376187
Cd 8.248564434623427 7.163315346062012 4.819805160786683
Cd 6.707784629970516 6.754134515892175 2.13861747120146
Cd 5.575491723619802 1.5528518247463385 7.7478262968308185
Cd 8.388952523883269 9.96446934087175 6.210419321461072
Cd 3.182972948058932 7.19776045288563 8.374743798561475
Cd 7.38622619131315 5.406916923348591 12.295636817186463
Cd 5.61589936743429 3.7987802132103803 2.641241484171615
