24
Energy = -8.23620766 eV
Cd 6.6496826918120515 2.088585225661155 6.08577645980746
Cd 8.742280888596023 5.709479198595408 7.346265579656892
Cd 6.1349804052198245 12.426835568215765 5.155238864097112
Cd 3.69450496629876 4.012622606680723 7.357464889302022
Cd 4.161729070799392 2.2740348017793064 4.576309538673503
Cd 5.417633318392742 7.163545467614677 3.273992338736816
Cd 4.307169254801749 9.905003329337362 4.492321219716089
Cd 1.9894488901181968 4.3724654011727315 4.847928193634009
Cd 9.281906830006236 2.8850557017054177 4.702722675065647
Cd 8.303788939136917 7.682879402754035 2.6836114190446163
Cd 7.619040693329206 10.049741163860412 4.197533336159928
Cd 6.998474894914001 4.29266463038834 3.2177260346793197
Cd 3.543571556783341 6.821796437023217 5.770958461768759
Cd 4.723674330885034 11.033417104085624 7.428353765683377
Cd 4.4895682287003975 5.697392126644791 9.791432212352252
Cd 6.054796608854968 5.178844721289147 5.892121295003724
Cd 4.0277454005700655 4.626382389777015 2.644429437172601
Cd 7.014243267418531 7.998944467127181 6.240348902188466
Cd 7.077184688949307 7.220497454794849 9.30569157345751
Cd 4.128677464711479 2.467174753682615 10.155730438017505
Cd 4.480503834700326 8.213033702287769 8.21743462672109
Cd 6.683057670448085 3.8651259210669417 8.713026186470094
Cd 9.25043526936835 2.611186706102177 7.714092596529394
Cd 9.59731163750126 5.822323273078587 4.502923100490842
