24
Energy = -8.49835099 eV
Cd 11.25941862282414 6.714252699417363 8.578070698185918
Cd 11.324540120837092 5.199668659904002 5.759724109322212
Cd 7.341031387926485 4.483965980621973 10.226922796257533
Cd 2.507846946852764 4.121761511405153 4.39600965163028
Cd 7.005438139738612 6.7937790670497415 2.570907517735416
Cd 6.154977411066177 10.62273221864204 6.70808668668673
Cd 1.8187526705928212 6.843222905268554 5.593784514491549
Cd 9.661841448547525 6.726303662315699 3.8080710032638403
Cd 4.571194080911651 4.779112059658835 9.186884152064701
Cd 7.904781638182123 11.665537623612513 8.913427950065149
Cd 11.15881521864701 8.33879692973479 5.938799666159269
Cd 4.615680210717431 6.393139503249862 4.296670024342902
Cd 8.231144638507729 6.966149768009117 8.710543925346732
Cd 4.972326112539448 3.9086704501409812 6.175744660573859
Cd 5.905760140720472 9.219741849814564 4.054629085174965
Cd 5.577567324849069 6.982193814849411 7.327920607855912
Cd 9.461933336030784 4.221230376572425 7.853999961782461
Cd 7.603032371962935 5.4324504264346425 5.678351521582746
Cd 6.949398301144654 2.500277869749874 7.905428981701042
Cd 2.135087709984869 4.320158356063972 7.443133030105545
Cd 3.5939855196491823 9.083774828532038 6.373554863753977
Cd 8.143214122020698 8.515290982174575 5.961277095883307
Cd 9.937566312742288 9.522903512374937 8.432077138087958
Cd 2.6807596676642036 7.160978399062776 8.622073812605345
