28
Energy = -9.06862127 eV
Cd 8.20976549463948 6.091986958818206 1.8034104479673154
Cd 1.9777783049239985 6.456835092234581 6.2233878878570374
Cd 8.825711340890651 6.505860076139054 5.159206040390709
Cd 5.61169779037284 10.208429063266184 6.020752797710081
Cd 8.16684823937171 10.96293502076601 7.473203360397108
Cd 3.2961415218522117 5.682127677719543 8.953570095160325
Cd 6.1759362954474115 4.636894046591438 3.6752456520022925
Cd 11.185772629015338 2.4293337306714227 2.1260446005866536
Cd 6.334694346786031 6.952223573797918 6.860534464953078
Cd 3.496576796795779 6.0761871537792995 3.6792549814736484
Cd 3.152569908407212 2.656435558783007 10.219610535788304
Cd 3.6878902559478783 8.494967141569461 7.489484398956743
Cd 4.632022014570931 4.532850092058048 6.3316149806284
Cd 9.134574608515827 3.9182078622384413 3.790728722851138
Cd 8.519376292805168 9.53747767535485 4.809815367441842
Cd 1.2484906124473532 7.964966133300394 9.579046013551658
Cd 11.308283517398179 10.318258441876075 9.014277541922011
Cd 5.836763149788346 4.112879186578487 9.172314100409675
Cd 6.312530294721339 9.131379243987087 9.018269513324205
Cd 8.016258685113236 9.031784707060615 1.723116839075663
Cd 5.7576098489990715 0.8938892858285882 9.360627105655302
Cd 8.560072221981034 5.660274046756705 9.000995283901688
Cd 8.460271952107167 2.620341434623659 9.223789396307344
Cd 5.838126956016679 7.8727419009341135 3.959034042545193
Cd 7.65542396961317 3.781087004936761 6.47238860890923
Cd 5.732748299117836 6.73737250067285 10.654601068193816
Cd 6.174519314774336 11.094441425213793 3.1187771792227177
Cd 9.248341749971216 8.19463037683434 7.64369538520709
