22
Energy = -7.20608634 eV
Cd 7.637465290548534 9.981261954341456 4.068720463461094
Cd 7.866919604632262 10.129863162872391 7.167279991427553
Cd 10.011499218064209 8.553190603443978 5.41718748930232
Cd 4.855758719245097 10.459716423509992 5.300779506895257
Cd 4.516246591099775 7.565230259897965 4.138973339914269
Cd 7.617418356425708 6.87731787967122 4.0063675953500315
Cd 8.24094175288985 6.7229208593554395 7.187925455887697
Cd 4.751880444011117 5.230755368525914 2.3009085860072997
Cd 9.524605377890522 4.706665501651852 4.912124306486743
Cd 5.471313366561428 8.121802147362818 7.011628550001718
Cd 2.5847034914972427 7.197961380817363 6.971102384115542
Cd 6.70283184231083 7.64664333719744 9.649010304619383
Cd 2.562774861483114 5.06474970797668 4.554026959783282
Cd 5.781965075034607 5.268994797556552 5.858884428518192
Cd 7.1455294407017345 3.603910019428324 3.2796142285667598
Cd 9.3840933740274 3.968715636542658 8.055695551276372
Cd 4.067283612587027 6.118297609213756 9.68261533464104
Cd 6.40619195508334 4.271689070351112 8.786291918876175
Cd 3.4245360773628324 4.143156485334787 7.480261961771437
Cd 7.399929645422976 2.628167741788001 6.21626517654724
Cd 4.702379136434236 2.3468251491427288 4.807124547260796
Cd 1.8270087140989755 2.2527216918583335 5.671057346138799
