29
Energy = -9.81801771 eV
Cd 7.461237859775427 5.117030161471356 9.605959653964861
Cd 6.781894498259158 6.447309844604043 3.847487798486887
Cd 7.530846761922294 2.7071434427743815 4.6630973557928215
Cd 7.360989170601838 3.9558209019897252 1.9056123422074973
Cd 4.774186934744017 4.762870542440418 5.665778569052414
Cd 6.0164281460659135 7.560381810135516 7.040996118885717
Cd 3.8587160492161243 10.01736837234827 8.98838961391424
Cd 5.683652687378801 7.961345797280627 10.352472885115283
Cd 8.497255572884276 7.885805944382369 8.773874320254802
Cd 10.447069297759189 5.754574508638474 10.052424320234055
Cd 4.431440052115408 4.87895550489918 2.6597008692871364
Cd 8.26867813182483 7.1205356616723146 11.956393938295923
Cd 9.60231467390981 5.025419007989621 3.643484591076071
Cd 12.22160514051161 4.9826500129230045 7.773206633665871
Cd 4.499576497092194 5.2781057358334955 8.80867515565231
Cd 6.1865844049727095 9.358168269060279 4.417370521746817
Cd 8.678406262962847 8.199063815466312 5.465283687784553
Cd 2.6326733753663016 7.471904086394205 10.125673006146716
Cd 3.6092286718692455 7.3885446930809815 3.902719763594148
Cd 8.642554958667533 5.1171957509070936 6.640256094378796
Cd 10.645200170888016 9.480540448924003 7.4820457325706835
Cd 5.654568279235985 2.7689332596749936 10.279829050758876
Cd 5.117978140833411 1.9573396984130895 2.8017669634997304
Cd 11.18753818406351 6.663162615469163 5.555091481693637
Cd 6.5145693027030696 3.0065117172753215 7.397628432269833
Cd 3.173276757898814 12.372873523096926 4.665311192450726
Cd 3.9161529979132745 10.118132112467816 2.5720670347930312
Cd 3.6804208908608187 9.701620550217163 6.0608736662893055
Cd 2.921162619091258 6.936898701558858 6.892735697525605
