24
Energy = -8.36544763 eV
Cd 10.337737369315427 6.876640410642741 6.804013677609597
Cd 10.54728800995112 9.48026342259928 5.301115753339434
Cd 3.217521514529038 7.386858465098264 6.639408752083674
Cd 4.819135189600914 9.642974308803753 8.206208898567533
Cd 9.941121785565576 4.372493945561365 8.34476135861193
Cd 5.713263138072452 6.575488630843369 8.340207252462204
Cd 8.814153091053385 7.037136413664094 9.476959193529064
Cd 7.461636617114824 6.359385092664723 5.865972877731007
Cd 4.914575370395819 9.205585771320894 11.254665740879851
Cd 7.652625508911445 9.79676007755601 10.251874965028286
Cd 8.13176004685952 9.06483653727139 7.270556448982552
Cd 7.018646574006033 5.015860965972246 10.672116312213697
Cd 8.88360887241873 3.446171765019921 5.578681859408527
Cd 10.082191174560327 6.923156635101399 3.760337632496576
Cd 4.26754974599362 6.723213792721629 3.875682236227961
Cd 8.013071212968022 10.425414420028822 4.184963954291971
Cd 7.002983200296845 3.8904562001486642 7.829516611028981
Cd 7.130039955429781 7.695429791501873 3.091608457646035
Cd 5.673912594029898 9.01048518529049 5.406514967645292
Cd 4.83251882815457 4.549826641527655 5.900021709315812
Cd 2.9353166247061915 7.245652778190624 9.734548827893706
Cd 4.75182405074143 6.313296322435664 12.053007260266678
Cd 8.234907076881932 4.7816090087619765 3.008207964388345
Cd 5.411021512118627 3.9694124809488383 2.9374563520269654
