26
Energy = -9.70387351 eV
Cd 5.847772923256977 7.248206738225635 6.46919810181492
Cd 7.699319010489131 5.520173634212033 4.623814357315609
Cd 7.281302377596469 8.467198481494918 3.918807630929786
Cd 8.134111194086364 4.0881215614181885 9.97826411237039
Cd 7.0855792185747575 10.270187969214346 6.463456518041284
Cd 10.801669230680833 5.862253586078188 5.603360234203358
Cd 3.392021286783778 4.934862471290601 5.831719839630757
Cd 7.265959539723855 2.4533562934737905 4.895200530211826
Cd 9.68809973650061 8.784657815810029 6.697500840551583
Cd 4.906035979967286 3.6630497025843547 3.6573890269590703
Cd 7.584557781690218 8.630217759789796 8.951668970723416
Cd 6.073046724564802 4.130559774275982 7.164728968388223
Cd 3.1690938043237558 8.868711715247533 4.05851585985832
Cd 10.225135653088536 8.14017826872897 3.791451358450884
Cd 4.105648717949162 10.475760854545955 6.83621221668993
Cd 5.41594419477319 10.845649679157017 4.008057288602641
Cd 2.613299228859516 7.778876891597295 6.783657216117589
Cd 1.7041681926218764 7.502727007775971 9.761493466902978
Cd 8.491021311298134 6.1159177008472065 7.610930124167013
Cd 10.121226587386692 3.0161040149903178 5.219899886646794
Cd 3.974519989901024 5.547592809291087 8.747054020150962
Cd 10.601004316582669 4.020359824869766 8.112900927890411
Cd 6.283070019759308 6.399119881059833 10.449931344468636
Cd 4.9353782476982015 6.566698344087322 3.447196129884122
Cd 4.5282860981807165 8.745633860126222 9.268498073173841
Cd 8.203326501352894 2.0544212274990175 7.779690823547506
