24
Energy = -8.40660756 eV
Cd 8.899388100729144 5.966725367421036 5.3221955983936455
Cd 8.790331139116589 2.9850115143915 6.030663045210069
Cd 7.318549037018845 3.9342975699143548 3.579933548595894
Cd 9.42308846781805 7.684991883335778 7.914759364752361
Cd 7.197373802532618 3.0196234751523465 8.601671342304556
Cd 7.767403695838438 7.42156382090455 2.7948480154166457
Cd 9.620820564085095 4.7759304155374265 8.39630099950224
Cd 9.347281632376216 8.963841739056136 5.098974958435474
Cd 6.734611048262313 6.405177083764579 7.32413387728098
Cd 5.617481120098384 5.59827508539114 1.6152578818218446
Cd 4.629485884919202 2.5844153533180467 3.2295071956434382
Cd 5.532989514596584 3.769444778955167 6.054364538271676
Cd 7.904114157497374 8.673312353434428 10.343301616485094
Cd 7.476771565331371 10.00638546486084 7.477175248654025
Cd 4.74674355647528 4.750324063548903 8.828918581065105
Cd 5.216327741107293 7.569318295951617 9.831728473107564
Cd 6.4321382248967165 9.575287816927444 4.5968905689870425
Cd 4.75150748268077 8.61881200691766 6.900068014257551
Cd 5.449391225961468 6.5830639521362455 4.660117533716308
Cd 1.8791958473789132 3.058106091853017 4.235802349361144
Cd 2.4944780613957596 4.323230974976463 6.847694235082422
Cd 2.685122331185502 5.415239191876733 2.456987110459497
Cd 2.646705482171751 7.00167274460661 8.258855177730771
Cd 2.543955012037567 6.9846108001163225 5.168140219539848
