25
Energy = -8.39206735 eV
Cd 3.8625340731379643 8.621096082086105 8.214920041603445
Cd 5.7644784894765975 6.596968698561362 9.374984844670063
Cd 3.3392554854744834 3.313855589020622 7.5420490464582555
Cd 3.622929031809573 5.704785685891094 3.373282405269195
Cd 4.308694189749855 3.8682927148742907 10.635361624634653
Cd 6.117096511413251 4.265381221557567 2.4402249496022974
Cd 6.864678256257795 8.877442783961353 5.069355807205064
Cd 2.679874377984982 6.849003063270052 5.972853252555746
Cd 6.373595339848769 3.7679793921002065 8.184831163695565
Cd 8.055787975250324 2.694845450239892 5.923074500311363
Cd 8.134755648125266 7.451625665767494 7.3841524508880365
Cd 11.32387761834194 6.523711482232899 8.963808286604923
Cd 5.595128566189188 6.2606032467262285 6.247991429071712
Cd 4.088491782273537 8.687753651955957 4.005488730025849
Cd 8.474628514397178 5.3987289843168185 9.757458708036229
Cd 0.7501041517412651 4.582771848648064 6.475974294532503
Cd 2.606206624410923 5.913464290296821 8.968162391852879
Cd 9.703640909366174 7.652203757409403 2.75825986238108
Cd 10.85894820676752 7.716484774653238 5.6890312847743125
Cd 9.809449496613388 4.938741483606768 6.802352984546355
Cd 5.483943073526097 10.711980142955946 6.892242161595711
Cd 8.02558945180697 5.6090507946027275 4.457896614525027
Cd 6.580686402050496 7.386115188945335 2.3306816772166017
Cd 5.14787570960207 3.47749853960602 5.138815163075636
Cd 9.493108787403374 10.19497413973256 4.462104997885828
