27
Energy = -9.44772237 eV
Cd 12.654973520934561 6.066459443542206 4.835501852475052
Cd 6.260890739459161 5.689338212460876 7.421801178531059
Cd 6.59272285591269 3.678514342216428 9.991687043021324
Cd 8.974293450605257 3.4833642135804443 8.36042854463787
Cd 10.413430784392784 8.065721590577967 4.937720696018819
Cd 2.6343234398938655 6.355835171818411 5.513511345115679
Cd 10.568928877824229 6.900573374056817 7.708865304033608
Cd 5.141718852793507 7.96682088868774 10.462735605308707
Cd 6.775236590094726 5.968808576042918 12.077896506697082
Cd 3.371920483934512 9.377411812790077 8.230308213687017
Cd 8.427601360806788 8.342991675998226 2.683246199862637
Cd 5.153556566465646 4.87450088017617 4.40517057039194
Cd 6.82410126565673 8.587704608053881 7.986188134423478
Cd 5.009142281063026 12.20978720887939 3.875468471171305
Cd 4.0251110639929 5.057132017732719 11.047339528502004
Cd 8.293967879501935 6.375390089335492 9.53025263502335
Cd 8.07435611099343 9.841306902210084 5.41229205896427
Cd 5.922041551608037 6.734837905039871 2.169975734760867
Cd 5.682294602283979 9.74504274960227 2.322755136784825
Cd 8.06560006653287 6.091414331746184 5.046224791004143
Cd 7.558147246415319 3.1008561330272966 5.655791450531914
Cd 3.4140067174423887 6.396553474779522 8.36213137815427
Cd 10.429679624547756 4.328728133741644 5.926319436366979
Cd 4.0642163964872235 3.496709038273185 8.391561758915469
Cd 4.673084406378122 2.3220538559074706 5.784714116538036
Cd 5.291326931846221 10.620218130341154 6.3702846355006955
Cd 5.291278517695601 7.909877424943989 5.077779859140698
