27
Energy = -9.15772227 eV
Cd 7.360669399355133 6.583825421698408 6.212717759919147
Cd 6.097118292635772 7.669615233167505 3.557048536929093
Cd 5.076223600464094 4.917523932964062 9.66837814124927
Cd 3.5150479216920933 2.815376325367109 5.1013631089093
Cd 7.577289435493831 2.8002144043159656 1.5257100296283725
Cd 8.01605954580136 5.814857941457833 9.507482998341676
Cd 10.683904073534098 7.820950151324097 6.813428830289597
Cd 5.130070315153286 8.955164011266609 6.50288117936348
Cd 10.582832223784427 5.200527470496785 8.201343660220623
Cd 8.293897884213305 5.304515503829988 3.179871056105202
Cd 6.941908711135817 10.467383154322595 4.2721021749458385
Cd 9.267380389294916 7.98022449257814 4.117393570586003
Cd 8.597127955450317 13.296999932140679 5.285103855859758
Cd 8.083270313133772 8.975022338261827 7.9601781022635505
Cd 6.657137916443054 2.763742416565166 4.496792839764868
Cd 3.3221043536865866 8.320285860472495 11.153765206380951
Cd 3.2049645711382073 6.981287435697382 8.008999839168052
Cd 9.19710594081924 4.005462831321779 5.832520152671082
Cd 5.80682921138596 7.9401251123974825 9.461161237061045
Cd 9.674467148662284 10.468842973035585 5.790559742467698
Cd 2.8168349692485575 3.531513558143501 8.01829843046531
Cd 4.838237063874979 1.1586910875097043 7.421056534334542
Cd 2.0469891512052114 5.430666568527649 10.530597729923649
Cd 4.403799087949899 5.8369443001022505 5.570965898601678
Cd 5.110441418215973 4.847717391512167 2.8628936130086817
Cd 6.719799830267126 11.64713955300988 7.133168865225422
Cd 6.445085376805712 3.9319766993571017 7.280813007161474
