27
Energy = -8.89413184 eV
Cd 6.28161394747828 5.8439521332924045 2.3942544864518993
Cd 3.3266096005385037 9.305896936982542 5.200667510631684
Cd 6.950547485417598 8.340095598978834 4.712500850190275
Cd 6.606071413767447 3.721333511395037 4.495942519365675
Cd 7.561315902630699 0.5523323158441983 7.930862570987856
Cd 9.002126256795826 2.3372608221542315 5.878358689704776
Cd 9.502469620845776 9.673831150920494 5.838703532426142
Cd 6.896460646235545 5.781030722556012 9.779970266353997
Cd 3.884460221879472 4.056817534963084 2.8215366564206867
Cd 0.7966099977027554 5.073714631604901 1.6688743478714574
Cd 4.736360224482042 8.522920533901704 2.595395342329172
Cd 2.2709489082831325 7.059948216783831 3.538800449068355
Cd 2.739443160597549 1.6030014679350724 4.630945687629241
Cd 3.7734510566846176 10.107993606338267 7.9998405626266695
Cd 6.03134418015982 7.8740545676072875 7.74904719502807
Cd 4.884878271117462 6.132219888726455 5.383216162425203
Cd 6.341944201045413 10.7536993222133 6.428543528106665
Cd 3.356828801765855 4.080257551301491 7.02268021284079
Cd 5.224066941288255 1.6245603851873933 6.336247429522533
Cd 9.998767311299689 6.671831953143968 5.4917472121526
Cd 7.669261131882175 5.372709252519215 6.763995138789587
Cd 8.582855383637849 3.2311917445239837 8.902218312645276
Cd 1.445141213939371 4.327333310225637 4.710086485252691
Cd 2.9949416258832375 7.099797116850872 7.706781737656062
Cd 5.394178467626854 1.1990012381766377 3.154631325166572
Cd 5.455138288284011 3.337876698045066 8.92064812496588
Cd 8.928322719718478 7.045627580350254 2.7209548687342893
