27
Energy = -9.68678236 eV
Cd 7.040205604037814 6.3542344384101455 10.73196014245473
Cd 11.633659413811166 8.186443824379614 4.720579712991447
Cd 10.090750503662917 5.935290115145061 3.450825839513113
Cd 7.4439401718822715 3.959667493010054 8.991377702273585
Cd 8.395668743208464 8.112361072237741 4.5943159255304575
Cd 7.955042431157622 3.2102152453766273 6.179685594725764
Cd 5.291694630826967 3.1243062436248117 4.340808865117492
Cd 3.042898030965897 9.909705582540377 9.38146674482626
Cd 7.255156951590227 10.386383813134035 6.372406762832372
Cd 3.058640880946048 4.286348927395863 5.952767105602953
Cd 10.253852087286873 10.616313367470946 5.882447098733555
Cd 8.877432607727433 8.330271260328052 7.996304463977491
Cd 11.825929421653866 8.607713181939479 7.71192216013313
Cd 7.143261219555719 6.057492665590561 6.488574787259196
Cd 4.731411403079853 5.360996995787992 8.50077865147257
Cd 6.078612564722987 6.107474604181713 3.5487204509904653
Cd 6.021187482486867 11.20120721240132 9.60976542448758
Cd 8.061958514573636 3.8368122787015064 3.2913131589959925
Cd 5.03537606297692 2.5537452904671194 7.37852956133356
Cd 5.578069775772316 9.056730574833784 4.057404875123821
Cd 5.962976047854811 8.158710681135911 8.284751417233421
Cd 9.750392000588711 5.949743730583931 9.462442773488785
Cd 10.355939051175367 5.65124612796817 6.499401711155785
Cd 5.239499752867504 8.72287329746053 11.386987637094563
Cd 2.9892267948975877 6.907419575358618 10.338990698804036
Cd 4.263331801672995 7.0156708787866355 5.889619853581038
Cd 4.2122451843936455 9.98898065712653 6.5442100156442935
