21
Energy = -7.27241949 eV
Cd 9.150530866692758 8.340077427852863 8.345883188236925
Cd 8.726480118797541 6.005628136174732 6.487971285752823
Cd 9.485537047040303 5.673378316801832 9.802964970131695
Cd 8.692668545568367 3.352005483723394 7.97789405174514
Cd 9.913554945434212 5.772258055823841 3.309254784804239
Cd 9.172367331396238 8.562744525733132 4.997408723449192
Cd 6.439963265095715 7.184841263484483 9.079501334163727
Cd 8.675325993723094 10.912441497266094 6.871820552988432
Cd 6.7497173471319805 4.321726909657846 10.049048370178728
Cd 7.989990429996974 3.5018418948333556 5.023777493853288
Cd 6.966183683721736 7.432632832559521 3.2738633055498974
Cd 5.738770902068325 4.267517611024796 6.952977826959739
Cd 7.034032886379809 4.55532819559689 2.464522486169092
Cd 6.368701477348631 10.09537047229827 4.951049809728979
Cd 6.067209928852786 9.985538381711986 8.058109142764248
Cd 4.05915986319981 5.38872167195351 9.231916579316083
Cd 5.949599644053123 7.2330736057961715 6.087223248095174
Cd 4.598224832658269 5.292551253657733 4.098195581517023
Cd 3.500867376540347 8.730527734923694 7.123759036354013
Cd 2.6579475946894062 5.825085371074128 6.378602644861128
Cd 1.7484711405769888 7.2520145790182715 9.1195608043473
