23
Energy = -7.54825594 eV
Cd 3.279084521988665 7.783057842661011 2.6381141293824824
Cd 2.4723600274903808 8.397010038887162 5.594223082780127
Cd 3.767035335398545 10.934613942938396 6.7477387008717535
Cd 10.14612885100546 6.481373072309934 5.8678552947533875
Cd 10.981313054344847 3.85459877111072 10.565216542348061
Cd 7.86469592212459 4.1446018094167005 9.967224267396068
Cd 9.866732685855718 3.3970672313839345 7.620554764759695
Cd 3.786264816796252 10.652109200290361 3.7056138561624055
Cd 7.074632724102814 5.253878985613376 6.968927645346775
Cd 5.901374873405188 3.536019651102299 4.2733110151689475
Cd 5.166310302854144 8.306300487307647 7.288344514271459
Cd 10.084766577731154 6.251914819358951 8.926464992235099
Cd 5.014789905838912 5.373451413938812 9.290109103942163
Cd 4.376264630148409 3.4260308225064886 6.91545185134744
Cd 7.47151581329968 7.914643972039094 5.330761077528763
Cd 7.23287271456513 1.767783194421951 6.597492656901932
Cd 7.237698182368663 7.484475371922165 9.431513279348415
Cd 6.148053519875159 8.827436986944601 2.7885868459885788
Cd 2.819233831385061 5.991236542515521 7.349684847773785
Cd 8.933728502249815 4.03761111987579 4.685757898631891
Cd 6.464466612286835 10.768986872832954 5.378132302162131
Cd 4.836272796453176 6.3431520247320385 4.7497280336179
Cd 9.413729476197519 8.964041730295303 7.714247303596191
