21
Energy = -6.59911492 eV
Cd 5.5983873537146005 9.260393674482806 8.240004405175362
Cd 9.779564074587675 8.712095107315902 7.739089829287653
Cd 7.420963113966457 6.872356346112474 8.922980470512433
Cd 8.496488384634233 7.911532373466975 3.0189045841062665
Cd 4.068293861781633 8.117603192540015 5.875943203957534
Cd 7.208683551797088 8.17389836930989 5.7001790918029425
Cd 4.046034630820362 6.7526665154123915 8.689793589746124
Cd 8.954300296512171 5.714390999905253 6.56095051898046
Cd 7.553455738576823 4.578441055638036 10.948083168978378
Cd 2.37056847719528 4.147897345985464 9.661779423340183
Cd 5.41180946155374 7.0037945577633165 3.4018161095306394
Cd 2.1571762401270056 6.451676820094726 4.288652097211395
Cd 5.443153520793651 4.069037056866787 8.772552215793505
Cd 5.954223298488022 5.2176625031957755 5.952124506214216
Cd 9.945077190780555 5.379007167232839 3.7741463962319366
Cd 2.977629637302425 4.547127721001812 6.608824868371946
Cd 7.428023888155037 5.1932156142018195 2.028337542757534
Cd 3.41767162700623 5.315718608412656 1.5511119834148117
Cd 8.021651196770895 3.2303307384512263 4.797968457161639
Cd 5.307845165295111 3.5476900610426854 3.4019875778661457
Cd 2.280881599119769 3.401873442743131 3.7686390854065603
