22
Energy = -7.46756855 eV
Cd 9.671516662395382 8.873230233909108 6.892478351281364
Cd 9.22612951603813 6.40559715747678 8.545449846253756
Cd 9.294650367337546 6.068957221651912 5.445078175076561
Cd 9.002358068049913 11.100048969770944 4.953911134965766
Cd 8.422552494880508 8.926091734546278 3.0844363398358077
Cd 7.579039531019178 3.3514952903452793 4.400549974293585
Cd 6.671275112896979 6.632951014485504 6.9320500098821
Cd 7.848962378796396 3.772035921431851 7.353670243287356
Cd 7.735722408317064 4.650581057281238 10.397775242171846
Cd 7.705383264162916 6.02152653495358 2.9426385265786568
Cd 6.690256387448899 9.836709013587617 6.589965694263811
Cd 5.667570101997405 7.911547963064167 4.384857578037436
Cd 4.921251723343134 1.959659659884465 3.2936742182441443
Cd 4.770480141907005 8.347644045733341 8.440763744556747
Cd 5.526988830731265 2.7165369138591644 9.24496577196092
Cd 4.954319009651949 4.931364192989075 4.077836166800813
Cd 5.077850386493573 5.797487593992865 9.843647470513435
Cd 5.101306063225874 2.2389620927774088 6.317218309326937
Cd 4.118960829327861 5.073511090850284 7.027211574953542
Cd 3.4665769617589177 9.496051176882707 5.9151497256846595
Cd 2.7132543468051975 6.792023945510222 4.702980396547455
Cd 2.076115063433913 7.302672908764204 7.631467441765012
