23
Energy = -6.84240165 eV
Cd 7.173138473009636 7.549155280496892 2.1803283989646434
Cd 8.770208704660133 4.799330243044349 2.1989306675498312
Cd 9.789389648342443 7.084355983750427 4.032958863372381
Cd 5.822997575171858 4.826430962569672 2.8755241161375786
Cd 3.761914924352885 6.244534486674596 10.240553758483292
Cd 2.9018977941883795 4.567508701809498 3.890724381911783
Cd 5.177096991058943 2.8120246219762555 5.205090941149035
Cd 9.647920407893592 8.821778248461188 6.498472235666592
Cd 9.841853906151405 5.305803696490984 6.501451455505738
Cd 0.6055154283721644 6.24266270317559 5.057709970352778
Cd 4.093941033731274 3.9054461958929614 8.177203962066498
Cd 11.78205808779397 5.907833658797184 1.9340984890674482
Cd 2.2545417698712065 6.333527721128763 7.595082239350312
Cd 6.05269107364876 8.18757499412527 10.521839622974522
Cd 8.572207231243533 9.431755409781655 9.289436025537904
Cd 8.754924610898245 10.064024476336462 3.596076868095199
Cd 4.716229496018665 8.298027890242956 7.620049834934214
Cd 7.461618213339977 6.764329265134271 7.870343735492525
Cd 6.831886220719748 8.251094928122734 5.183181374220118
Cd 6.531581414223665 5.019112685781126 10.313889325164622
Cd 7.1365786603168715 3.7731471505156606 7.573284571689283
Cd 1.384480023287713 4.1109823678879405 9.93389772894743
Cd 5.000459670797037 5.866706632036063 5.833053522441361
