28
Energy = -9.61600311 eV
Cd 2.7283888347327685 5.6840945968692145 7.443270826486504
Cd 9.496893830134544 7.251436444780296 3.8083196126317755
Cd 6.721495251116809 5.058944985084621 10.894405680215717
Cd 9.58422930602656 4.323235024323656 3.4168119926919256
Cd 4.507706781893749 3.78626668920805 9.269812416377858
Cd 3.4509111860647312 2.7566613989720974 6.658066649348358
Cd 7.69495997119857 9.514313709021431 4.976097601974883
Cd 8.960789758273227 5.501983538654936 6.374041933250827
Cd 8.963432313619228 9.394396681839876 1.6815856504079478
Cd 3.4425823027362927 5.030487413528651 4.304284631457401
Cd 8.04695508843889 1.8740543239911145 3.4976339677507373
Cd 7.675695437651462 2.2519629100941208 6.44882166496542
Cd 8.439161876633609 3.612933943207709 8.902196460416064
Cd 4.732062624212428 6.944832280531408 9.640160896211988
Cd 3.6500539690340648 9.58975324466195 3.1445050694696635
Cd 9.032821978411212 6.548357346632916 9.509814381110472
Cd 2.268373254945678 7.631931328312131 5.150258598968658
Cd 11.564094273873183 5.847149944701864 11.01656929932658
Cd 6.654399578817028 5.586056244923081 3.971955457586233
Cd 4.731478292322581 9.780531954396603 8.360014705083717
Cd 9.980979691158833 8.433490171730401 6.752992852293121
Cd 6.244371232831648 8.259344321366799 2.492673177757243
Cd 7.152864441018569 8.077914262253945 7.903250357521712
Cd 5.3990333081291535 2.8164150920121434 4.4001841318152515
Cd 5.253285785473861 7.778406236185866 5.618894750591887
Cd 6.018835433530159 5.1520006938566825 6.989887794837904
Cd 2.043620740899768 8.430365370843374 8.63753632421491
Cd 2.982363048598067 10.442851666864417 6.03514066482804
