29
Energy = -10.35003356 eV
Cd 11.281933974852222 7.221739826618417 3.197266729081065
Cd 7.8746262794048825 10.397445138497401 4.16796228846776
Cd 5.615623669139105 8.528654809196828 3.1745424546347447
Cd 4.230886002557469 7.738619631681093 10.207455219395854
Cd 5.149218581325268 10.446127548665475 9.356843959068947
Cd 6.322563343739423 6.7111777437044156 6.180034135479904
Cd 3.719052880392306 1.6278520853174818 10.146755852654115
Cd 10.582405256856479 9.403299908248247 5.16765957314218
Cd 3.377591771744063 7.858686216378002 5.000361863230292
Cd 2.902184572589278 9.383220187118948 7.559137521750098
Cd 10.823479637830616 4.770420454699144 7.380001858132866
Cd 3.280196634752549 4.682386250182988 4.803404517671719
Cd 3.219847707297254 4.74371273883351 10.315485544722481
Cd 8.258849333833616 7.3216620607186975 3.7952870193940953
Cd 9.2505146870934 7.275523981790696 6.7962133191268945
Cd 8.142151034333557 3.6042783792089654 8.202813595380706
Cd 5.7382981508043995 9.757233219891235 6.263441296067073
Cd 8.576473562132367 10.7504849251327 7.104471923440978
Cd 2.0674987738110504 10.291060474736295 10.462642933665196
Cd 2.850489750996118 3.205810180954785 7.557941984918538
Cd 7.317667764217868 8.365600236687587 8.802076144443106
Cd 11.454221363985516 4.397162109961348 4.446665157393982
Cd 6.078525379253148 5.53948911101418 9.092444567708968
Cd 9.13569234581321 6.091635629738086 9.822608173307874
Cd 5.696709180862946 3.5926126706644514 6.423890636328505
Cd 3.418159203798524 6.306650491556476 7.562513596995096
Cd 8.40239631039349 4.5930144071458265 5.232132613582529
Cd 12.38661552645036 7.056111509562595 6.127258779170691
Cd 9.432458016520167 4.9246587688734085 2.2370174384235395
