28
Energy = -10.35196255 eV
Cd 3.6923962821999883 8.382456615432405 2.6689139507069
Cd 5.587203734832558 2.4666703840324344 9.466426096216562
Cd 4.318298348404665 5.3485508341992 9.272704021430243
Cd 7.383307019109486 4.787180881874131 9.870529352223805
Cd 3.120010055042064 4.975206537532264 6.172870973656533
Cd 8.171033194656719 2.875591370814954 4.141579369889005
Cd 3.078007682143969 7.677289505081263 7.587420706389694
Cd 10.318086818282787 4.658141646287632 9.063649570191124
Cd 7.914412274018372 10.465720800062645 5.717992944072954
Cd 5.8172614775964435 8.019599204352078 8.724061098934854
Cd 7.5698101270343 2.280287075267211 7.126315617874666
Cd 5.564906082621813 11.523994987193499 7.659253312024538
Cd 6.473229821859134 7.339632842645254 1.7285102770291156
Cd 7.8816503549374906 7.438856160624063 6.3487600508397355
Cd 9.070925544388523 8.843256509630699 3.4598003175568146
Cd 5.322005308594735 6.360627439195103 4.518885474237499
Cd 8.096155868553256 10.260794386322079 8.783475618747222
Cd 4.772230812503707 1.05048416763425 6.83546462498137
Cd 9.48147417683418 4.616546430859971 6.264878437299115
Cd 6.18212823883852 9.974913725581745 3.2073358388917144
Cd 5.161343421781293 3.1395588379087385 4.778234336808343
Cd 8.909289353756222 7.367955046268927 9.310377542958847
Cd 6.3136613722093715 4.253864901923253 2.244149351133064
Cd 2.789911990045295 2.8672047869084927 8.19159252501136
Cd 8.431038490672751 5.921781665086457 3.7658196420312726
Cd 1.8460445820771483 7.401078749097769 4.781863333462438
Cd 6.270048874677863 5.009052607264873 6.96150407909452
Cd 4.916190657807055 9.145763866397015 5.799693501786554
