20
Energy = -6.35152729 eV
Cd 5.732189394897988 3.825775284982651 0.031496596266682046
Cd 4.580471142306745 6.236706163603728 1.8544882493924968
Cd 2.0573299047493405 4.756777457075907 2.7442038364161854
Cd 2.066658095457445 7.822525089215951 2.257902521680763
Cd 5.306627120204504 3.317029378612153 3.1701458411180634
Cd 7.354423352280633 5.768214818174713 2.5939440778376315
Cd 9.151137523885376 3.8416095913911876 4.075610019586475
Cd 2.56995539544525 2.5744228867915666 4.631765780050209
Cd 2.352770782458208 6.9114051852414615 5.064664832906156
Cd 8.456343558625017 6.374892106910922 5.5436646208857345
Cd 4.896195216395045 0.7179298028121716 5.264161162129003
Cd 5.49333898650491 7.447243937467799 4.717501641779696
Cd 7.255345112218614 2.499754475604976 5.806162088495527
Cd 4.370096675627023 4.807662064337545 5.791388191050347
Cd 3.7106535697866825 7.98513337637025 7.419904956934482
Cd 6.9113194042226915 8.052905028381213 7.433237373667586
Cd 6.76197000113137 5.012701950192763 7.817325249046576
Cd 4.955426521640999 2.516600374241779 7.94561614841183
Cd 3.5714848518451627 5.0803821857436215 8.76257257649627
Cd 5.289413510168912 7.293478962699429 9.917394355699603
