24
Energy = -7.75541912 eV
Cd 5.8329688823833346 7.043489230667065 11.287032067298995
Cd 6.344323760127758 12.105160319903927 5.576874824703065
Cd 8.564080438667906 3.0822989596450157 2.8511819804815475
Cd 10.513073931048673 5.161736533039407 6.456824946634584
Cd 7.7602320902184525 10.276630067599953 7.814466146081304
Cd 5.737679352662859 3.625790472274594 3.6793295790075353
Cd 6.046239258928769 10.111442939451804 10.547284737729216
Cd 6.490538843021228 6.07400523683525 8.545618155023753
Cd 9.097780470638583 7.34235357494855 4.37603547725448
Cd 3.708406664240657 2.0537162336081924 5.200781544574415
Cd 6.245262889377324 6.576667776329081 3.699282168984277
Cd 8.534193289557434 8.414356311005209 10.228677723343806
Cd 3.9710551680235975 8.209993776155292 9.103325927279677
Cd 1.8453803157318083 4.607827650111177 5.117623637013859
Cd 4.7069132197241474 10.90135142690357 7.866197795395618
Cd 8.846893113401155 7.466656971375459 7.330010544505416
Cd 3.0979568050309125 3.3053214437579714 7.87961234039131
Cd 10.61166312802378 5.327147095363745 2.6705357663189346
Cd 4.6278893510114845 5.38610516739664 6.226160824906229
Cd 3.47877175250958 5.360243126005469 9.966277358719907
Cd 5.642364252301633 8.190445560542 6.523257397396351
Cd 7.031194384596457 9.50410603860735 4.197143411529743
Cd 11.261644231337506 2.8684848013988438 4.5091343743803005
Cd 7.593815912531916 4.594990792171552 5.937652776142782
