23
Energy = -7.85519146 eV
Cd 3.5827734617594826 10.902747747386636 7.308106115537288
Cd 5.856336201729607 9.830316574925119 4.193346145203073
Cd 6.538328265721645 9.863926967963177 7.299534244386957
Cd 2.5008187329750937 8.355627736424719 8.522058659449993
Cd 9.080667285250101 8.5661911348867 8.021920466739093
Cd 5.8501061796281055 6.899896923575628 3.4557310432689787
Cd 5.33471053657262 12.557273593065128 5.422938603117976
Cd 4.135342034424652 7.816981912598881 5.785458982520506
Cd 5.563197902075979 7.451579613620566 8.911316778637227
Cd 6.675392416881678 6.031456490783734 6.473643026752179
Cd 3.352623178324921 5.4843970465127345 7.560512268240322
Cd 5.124466321626278 4.592555143193554 9.948495174729185
Cd 8.362693422986286 8.210781926713148 5.025885995147229
Cd 10.750756663859848 3.3425366119225903 4.5429947513480675
Cd 4.0316853770221 2.569609864352373 7.9291302700983195
Cd 7.9323082801294555 5.613595487942242 9.556920491173452
Cd 10.75535100730697 6.4049064671010445 9.183797275802089
Cd 4.8237085258166434 4.04597829097999 5.260396447188633
Cd 8.836776915488755 5.653426552500969 3.557664073307653
Cd 6.991159789432813 3.2478106016298676 7.810689349837236
Cd 9.667815349292923 5.547487810875311 6.488306633477035
Cd 6.37778005036429 4.104548469878464 2.625832619388524
Cd 7.821088403338891 2.8522533331770448 5.061206886657965
