27
Energy = -9.51876932 eV
Cd 5.321297180826267 5.243613005234698 7.8538824973294705
Cd 7.8442751010909 3.95191233468332 8.994757136568557
Cd 7.498552594690253 4.108011967462956 3.766465727451761
Cd 6.889967701855673 2.5378948231748937 6.322115444849193
Cd 6.409907151270687 6.559337254815811 5.362339477309862
Cd 7.990768062416974 6.980458820526168 8.014259634228871
Cd 4.684095507496221 2.165953381469108 8.358282436133154
Cd 2.7913028234574546 8.791723988594455 5.629650331933455
Cd 1.541619804975182 4.053569950374352 4.952306984431508
Cd 3.3765036201040592 4.2963540537386935 10.131806038688898
Cd 3.1799139292212937 7.337838968939373 9.976560073860957
Cd 7.764324457744319 7.9140014158345355 2.3851042666769726
Cd 9.388671527146332 7.075549598207588 4.786066159756416
Cd 4.956898678364611 8.265629376566684 7.56595370246474
Cd 3.145731193733203 6.469755167551683 3.712452003411443
Cd 8.281351060914377 5.266880271683809 1.2302363046533416
Cd 10.025979005052013 9.204889366198822 7.03514111333648
Cd 6.023089298828755 2.933612589713585 11.194531453253992
Cd 9.07150000909769 4.6247452550205645 6.3485943805947755
Cd 5.398550452535917 5.965530223006976 1.84074360260688
Cd 5.185225202721727 8.78915214069927 3.81642301676364
Cd 4.645802730729343 4.073405511295102 4.989767769107049
Cd 2.454063515208033 6.127258735039222 7.0946591196633735
Cd 1.8484680755894445 3.0065855958862877 7.772048418161793
Cd 7.931685632031668 9.900263022968717 4.619632556450062
Cd 9.725899196288461 4.645710593699973 11.194531453253994
Cd 7.18577994280765 10.12232612618711 7.49207304853157
