25
Energy = -9.027104 eV
Cd 3.477036159929339 5.1197844462505735 1.6963907880772862
Cd 6.440545015405143 6.031500468087949 2.0234537708617895
Cd 2.3594994376334584 7.623633776021789 3.0374075651757027
Cd 6.109360581703923 8.919246785434165 2.928111585923236
Cd 5.863978700121477 3.250934876562993 2.9740600027840527
Cd 3.0863370739738065 2.4270188064621294 3.7820004690576985
Cd 8.663657573663793 7.482813266790767 3.4577171430296247
Cd 4.899598004502419 5.619107072664084 4.762489976433382
Cd 4.339179068019039 8.625016883468541 5.218133255926075
Cd 1.2229550297401224 4.824551171081951 3.7711524443755784
Cd 5.552708381304384 1.482453647258966 5.479315748227091
Cd 7.8648384139016585 4.7347804789116665 4.834750583309302
Cd 10.29480929727393 4.131972834698144 6.604444060670054
Cd 9.741754008925046 6.967127695922371 6.197251031708358
Cd 2.202834807321846 6.613110447223006 6.146715617347682
Cd 6.792334071319511 7.3601243331583355 6.430973864224788
Cd 2.9962928981401618 3.6923827991506926 6.457055445881384
Cd 8.069590585134259 2.3009510197995593 7.0530046041123615
Cd 6.740444767985882 9.723299456057049 9.80845029921439
Cd 5.889263439486109 4.303921838390468 7.387668015240044
Cd 4.375804495613429 8.532681280214447 8.187079474452435
Cd 8.982347229465892 7.860511423303193 8.906512943821843
Cd 8.748762913394556 4.703462962458294 9.133873702880651
Cd 6.314016620866872 6.450966780210722 9.477508267425572
Cd 3.45927028474686 5.7058643099920445 8.731698199412087
