29
Energy = -10.3979692 eV
Cd 6.299910694037721 9.792118412993416 2.2915657966216805
Cd 5.892776174768429 1.5609733807820891 4.0364942804625255
Cd 7.184587511545154 4.183765499406722 3.5205650023456987
Cd 7.581548482959021 6.985218454968328 2.4955850388169187
Cd 9.605113004043536 4.2068485773000575 7.092560585765777
Cd 9.714553223957726 5.664812230416124 4.4599810248341205
Cd 5.831190568250412 9.595421826295127 2.8159935792653705
Cd 2.2314105483773132 6.143196716222634 2.6398781031912817
Cd 9.243378312925065 8.854721284148843 4.111315134773296
Cd 10.168751234420574 7.711787832697082 6.75824805744078
Cd 6.458427782382032 3.1382579149669163 6.497195558064401
Cd 7.1197581837027135 6.2616700125408125 6.21562405046305
Cd 3.969306516921749 3.7132982594687807 3.462629456107429
Cd 5.052348174642342 6.559107745705631 3.925377591321125
Cd 6.230694320116673 5.116411909109441 9.055375559703991
Cd 8.464033934993811 1.4199708308066465 7.948414623247411
Cd 6.932107451902907 9.45578994046179 5.764482327212835
Cd 1.626592659095034 4.300647166230705 5.218110766313961
Cd 8.639525977318572 3.569473797372329 10.104457260868159
Cd 6.568347071125612 8.462394567142367 8.59170380014727
Cd 4.2506281161363155 5.01300016282852 6.590611351477155
Cd 9.268261011997271 9.699390361522426 9.064749058400793
Cd 2.9582283812565673 9.009483505868978 3.6754564879390617
Cd 4.302953608091603 8.249667903478443 6.404437009002512
Cd 9.118378494699302 6.555279077351008 9.338631912158055
Cd 10.168751234420574 5.134138317346437 7.17915183011172
Cd 0.6029198066335785 7.460090463952549 4.90551071241199
Cd 4.105432203517129 7.081416849611044 9.426460425863855
Cd 1.9434103564312368 6.7610128841843125 7.483460828607141
