26
Energy = -8.97673399 eV
Cd 4.018504670055106 3.871138192929334 10.005725483637162
Cd 3.0374477538804636 7.8084385735948265 3.3563502167730306
Cd 7.07611884720384 4.077958782314459 9.351858872165211
Cd 9.04432683540483 6.113710916194326 2.9178667252137576
Cd 7.702697671256102 10.93749050035766 5.927603657798219
Cd 10.583144860223744 10.127452283030543 5.268729278756447
Cd 9.590709992377919 4.5686271342383025 7.33279233213551
Cd 5.811756901735623 6.517847295940542 3.9150666651897015
Cd 1.4938103212429727 5.401567346712372 4.548458531373336
Cd 7.34178130601576 7.089151165208545 10.30907315899211
Cd 0.4579851948228827 8.458305795327254 5.077468570519121
Cd 9.97513390392161 3.736098156548358 4.529418404012425
Cd 3.0128364105992094 7.692576824140892 6.609996695346969
Cd 10.656316096034335 7.1842192193826575 5.60889145703284
Cd 8.023988257995589 8.740100667490074 3.8744510033930997
Cd 5.332832335362698 6.4353053943513885 7.950694121736029
Cd 9.73099535737251 5.247515135539609 10.2412294185709
Cd 5.198848248431239 5.83951408540793 12.096059587197345
Cd 5.2081998669835174 9.310674363245875 5.348098297206402
Cd 7.144619336552426 3.7583956722551926 3.3947337356868967
Cd 7.77032067131231 6.785747777419734 6.29121707434978
Cd 6.7263496277700074 3.927225669743879 6.379024204105417
Cd 7.13732706251043 9.102503839421125 8.112492678895062
Cd 2.9425789869485905 4.492531858950466 7.288540976892435
Cd 9.897919949678727 7.708839841870433 8.481275192328658
Cd 4.261125481412494 3.9615856003655963 4.669618773267377
