27
Energy = -10.01692725 eV
Cd 7.937682247565007 3.766869361591823 7.371982687117343
Cd 6.726382096734405 2.8445288129543957 3.8662493482390325
Cd 7.160805894382378 7.514491001351009 2.1708711595107513
Cd 10.51077646829838 4.984324885704318 8.232086817613363
Cd 2.899006581582568 3.6916523430403094 7.3557262168142135
Cd 8.989215835340044 4.6917293078919 2.6543486016988305
Cd 3.8763427052234474 6.505938306860238 6.312139060948634
Cd 5.412593922494557 4.980125385421152 8.574811652483524
Cd 5.2808403565600255 8.698533876515224 4.459054128162136
Cd 8.535653070934353 8.206408471718984 4.717605878799172
Cd 9.486529148086243 10.773734120682368 7.749347471810119
Cd 3.1864444239116585 7.290762093833335 9.4082030941455
Cd 10.282109742010494 7.900951573714292 7.281967481456595
Cd 8.09947871735649 5.935258084923032 9.801582708383016
Cd 6.38300694213992 4.647702011904132 1.2931037974302633
Cd 3.7186319815517495 3.5549904181166383 4.458890153247612
Cd 4.562132200476469 6.073807542745451 3.2420731056683603
Cd 5.9289763816314185 8.140242920145988 10.335815227924812
Cd 5.448004239113452 2.224697854229105 6.630758334219854
Cd 4.623395660929503 9.198549245542697 7.520162024993431
Cd 9.762644697383072 5.518818207029041 5.393303618144451
Cd 6.975440493539436 10.56714505196794 6.092571311591545
Cd 6.736383333286232 10.89853528494964 9.153259550855633
Cd 8.944674260769572 8.809000162037446 9.972854251805586
Cd 1.355468524243255 4.968773830001841 9.520595333346638
Cd 7.171618242536965 7.565087241305214 7.403072930392604
Cd 6.692071233930863 5.541248423568593 5.328487381228376
