28
Energy = -9.87340708 eV
Cd 1.629546701272788 8.765655382059766 7.545035223290386
Cd 7.126374926473739 5.414402407549031 3.3554170383373068
Cd 5.1116032635343585 2.6188478299987468 6.880866802959986
Cd 7.267720041930472 2.756795944062187 4.70700327796235
Cd 7.212239500516402 10.270396024216604 6.409314083398391
Cd 11.127642787540513 6.990591100852048 8.13483259652383
Cd 9.387515424237481 6.658041762814233 10.7336952115433
Cd 3.7109922620418567 6.6644670009864875 8.642057663453457
Cd 8.371503300661226 6.766625810321271 6.167672373118819
Cd 8.144995476018428 13.170726549868212 5.872169378413311
Cd 8.565681312804275 8.658825861706296 8.510764590138873
Cd 6.6503082291913636 6.348943715581016 8.9502776502221
Cd 4.068809675204534 5.310028106068926 3.1797908543399838
Cd 10.286802476921237 4.127097740048762 9.136444905612429
Cd 9.8681374217578 4.140983295354512 3.4126690326105913
Cd 7.722699960726205 3.8042962977009007 7.556748207484551
Cd 3.8691220540538125 8.76589928692477 3.0292782752506446
Cd 6.826629800014819 8.454895087279846 4.0978622531842985
Cd 3.0112325484150086 4.386908825364885 5.855288432134217
Cd 2.0961074050093704 7.144369451307015 4.835792468014744
Cd 10.612347492331807 4.6917944313311555 6.210312793591449
Cd 5.494995393680095 6.050887091756806 6.059496683586666
Cd 12.364851503467998 7.571064219899889 11.063861913491714
Cd 4.365032778865376 8.925017517406767 5.995429276107345
Cd 7.672358057052649 4.1255702163137675 10.742679735276429
Cd 5.775346881018687 7.221565892850551 1.4106654474044218
Cd 0.9866860156536416 5.795928361760458 7.627143833021552
Cd 5.50978558737664 9.236443066385927 8.714498277296991
