26
Energy = -7.88155734 eV
Cd 2.975928649532078 5.367884792390449 2.5117345121869232
Cd 6.106109248841258 9.45989935613245 7.579602798717101
Cd 7.877570720961263 3.7752754562780053 8.814535747272721
Cd 2.6223663389455436 9.014680298288402 7.731386251389838
Cd 5.582089181426397 6.436582479632026 11.946898612463915
Cd 8.707903335272329 5.842108398145348 6.8974741053065625
Cd 7.571276297426103 9.888665949899941 3.0795002325530727
Cd 3.365721301604212 4.079515497143646 5.290815575278664
Cd 9.312671024030658 9.890262636121834 5.542627016495725
Cd 4.2569116804433875 6.919895288688798 6.249622444006645
Cd 8.230716539753763 11.254317099021428 7.338444888224867
Cd 8.770910950899694 4.56727486803263 2.6998292883471735
Cd 4.217849505823911 6.71018631146957 9.241731965437548
Cd 1.5621878517009802 6.739502705510429 4.893029483488995
Cd 9.763254135862397 6.982771446793003 4.324294992726041
Cd 8.61341826693581 0.8528017880502232 8.54307106072749
Cd 5.872782628574436 5.67994747745626 2.1564125669259093
Cd 6.540602908268337 4.833440519415969 5.029531435069445
Cd 6.782903907085155 7.866053334854518 5.123168373120049
Cd 8.905021387095267 9.536439611964163 8.63402531732085
Cd 11.01184941664706 7.8901045252270645 7.067992793863851
Cd 7.323544627174294 6.919865325329391 9.330787869915191
Cd 5.149564350437189 4.188665409649884 7.719016838469584
Cd 4.201646096475816 11.254317099021426 9.029543573208372
Cd 5.618282296351181 9.301759133307222 10.879174902328868
Cd 8.263362523234829 7.369036588274757 1.5521925259571856
