24
Energy = -8.34352384 eV
Cd 4.742247780170698 5.168216646280361 10.348914108650092
Cd 2.789877356257782 7.058094942064832 5.2136790770295125
Cd 5.459558084432859 9.901423875057533 2.335299276689819
Cd 4.713240347991258 6.379104574389653 7.521383607859031
Cd 7.744990248377686 4.471718081906792 10.028031147121814
Cd 3.16284753849003 3.770265257438224 8.050282977612191
Cd 2.02418219931684 4.117536395844066 5.387196002067234
Cd 4.208730855110089 4.81444689375803 3.4375546081908652
Cd 9.396974519193572 7.677902189321353 5.380540804221948
Cd 8.001364649630736 5.822095719228181 7.302471222120829
Cd 7.045805013104703 3.9345584280967607 3.285835447637976
Cd 4.919116029398708 9.073735450702253 6.154050082260725
Cd 8.178475240370608 2.746018368665062 7.4710041639471685
Cd 6.7775800382076214 7.384687855167316 9.667175583490039
Cd 7.962280447612121 9.29772660891437 7.642443035019377
Cd 3.6576327314643335 7.5965536180564985 2.3811370245077996
Cd 6.3860489638661475 6.599550258926546 4.822354495956121
Cd 8.990741213668777 2.066807389873823 4.687609488111037
Cd 9.99960878275084 10.955780623602852 5.7686476625035
Cd 5.589075732727416 3.74032496466193 6.082598105463754
Cd 9.774512223158547 4.9812814361374 4.275191765204996
Cd 7.403111485106025 9.678942161346656 4.490232148132487
Cd 5.613467698775321 2.4428330646363787 9.055981759136097
Cd 5.237458146602477 10.09932252170787 8.989313732850015
