22
Energy = -7.36741669 eV
Cd 5.023595509501459 3.4454440825165857 7.545287540150735
Cd 4.765460650291124 6.191729410367572 8.658464264800934
Cd 8.652321470847943 4.056288244951209 5.729693734586239
Cd 5.998861158130277 2.995071556454389 4.652566725645164
Cd 5.94712051264643 11.460926380268052 4.291803421823677
Cd 7.403193688405049 1.6094509121457867 7.269026634029107
Cd 10.633050003590572 5.144258460183745 6.751867837809969
Cd 5.113238792469604 9.223965039402566 6.645225074635686
Cd 8.114652762627616 8.176559367816376 2.5976138912559907
Cd 9.616173141525579 6.674673574005004 10.035959541868104
Cd 7.059609990111426 8.104595109395 9.39191913238498
Cd 6.925382718131812 5.5487078068907385 3.329340188263193
Cd 9.71676502313309 6.928935178236563 4.847702429809195
Cd 10.633050003590572 5.4659014663677405 7.421313008583341
Cd 9.626939867016167 8.57062289742778 7.705428660711119
Cd 8.029544924005624 9.564236382085282 5.4377573607429435
Cd 2.443632148763828 4.963438459053598 7.095590154098633
Cd 4.484471644815931 5.915756439935209 5.217807589238395
Cd 7.614007826109302 4.759461483303595 8.743797203509583
Cd 7.079262881817748 6.723664986813632 6.472205218650137
Cd 4.094282582295337 9.03854974414743 9.435696314070265
Cd 5.260010292199495 8.434869007814658 3.7210400629158267
