27
Energy = -9.1664377 eV
Cd 7.842951218042344 1.7697853897647313 3.9659650079333812
Cd 2.5540281530061644 7.556943744647179 3.8021534179196728
Cd 8.529375269685126 8.251205859454599 8.264770473950191
Cd 2.567249264887185 2.8487818482501477 2.087159961001895
Cd 5.718485988148448 8.639000407753457 4.260843052797139
Cd 3.304698675234541 2.4621285660309082 6.872587122541069
Cd 4.918232844162928 5.936002327614275 3.047444693018282
Cd 0.7111470809977432 8.654870373289459 5.967757361470796
Cd 10.132517929823385 3.450724338546264 5.260890494054445
Cd 5.7404949484273695 3.337134987238611 1.7954902553567702
Cd 7.934214638621794 4.958090811258195 3.73239559698726
Cd 2.6497927163520827 6.583616339752673 6.951124662656121
Cd 4.3210610908771105 6.143662905923908 9.271166934511339
Cd 7.070169031591863 5.749801093155433 0.5333460499498422
Cd 6.543380066784059 4.087898400338419 9.340583638908381
Cd 5.643911722717581 8.354110694945167 7.471461517878421
Cd 6.96381172682364 6.996446677034465 10.444331598131688
Cd 10.672611366901018 10.003556101397262 9.567311049846007
Cd 4.727348177977172 1.995198432547711 4.246374734757666
Cd 6.431206347647392 2.8689997223790904 6.565157510993694
Cd 5.439251722692516 5.65260331450916 6.0869071011689515
Cd 8.094799605947907 7.841690025060326 2.4456046280635193
Cd 2.6951927730868612 4.520360465036962 4.7141076772055595
Cd 8.497760234418442 7.747430819892508 5.3688936176192295
Cd 3.4945938373555534 9.771149598524799 5.948296958078076
Cd 8.376025071122733 5.22257752370793 7.114853340700285
Cd 3.481337816267848 3.3099209469757795 9.637347873527533
