24
Energy = -7.98715542 eV
Cd 10.605363585781204 7.200667014696313 5.921647488002381
Cd 9.995695585226049 4.3099034650462125 4.974810799788233
Cd 9.715659499490545 7.864254731879857 8.860714870607417
Cd 7.9846298999175955 8.856367244170631 6.643778452836982
Cd 7.91503558367562 4.021563043335132 10.62865728897825
Cd 7.446951225362935 6.340711801330942 4.977556662128869
Cd 9.690886323343612 4.7674930769054535 7.920811950005263
Cd 8.57125031907045 4.390199203293869 2.3142181189040625
Cd 10.32302562689617 5.76860784526681 10.900523402302774
Cd 7.624315948378375 9.13755945932081 3.657373376152383
Cd 7.197503363009568 3.6548316958207816 6.512704174645437
Cd 6.906485681970156 6.47889891955312 8.364625664004926
Cd 4.624652294240985 8.911999098723948 3.231383340751323
Cd 5.469467327405818 3.754234276782571 8.985101256218298
Cd 5.0197055170643665 7.748247728983795 6.317028518112921
Cd 6.456630438185353 6.766432836491314 1.928145591152323
Cd 2.484722639269157 9.078696688504753 5.376842740509023
Cd 3.6831948467872655 6.079700733150412 8.497252089926848
Cd 5.79638638936785 4.07784113605704 3.70658323202557
Cd 3.6138234329837235 6.159179368670488 3.8943285922822026
Cd 1.5605605673978997 8.070870214073555 8.206199476401867
Cd 3.9371815511821278 4.109505080996965 6.303824628570557
Cd 0.3976010700819109 6.862107829942746 5.664390524028352
Cd 1.3960068851893561 4.1960673994037325 4.718323697372231
