24
Energy = -8.15521324 eV
Cd 5.627466675876611 2.7164005715081747 8.734942290755244
Cd 4.790834522811663 9.408566216532359 7.625292593819928
Cd 7.504967669595455 10.982461090097438 8.104754320117262
Cd 5.972211912100065 5.785932004594429 5.252678982342613
Cd 8.2760061348223 3.5799361214463894 4.555871368583971
Cd 6.497303087382713 1.6548281269841196 5.997083346737426
Cd 2.994664950299134 4.9914735797884875 5.125326237938852
Cd 5.245301092516192 3.187220007389734 3.701850405018834
Cd 4.430396886500508 5.3370651486680565 7.794570537631328
Cd 7.764531607595391 4.461228303690609 7.3627326111584415
Cd 3.91233024619257 4.92741676296337 1.76573947222194
Cd 6.948822115546572 4.847842942199204 10.450714820777508
Cd 5.143923604532153 7.483666270991932 9.921979053480396
Cd 6.735527287658671 5.959616268348289 2.2448836956283134
Cd 2.9987731216912312 7.905112096023675 5.804866012201973
Cd 9.861390531068611 9.493664936429727 9.312118766091542
Cd 8.039534531720191 7.889576200186045 4.288971542901328
Cd 8.04823390000634 7.594401408578542 10.582476256796546
Cd 9.712898274677563 9.20201863797007 6.376178650767177
Cd 3.6350985226113677 2.4554636413950854 6.485212033942934
Cd 5.130255908040342 8.436823166410615 3.6931604224003114
Cd 2.3896771196418194 7.187878984651248 2.9074671559438094
Cd 7.188827887130268 7.530372838689716 7.382141689990039
Cd 9.846861734473944 5.6768739989541945 3.2248270572441053
