29
Energy = -10.51093735 eV
Cd 6.6807259577855636 9.66889475971239 1.7508040594909235
Cd 10.45303086562755 5.937590741998489 3.300899889118647
Cd 8.917799656011073 7.48893124826297 6.578856794071859
Cd 7.9916142223461 7.686869476173345 3.702115807425757
Cd 11.326965715529685 5.69767649185516 6.127043965215422
Cd 7.638122275571892 4.658870608424538 3.0490661644137145
Cd 6.019829404269594 8.043851180296762 6.096229087647988
Cd 5.253190682032 6.631323260430808 2.5492158133196416
Cd 9.187420163710618 4.746851112089116 8.05113824050684
Cd 9.426278450018799 3.438112608405263 5.227605492726414
Cd 4.37602923834925 9.347103819513496 3.7788642177468676
Cd 7.98580500454426 7.182646395989289 9.460175986618356
Cd 2.670565720527624 11.831506803844224 4.9774297605194215
Cd 4.901661296266591 10.814903645421543 6.700409116495195
Cd 6.795495824414866 5.174358447114739 5.980920308461189
Cd 6.024896167026736 9.54656166346724 9.242138037626047
Cd 4.75105953324046 3.8361569321746023 3.9123825639007057
Cd 3.055633630053618 9.067079764974526 8.75151471421624
Cd 7.305333484899974 2.3783057179051768 7.428390805137297
Cd 2.1341194782969746 8.893991981777313 5.853511469082259
Cd 4.986345491221314 6.661597970220849 8.715268796758746
Cd 7.262173965634313 1.7524741270144721 3.960862869056293
Cd 6.53593305787674 4.3051652143895796 9.5767849055738
Cd 3.649384184053784 6.368187742036936 5.143841222481914
Cd 1.8772939262682409 6.400078106360966 7.677158627983609
Cd 7.604741986355925 11.831506803844224 6.167168528730091
Cd 4.90457511250187 1.344188480671317 5.8375194687220535
Cd 4.173284283114188 3.9336048655629337 7.170989962421282
Cd 3.040571242370986 4.558013132736904 10.141970137792974
