23
Energy = -7.76574592 eV
Cd 10.415256277109412 3.6361325694492517 5.2514555337185005
Cd 8.062315006829962 5.28555358128541 3.722103688086983
Cd 4.967518288654658 3.9503266313493066 4.695300825899975
Cd 7.5404468952373 3.026577666957903 5.892747383363697
Cd 4.367504661912211 2.142320567526733 7.052105265665485
Cd 5.455070965784547 6.220039389977649 2.5700502776368412
Cd 10.289994069141626 6.581166369244391 5.662673636936144
Cd 7.90117735117885 8.34731026923768 5.140209324702274
Cd 2.9283896381347705 6.206925202753399 4.365699496187224
Cd 6.9275615226920095 2.5682751800421646 8.868018789781422
Cd 9.157690542609737 4.582236424374517 8.10414596739991
Cd 6.5272024331235485 5.975128625871876 6.440542522902304
Cd 8.933347362394558 7.614193595014302 8.168129681288976
Cd 4.340661150423284 3.743242904216721 9.754601577937292
Cd 4.8920140677361355 8.439501407492683 4.581372078808028
Cd 8.289405688723766 11.492573573593743 4.609584397919964
Cd 8.829239439003013 10.660210910911749 7.631104665111755
Cd 3.5761659896124978 5.262118451004651 7.223334548573812
Cd 6.5414426196744335 5.85268954993777 9.416488215797969
Cd 4.592768825761066 8.050064504187462 7.71258198596526
Cd 5.916018893485256 10.666873659219982 6.432119613541071
Cd 6.765791344040554 9.151616865808444 9.532152306129674
Cd 2.8963464834470196 10.658251617253542 7.286807733356447
