25
Energy = -8.82493532 eV
Cd 5.511415856104882 3.5171214788555907 1.7221321020152551
Cd 7.239987593457629 5.893635186016373 2.2479340785708803
Cd 4.0983158242099735 6.132001609933992 2.308474921750352
Cd 9.798786308927035 4.667661251305377 3.5728027843877253
Cd 8.79360577170674 7.698756002271576 4.10857469783056
Cd 2.708687801679739 9.033645704016173 5.206631508677899
Cd 5.893240435973629 2.852052226396985 4.548504103382123
Cd 4.037361782847757 5.442898870828944 5.4183594724005335
Cd 5.444158339149291 7.973487503430654 4.461864746393182
Cd 7.522240027803081 10.074580504282487 5.419635420254123
Cd 7.169299954187419 5.496240976339319 5.4413033669652515
Cd 11.134770049245047 6.205612150857029 6.0001500985545295
Cd 4.57904252669436 3.050101422868536 7.229845760825991
Cd 10.381458741305298 3.3080373786434647 6.28727192864735
Cd 1.3401284602623589 6.645895488282298 6.292451674383682
Cd 5.91648521248669 7.148875648895086 7.6036946995178045
Cd 5.03756814297689 9.925113327880005 7.0355804809926825
Cd 9.149305624063906 8.205149014363636 7.125314564464167
Cd 7.583706334031392 2.9707620762922318 7.129795736219068
Cd 2.5605086127497283 8.55500733678798 8.367259022744724
Cd 3.4657766884966814 5.593774235442689 8.473048985535971
Cd 8.390540548320617 5.634835582903698 8.411946571110347
Cd 6.8883556182689345 6.617292065020615 11.315674659228494
Cd 5.965909678004339 4.244092184603744 9.578035145376141
Cd 4.935652971717162 8.659679678152617 10.240022374442269
