22
Energy = -7.41997174 eV
Cd 8.408878609617096 8.246033881922303 9.765077051413519
Cd 4.435211607361527 10.861723253298901 7.002768788102615
Cd 5.2511971845731535 7.635962436307151 9.703408277648233
Cd 9.244314187673108 7.171595285308039 6.7849639596678
Cd 7.156214899994757 5.463865072521258 10.69015793045302
Cd 6.929818302931687 9.241037398701328 7.380342092613626
Cd 9.93783820694527 5.622010008361021 9.26269258471064
Cd 2.8246710078598163 8.695260733137028 8.306997307281918
Cd 7.767946303646655 8.892435924180106 4.431448313867831
Cd 6.20142328636406 6.405426708394407 6.707454331961774
Cd 4.771076425185431 8.776533077180904 4.781727619320656
Cd 7.850545939073182 4.070288824823724 7.800942049547436
Cd 3.11625760113955 6.365762598006418 6.472679081635903
Cd 4.96235315976226 4.600478165633131 8.776384803386831
Cd 10.156999530165722 6.514076232684312 0.9004366135193846
Cd 7.120368173956416 6.8776268095502875 2.1101215978726384
Cd 9.53327275237771 6.370216686947457 3.9238194980807326
Cd 4.945305806530863 5.890840180379631 4.024513244975823
Cd 2.9466531156841955 3.403877321015912 6.919006564774903
Cd 7.526528348431478 4.314750166532469 4.716276091963376
Cd 5.8137653730489545 2.327999533548424 6.361956920707109
Cd 3.9552860055220322 3.108125529410538 4.032751104339972
