25
Energy = -8.5088841 eV
Cd 8.054253285487619 2.2712958128426384 2.8350974957246073
Cd 5.200924457354798 3.24310921265553 2.7417356764163476
Cd 9.39104878364393 5.002031848424677 2.8727567447266265
Cd 2.153247712567059 3.699016192478402 3.057084510466211
Cd 3.9670517728820247 6.070760969039052 3.073591538527582
Cd 2.5061849128898888 8.940213678750174 3.4471170056685723
Cd 8.52372326586831 7.000568654620731 4.969066111074686
Cd 6.111003876799781 5.184495335803346 5.005471139537157
Cd 5.319369901690588 8.361041197923464 4.414212556240015
Cd 6.443105791599827 2.136681742137933 5.561460293958118
Cd 7.928773738909747 9.902978769540843 4.44586866568015
Cd 0.6739936769358882 6.750571167102045 4.443633881745836
Cd 1.5127408157546807 4.24978080379337 5.937699087311328
Cd 3.6027798535068025 6.290369694588544 6.238089647545308
Cd 9.209804833806432 3.525439363153882 5.65389089123209
Cd 1.3660361307675166 9.26577912047181 6.192146097386471
Cd 3.482661258681626 1.9650486380923389 5.234649336937438
Cd 6.7410845722451915 8.502299530645779 7.1329290731384765
Cd 11.382177614078401 5.834642078763006 5.363441742306808
Cd 4.339955853009766 3.632715967968643 7.621974025917175
Cd 3.774480382195597 8.867898572442067 7.879183196216068
Cd 7.848941754840856 5.538223010903329 7.6438605389977194
Cd 7.932804989233139 2.3713940878022903 8.147702656653754
Cd 5.275574912476532 6.452867583663599 8.92093270332731
Cd 6.163665992182545 3.8461671057998488 10.07179552267183
