28
Energy = -9.42468295 eV
Cd 6.717915714778743 8.037561391509039 2.343078501850064
Cd 4.021080832763849 5.634931232079634 10.280454910227752
Cd 7.090995821965505 10.598411044109973 5.075052200499101
Cd 6.135954812126591 6.408712972080848 7.348203730123487
Cd 8.06053645477508 6.091009917006941 4.8626301009829165
Cd 2.59403896523936 6.068653094608818 5.039258374528563
Cd 3.495716032366884 8.547437706412545 10.117665789669475
Cd 8.747612021764542 2.608591972970956 8.714109655442604
Cd 6.090170918576837 8.691113905422258 5.496398859931682
Cd 4.490076245745136 6.014493433758078 2.3185550773776757
Cd 3.7203841216785256 8.696107066401483 3.6688644121050884
Cd 5.407363718257448 4.62857326398638 4.804224380992873
Cd 3.628773619954829 4.535297432125129 7.4186465986760375
Cd 1.1645002603740497 9.099804237854592 5.2472182189239955
Cd 5.753834737866634 3.381372496783182 9.320594274077367
Cd 8.859839471193043 8.139135469449577 9.197898381740888
Cd 10.477618960161749 7.672745602473798 6.498648553315491
Cd 6.649743519030927 2.5922788040017886 6.501642116384319
Cd 8.961182307263686 9.457653215609701 3.832314604522532
Cd 6.118115487928122 9.3600149331252 8.645794461887167
Cd 9.046859890522256 5.290954447121453 7.581822451980228
Cd 7.177994986265808 5.925684636790745 10.176242041538737
Cd 11.936014817794995 7.878097331994817 9.323190547170569
Cd 11.852428222932833 7.983755079325794 3.8320548258775213
Cd 6.029887860422424 8.27564742551185 11.741863524768224
Cd 8.468620584587624 9.955092270829363 6.796899471272838
Cd 9.506711899560788 6.786808204245007 2.2745798483154793
Cd 3.4220933207443323 8.037641576474595 7.168159692460782
