28
Energy = -10.28024591 eV
Cd 7.604699055009923 7.417486069387532 9.103736413932449
Cd 8.331848955369328 3.1860412378881953 3.124313159043403
Cd 9.89612707037464 5.720527564443343 3.913443639673454
Cd 2.930850398217343 7.153751453298786 4.620082205725744
Cd 6.052072567663129 9.88683020607505 7.87705018063303
Cd 6.709508180058026 5.536586689160798 4.027914863135315
Cd 7.890820474050105 2.702659323619374 7.967796615564807
Cd 7.3184890762999615 1.378242062835523 5.425762200151389
Cd 3.702629564055222 10.04499656722289 5.6189385657808515
Cd 9.48577016721088 2.6755169943840205 10.448404881467155
Cd 6.182437250425799 4.703046664971003 9.598909040631149
Cd 8.464896806840398 11.728830037173704 7.044048008411012
Cd 4.536056105855847 7.145331684994033 9.362514049210601
Cd 3.2341230251139095 9.761253183299592 8.76143048240859
Cd 2.5782639058193824 3.8658800041165318 4.690802735420253
Cd 5.627773158801068 4.0871030188083655 6.565426163614867
Cd 8.32832416026905 5.591261172435979 6.83362900819162
Cd 9.958744893552195 3.3045560386612394 5.749499282765433
Cd 5.595091388156109 7.24645812306963 6.286496520160151
Cd 5.432964983087312 8.199833961536363 3.2683356707243543
Cd 4.048333536547352 5.396788775887493 2.4857351717879776
Cd 3.137710168144101 5.590227370942517 7.201995914475622
Cd 5.2761743716398595 2.7655206431340775 3.7763336271590404
Cd 6.576183485039425 10.670617503155482 4.783534462241278
Cd 1.4768193654009731 8.211639761855993 6.991409026098952
Cd 8.415478850468357 8.379585445482274 3.5374243126387057
Cd 8.695037164721283 8.632082878326434 6.4909678665792585
Cd 9.074623227371486 5.579196919397058 11.005917287936814
