29
Energy = -9.33271371 eV
Cd 4.3833783089268845 6.333656017857151 6.700943954371989
Cd 10.42460396209081 9.996595437649765 3.5989482608603627
Cd 3.0218532075905573 4.360941184276653 8.65137159314936
Cd 8.44894353425394 2.4187515228423497 2.541712072137425
Cd 7.437713707024689 7.118172725276256 11.427540047270865
Cd 10.28326713844897 6.65862019427234 6.1181125980906526
Cd 2.0952534409414802 8.162898190047628 5.496591641877175
Cd 4.724754171852775 8.706527147654281 4.1519772871901575
Cd 10.388376884278916 6.53181657188059 11.40976654211415
Cd 6.4595160483585 10.304647258289206 6.999440219477348
Cd 6.397855927877118 7.6791624244718735 8.669414842840876
Cd 9.955216959462314 3.245883955236461 6.700686781062119
Cd 5.352049089059606 5.040551733280904 10.392902907910429
Cd 9.536222506973505 7.947436998217167 8.78294605966272
Cd 6.34946246719428 3.9716819913925967 6.394196296300172
Cd 5.256135070922642 10.877084933543996 9.775170474326009
Cd 9.65454344674273 9.852201835615082 6.540630487760382
Cd 9.11985523282058 7.289467914979042 3.2440689388317896
Cd 3.5283151839316282 3.0759521015164033 5.857137780906326
Cd 6.113030566460488 9.647133503148765 12.348772555707123
Cd 10.939425352411057 5.075448667182671 8.86663573591317
Cd 7.019632004587634 7.049862239704781 5.582675266816354
Cd 7.5936715068331555 1.0989427221762091 12.348772555707122
Cd 8.579560552375034 4.658131346907258 4.4516038560565345
Cd 3.4745389745174653 11.047032228001035 5.7147061896923175
Cd 3.785909853520657 8.994410038898797 7.977675133332666
Cd 7.455395131625878 9.897710947626875 4.229135966871721
Cd 1.3677864560194115 5.225019510060364 5.907266856405089
Cd 7.916240910436094 4.796766255531931 8.789762081330517
