27
Energy = -9.23297892 eV
Cd 10.861659641264406 6.198561546342107 5.26931967203003
Cd 8.923627905256467 4.54039511045586 3.886371596461012
Cd 9.240883928057194 6.007213380302423 7.881806053920434
Cd 8.819477461389624 8.373739677149333 5.56207191538828
Cd 7.476005977466784 1.9488825209261684 3.1497468852049026
Cd 7.49026909504942 2.327987008809067 11.728561253412527
Cd 7.959342143175799 2.582516511164852 6.035526100825585
Cd 7.856375323567355 3.5258230325941193 8.808533430032515
Cd 6.8905203085174485 7.1579900360925794 3.280528695474785
Cd 5.936563188396558 9.340504732734612 5.216092124002476
Cd 6.459062961337647 4.493629827227239 1.8400550537975744
Cd 6.554766423582266 5.739004206453371 5.967491939470712
Cd 6.936433572846159 8.260790470136167 8.02711522543213
Cd 5.008344303683338 3.2948570972683906 6.873818015111693
Cd 4.028116016794199 9.338950779934695 7.855469756846025
Cd 4.600757635243995 6.374866652617852 8.445268010741085
Cd 4.711684153993897 6.7790138156901465 0.9402566229039955
Cd 4.73799863466075 1.6812077588550112 4.174181226813805
Cd 5.088042014843541 3.8914167041260685 10.073710532336904
Cd 3.5501252983806437 7.215814039642502 5.613988014866525
Cd 4.027653910724913 8.864813383711246 2.994080502341299
Cd 4.373779773680724 4.7301295263249274 4.052457401730648
Cd 2.220663730922579 2.554820557443909 5.615692255463038
Cd 2.2801806169437002 4.534819699892951 7.992246501833865
Cd 2.085269568890719 6.391696532684529 2.684484312156756
Cd 1.339730602685614 8.993914332618374 1.2852945944941858
Cd 1.1888611652463774 5.343949939345806 5.3228994870346416
