24
Energy = -8.38540664 eV
Cd 5.120778903371748 5.2841258206492725 3.0172517890712567
Cd 2.3370716154568743 4.138603458429742 3.7314770923269465
Cd 5.2986643605774875 8.404106615178817 3.8174206669208304
Cd 6.239537540712368 2.413066905912611 3.7461050492764163
Cd 2.568425159196329 7.187886759794598 3.9072016274386034
Cd 8.263599824727088 4.352548806980902 2.7932408989724307
Cd 4.581320040593303 3.6116576561734988 5.840355312793403
Cd 1.914053015395521 5.38713114635457 6.41877717585899
Cd 8.207489405810835 7.269461309753319 3.281077607948733
Cd 7.7416960214703465 10.125183169990326 4.166539843607092
Cd 4.203529307529722 5.297124064788488 8.356192450590191
Cd 8.749739584419846 2.619340781180569 5.386051704061305
Cd 6.208618087148593 6.174251165489362 5.719197136517913
Cd 7.159480648049113 3.937598375723471 7.635487037166788
Cd 6.606405830445763 9.252674232712506 6.81970821519244
Cd 9.167323253264403 5.611912933964459 5.647779347248066
Cd 3.8586449360267348 7.814084496249696 6.716680800575882
Cd 10.106561122916045 8.527116041337932 5.523744279297865
Cd 6.4752098449709266 5.356961288565474 10.254089767695026
Cd 5.182447204847319 8.034821891013415 9.553533358530158
Cd 8.071715426790584 6.930414827058073 8.260534209082804
Cd 9.579570179879578 9.707329710701197 8.153884169697015
Cd 6.738930165391422 4.132787606552014 13.007858638136666
Cd 7.241827718087982 10.192502744222551 9.928209229424848
