20
Energy = -5.8491038 eV
Cd 9.31127272089117 7.360701688549169 1.2100346722977968
Cd 4.241002957746174 8.13508951893328 3.1130068241756916
Cd 6.578295042343325 5.905245158109033 2.057879361511199
Cd 5.352361669448384 3.1576935030374216 2.774891943232569
Cd 5.321247064274485 11.112248338825617 4.057894843013967
Cd 7.281797920970325 8.830604134753624 3.103326993912408
Cd 8.975726717564264 6.4700257583639775 4.210453519440575
Cd 3.5138964527285217 2.61559397479968 5.120304375370606
Cd 4.999368336749085 5.572261166900617 5.038943702840113
Cd 7.5556958062995205 3.7581238357753874 4.705212037453656
Cd 5.6540043742502455 8.658118863658062 5.945827424275768
Cd 1.8420997433366615 4.593113307785831 6.7007847151164865
Cd 7.794754662005618 3.760728014403948 7.744494047035268
Cd 1.9632809549869448 1.6276641970344936 7.823436555470992
Cd 7.8853409042288325 6.934726832353113 7.004868589911306
Cd 3.9385736830774754 6.847453353659452 7.695081368110642
Cd 4.666464542359833 3.3995150962943828 7.879762086889449
Cd 9.29387812987966 5.857266081940261 9.554163056733131
Cd 6.207531618786069 5.7204460316252215 9.542363455474485
Cd 3.2138193114854574 5.27379375660947 10.307683041146284
