22
Energy = -7.70743438 eV
Cd 3.1387208849667747 7.613100513872525 4.916732473558428
Cd 9.59918650183935 3.8410756274873035 6.238083912244546
Cd 4.98558923954111 5.6476938154278775 3.345305170230665
Cd 4.490406901392083 8.544865012171567 2.436661014872245
Cd 9.88171214525141 9.186895045722103 4.228829482006309
Cd 8.572764760189997 6.178579926767456 7.803167916003847
Cd 5.319018741795144 8.872950654789221 10.182058193219223
Cd 6.908216839963381 6.274813195001608 10.37075070347408
Cd 7.485626936280438 1.8901630991430391 6.7597956093797835
Cd 2.3619356324322407 4.118997377521327 8.152130037445723
Cd 7.943427924237634 5.434496078783083 4.236841844071762
Cd 4.1229913757532595 6.23429179472911 9.155169978041773
Cd 8.152548181341057 8.865166666480055 9.215702663949651
Cd 5.761283326491132 6.209343046059768 6.4598937264022105
Cd 5.475771709833174 3.369524305700267 5.2038554018687355
Cd 2.52076265968816 4.624300521795663 5.231442222823576
Cd 10.571933293558024 6.543135186357215 5.470344772850495
Cd 7.199539394633096 8.285032843551122 3.5044416755728105
Cd 7.103940047712157 8.871939626400582 6.39212876304837
Cd 10.334188963772169 9.112925664395823 7.191646637965276
Cd 6.194771323151289 3.943493787700083 8.554855711737508
Cd 4.289956633461118 8.751509627426485 7.364455506516423
