26
Energy = -7.76396786 eV
Cd 7.524177414413121 9.03302344639823 1.7564744402477213
Cd 10.30090719091015 10.289741572425545 2.042027921580235
Cd 5.106684612372773 3.2545133951484493 7.999200238227102
Cd 9.907456193773422 2.2919791793390885 5.374473995705201
Cd 7.224197513918668 9.160128076217527 6.974173859736803
Cd 10.166272837941701 7.3315455481655905 2.4409312216351804
Cd 3.329244801503663 5.534793681186925 8.540112920018272
Cd 4.273790784123056 7.76031727661507 10.654263396974025
Cd 9.863202514900227 9.416981085543162 10.31268326744889
Cd 8.675846084460819 6.927167844807396 5.385818656548314
Cd 1.3315279984142847 7.428198270955161 10.043971086381193
Cd 4.8002831316804295 7.659210574489072 1.7658719483854792
Cd 5.774266759767804 8.644319357806976 4.419185468503203
Cd 5.215433729547718 6.523209162276329 6.495463156563158
Cd 0.28588817553159285 4.888080485205381 8.047131248095665
Cd 11.335558507527134 9.902496414801677 13.09678899597097
Cd 9.6159719217438 4.608694941537955 3.6345972967002984
Cd 6.666451559784407 4.077476120513197 5.238251518603309
Cd 7.056303145563719 5.901996549740157 2.756308502912082
Cd 6.834457933316925 8.926058518463876 9.871800486761952
Cd 9.177301572224039 7.043521265191133 8.57594605383391
Cd 8.90184693625255 4.34026282153006 7.540945499056954
Cd 8.720354831726219 10.117756520714755 4.562705933595091
Cd 7.3561477691716135 1.6350494756971008 7.039066588299574
Cd 11.335558507527136 5.97808927580162 10.596058496022101
Cd 6.410964415695576 5.755235996707477 9.265594659473722
