20
Energy = -6.56820967 eV
Cd 10.153852550860915 5.061426821525208 9.809571315651269
Cd 5.789704264266412 2.701047881460225 7.406645882910873
Cd 5.258183471192379 3.4299703073175842 4.478673036094577
Cd 4.788649979763931 6.4433864897027275 3.5412618519420227
Cd 8.420721523041324 4.858734246018805 4.751542553078945
Cd 3.0738826227062663 7.825356252804567 5.648862327244259
Cd 7.027224809745853 9.455037695080613 7.417018404629864
Cd 6.866786687423636 4.698257761314666 2.2308726041869007
Cd 6.22806277807778 6.638992818379492 6.240170903816722
Cd 5.6848383212643805 9.386538420249408 4.523821430426308
Cd 2.9218710970909663 2.1510680235982123 6.219809167081474
Cd 7.921526828459876 4.752537695365042 7.828339904860646
Cd 3.5621311789089223 5.0924520913704825 6.896708215415822
Cd 3.247594903034428 7.6441914082005304 8.725359192750762
Cd 10.203550152221714 9.583138007797167 6.7769008678640805
Cd 6.099589643170097 7.002818899167753 9.256043672983681
Cd 10.31371290304657 6.412711469797655 6.563581180651505
Cd 9.002752560360163 7.783800261529714 9.026351695764198
Cd 4.126458443569449 10.241551749952635 7.237976355906494
Cd 8.535074657696182 8.063151075268319 4.646658812640803
