21
Energy = -6.80022392 eV
Cd 5.874151707912624 8.92480301291104 3.6460502631978313
Cd 10.528882802244652 8.805053153476779 7.498698632655265
Cd 7.7480353232215435 8.882866944227931 5.971135008983863
Cd 4.461642304821982 10.083038676895887 6.146671849418954
Cd 8.197220284844688 9.917890931223514 9.117894754371255
Cd 9.73158836647834 6.232246891959535 6.20455124705283
Cd 8.197138315036934 6.674551773086596 3.4581294030959744
Cd 5.467979628177536 8.66570864003816 8.838973498399659
Cd 5.109435864656538 6.3989797278465765 5.032350021616067
Cd 2.7353035738115965 8.19194320630645 7.756228332202268
Cd 7.0478558860661344 6.425012247105377 7.669637667331871
Cd 9.141665708661593 3.919268774573389 4.4323268568792
Cd 6.294453467153122 4.173376303178125 3.2794357324712924
Cd 3.2458660671212622 4.335992780021345 3.415267296035468
Cd 2.079905340693121 6.343290380805357 5.509782016459454
Cd 4.198866985795152 5.423216938645394 7.852865076993989
Cd 6.718432883970225 3.7765836068845635 6.432520755486181
Cd 7.734259410467944 1.0609272103686578 4.68273586558197
Cd 4.445502442372948 2.346050418545167 7.913952371615922
Cd 2.2216790140465523 3.4475697120751363 6.236318711943668
Cd 4.690553276207939 1.9823087369463124 4.832259766061482
