23
Energy = -7.72917219 eV
Cd 10.838418674660591 10.561459396348788 6.378562531784978
Cd 8.961341473004627 8.880574954459984 8.445897108067598
Cd 7.7635673619782155 8.931233573118694 5.590654209965298
Cd 5.887735955738187 9.280234146953847 8.04514849043272
Cd 2.670051723331429 9.617057620464006 8.583000398570078
Cd 4.858416901008706 8.32880838746464 5.291012075674505
Cd 10.36323397326293 7.668223367992878 4.831844087131524
Cd 7.731833037865563 6.897528010745472 3.2234616896111907
Cd 4.457771695629828 7.984474782077748 10.414262183996948
Cd 9.322438171551182 5.881466638607284 7.936423697479445
Cd 1.7974566395980787 8.746370490021425 5.901257846182074
Cd 6.794912838299046 6.054096485305093 6.2525030302182625
Cd 7.123944162699677 6.830718981826412 9.787965689999904
Cd 4.345761533182047 6.117509153699239 8.071080292757147
Cd 10.235524140410712 4.732333608718981 5.294313461929708
Cd 2.7840453687378433 5.868367978967916 5.315264994899895
Cd 3.8055382498841857 7.247604397360259 2.7344371350879064
Cd 5.48955004380606 4.894890572439771 3.361737036795641
Cd 7.694802716470933 3.333003771944113 4.559105942156976
Cd 9.035986528870675 2.8457954504665812 7.336249638062755
Cd 6.775779008734038 3.9269765573528375 9.101058657792972
Cd 4.837335172374258 3.760504292299907 6.1500335502984305
Cd 6.288631562362565 1.474844314825829 7.258803184565744
