25
Energy = -8.7591837 eV
Cd 11.428205235262709 4.950217670348722 4.067009269902794
Cd 6.58523694757438 5.748953706493282 6.267660402529193
Cd 5.54641952711327 11.481202858886789 7.656421074892412
Cd 9.465927368988776 9.036725017638714 9.616190208305936
Cd 2.7122947096713363 4.884247441263095 8.605197117015638
Cd 8.638953509506806 7.9391888698683095 6.88269167943366
Cd 5.8353831721343505 5.139903458392259 9.498592330528712
Cd 4.761768446503817 3.3034001196956857 7.2186092364265475
Cd 3.4965922695481937 6.300287589835728 5.995406188385004
Cd 7.198419219423191 10.184733151315244 5.413916077199262
Cd 5.505653038871842 8.349783827753116 7.120349116235368
Cd 8.495012917884118 11.426552531752552 8.162272124004588
Cd 3.5653453514652007 7.5342154189883015 9.373632973809183
Cd 6.661857025396184 8.087438205360453 9.948354582009744
Cd 4.304965607990107 8.8684589156314 4.3810913912438405
Cd 4.470668264875292 10.257848441702048 10.08895821133934
Cd 10.53682333923021 5.486242845689275 6.924090310231523
Cd 5.62727394921639 3.1409336205235014 3.478110443649918
Cd 6.9549460868713915 1.872780366767842 5.864337076822713
Cd 6.8916113695845755 8.651515678640406 2.887009904015185
Cd 5.336699536056626 6.10617092245388 3.502492913324699
Cd 8.126891641029918 3.7474470647038736 7.849854148274792
Cd 9.038481658297574 6.053561209215674 9.470774500746733
Cd 8.757554872701078 3.4514766956874574 4.118702039358208
Cd 8.5760086764405 6.515708113030549 4.127270421953819
