20
Energy = -6.57608548 eV
Cd 4.3525309819086155 8.492850156930734 7.82143477501535
Cd 6.820847351581554 3.669391123889965 3.541130091015066
Cd 7.204001970045091 9.29618328513427 6.688229403032974
Cd 8.795260657897026 6.085551230970893 3.801264623543031
Cd 5.536095158012957 6.29159840328657 2.7990899264786466
Cd 6.0696807007519515 5.988676724751577 6.052677614000574
Cd 6.089796434586693 2.4767446990683735 6.329953739746515
Cd 5.278575609341822 9.678190448604571 10.459801211011763
Cd 3.404374428482303 3.569072902432913 7.241987142614903
Cd 2.792458665051278 6.434639464129912 6.300737805552515
Cd 9.238961838838053 1.851220336031551 3.5377046719011993
Cd 4.495548952773545 5.694954004994838 9.211885989006904
Cd 7.025414453717397 7.398049049019572 9.063120755440378
Cd 8.803379716227784 3.8665255217636147 5.98556516057434
Cd 2.425153221216251 6.720040542450085 3.212769762376213
Cd 3.9535459471101726 4.139280637345094 4.301537498434191
Cd 4.394485404838258 8.551674887103035 4.797880522310358
Cd 8.997596760228006 6.83571367327017 6.761599526513646
Cd 7.1887962861719386 4.342373688953024 8.500844526325826
Cd 7.218934335488967 8.70270809413904 3.676224129375404
