25
Energy = -9.36875578 eV
Cd 6.937412366260998 7.654083020561607 2.6942724932794855
Cd 5.043213783884862 9.250805400981008 4.357742805766825
Cd 4.279981022851484 6.3130744135045855 3.3879543146234887
Cd 10.849906901281841 4.516882997051893 5.712925090988213
Cd 9.542186601465234 6.475281073921818 3.916426185759023
Cd 2.1257838345615356 8.660272210836517 5.016640205307121
Cd 9.148363077506087 3.1815736694021366 3.5653641823435613
Cd 3.759871225902552 3.3998866865565556 4.309416691001855
Cd 6.4031340060829915 1.9968876091411139 4.462044180834004
Cd 6.858155434424674 5.088061804611725 4.3243273519112275
Cd 8.483152896175481 9.217913941897592 4.6583210425344115
Cd 1.874175717377171 5.737146193384923 5.1032390940504895
Cd 6.714412630798508 9.352093448636957 6.9972423986390195
Cd 8.703969888603254 2.0226857059772514 6.399757390078844
Cd 5.310203358951061 6.721747885420998 6.345078976468676
Cd 8.350390618941445 6.714962719722055 6.817294787761061
Cd 2.4366541610248396 7.2927398979476425 7.766053560816861
Cd 3.834163078945417 10.405767289694358 6.887101926024522
Cd 6.534853222286093 3.9515713552195915 7.234894456614879
Cd 9.589156826156326 4.182784485298872 8.318972103982526
Cd 3.4902873812132125 4.114429831070563 7.187447949857157
Cd 7.154531126065175 7.80565137406303 9.520015001266994
Cd 4.709779146313065 5.834692605746505 9.306427516596985
Cd 4.318972267843736 9.022464531759503 9.46281303187525
Cd 7.402962133080951 4.942212555590534 10.103899969617363
