29
Energy = -10.53489702 eV
Cd 5.166816769876069 10.967673150368478 4.2900233771864436
Cd 5.200025783267828 2.5676671310259964 5.5984172223199185
Cd 7.157486483549304 3.9678989277323407 10.070767381209361
Cd 6.7222166600264295 11.054148733637179 7.29128934163472
Cd 3.717033802452067 9.95018366146612 6.716240145430493
Cd 5.006327465464956 6.881446090317198 9.193987179507612
Cd 5.988877195262809 5.381378367256587 4.672616601700095
Cd 3.052907149209247 4.865940816819228 5.281966084282883
Cd 9.209191748128822 7.7556874499175965 6.55729590853352
Cd 8.99720758976721 4.4314809648671245 4.437215505722663
Cd 4.273379234256398 11.452658932060235 9.185842810130696
Cd 9.275616297049828 7.418761932794503 3.657056561033768
Cd 7.307781670374921 6.743549000291189 11.08934974564595
Cd 6.157324535196253 7.9100884593764045 6.64565644560255
Cd 4.338488577976784 4.320948854389259 7.995877970312516
Cd 6.0697471231315 1.7896923506892772 8.402547849463302
Cd 9.880334001825249 10.916842380778588 7.345152233379213
Cd 8.22046578615938 2.4621942660902296 6.500863620243031
Cd 2.663041397710991 7.163839348275413 7.332416609369075
Cd 3.5172347162501536 7.763327442295032 4.455773449825373
Cd 8.286083979412895 8.834957946361039 9.146724487209994
Cd 9.699168419611018 5.847838912918071 9.45662967490413
Cd 5.737731153270533 9.388195938105666 10.63042962298543
Cd 7.543709331940729 5.380106702759822 7.351013371806559
Cd 8.240411710440496 10.33883295330293 4.673133080031543
Cd 11.853810097356517 8.475424943529395 8.073195113790874
Cd 6.3767490546444785 8.132137949549938 3.471921427593142
Cd 11.380181942714305 5.8699540999814825 5.563480410828441
Cd 12.3568906797321 5.363382649101915 8.309357124375122
