26
Energy = -8.47090336 eV
Cd 3.816106129952726 2.5689769426608553 6.266499820426894
Cd 7.63981042165526 5.596480836496091 11.900190298537225
Cd 3.2984233532766614 8.049687511573008 5.791383068973073
Cd 8.993138002882567 6.49983723926495 4.722875235308786
Cd 8.223045281287519 7.148028228975413 7.622027652182726
Cd 6.245441498098912 7.784015474606492 5.10335854519765
Cd 6.8895823321924095 4.753572443890578 3.135896234072846
Cd 8.48460131839624 4.255789610346339 9.207810314625576
Cd 6.44565955891786 11.227916461466984 4.470024510513363
Cd 9.915762450484744 6.81089398328987 10.109149899885491
Cd 6.731183264641929 4.555609303493772 6.145074278233565
Cd 3.9103116042690154 5.246918198800851 4.902431604879778
Cd 7.3175216581773155 11.422704123501834 7.541255051704554
Cd 9.590097109312799 3.5317814825967013 4.686078416653336
Cd 5.051802734583988 5.0052844702301424 10.543411156343566
Cd 5.881188543044936 2.901479907685176 8.553761782376064
Cd 6.4844865806634155 7.818205908101123 10.012889593528609
Cd 10.668895369272956 5.093252915896995 7.09273577036505
Cd 8.549534657580942 2.0346921990609026 7.087311552778256
Cd 8.745049025039162 9.482170528690204 5.619605152295882
Cd 4.148282943153859 9.786039986507706 3.0406306013073836
Cd 4.9114078769471226 9.522810965113653 8.050407560964159
Cd 4.765542023494254 6.266936247160055 7.821303468460875
Cd 3.578776497561117 11.0494264187025 5.729780395507489
Cd 5.225321449673536 7.0881824205131165 2.189612978551531
Cd 3.9804508610638663 3.990728736999305 2.1459176019500976
