27
Energy = -10.00643959 eV
Cd 4.3955420684413635 9.720692931694384 9.183315014511885
Cd 8.583824944246683 7.367215885230208 6.725760078233771
Cd 5.319763312544601 7.428568629691949 6.544586940714188
Cd 4.875006460629696 2.094734428979273 5.258887114646825
Cd 8.56523128433265 5.331393826704183 9.020451538266085
Cd 2.1658466820602436 8.754878363618584 7.2463865081300325
Cd 3.4757699178112182 6.835299029097499 9.460179884716418
Cd 8.202162804564896 6.971821555829631 3.0906729709496097
Cd 7.560296967804062 9.974646982105062 5.7941289143084225
Cd 10.751630735942557 6.547947168385024 4.624669527160019
Cd 4.106735988274704 4.522228968426236 6.967878559418351
Cd 1.3674579613676756 5.822671318820867 7.593497615832696
Cd 6.843991865236069 3.148861971922066 7.515120988952791
Cd 8.364907562588549 1.9947688669725128 5.072582267317788
Cd 6.289597392040698 9.290320775817724 3.2116404082824657
Cd 2.693009272422969 6.6146848234959 4.994774109142942
Cd 6.86787658305242 5.297468911186896 5.436086290486593
Cd 5.682386191866971 4.848090695105622 9.687723863931238
Cd 6.542923950288451 3.6402701749173816 2.9085227480050313
Cd 6.010870978156183 11.732399462461286 7.600308660334264
Cd 6.553708952262795 11.732399462461288 5.33992933987633
Cd 4.238675674702082 9.992186825650773 5.372508853591952
Cd 6.740775619404719 7.728469535106674 9.192900020740383
Cd 9.827192876041046 4.320130873532896 6.457127862365487
Cd 5.186703812185757 6.5721110477080265 3.3273854607259215
Cd 9.485631544422626 4.131854133985158 3.2086271456509747
Cd 3.59817052666024 4.074772026419718 3.4600392430599856
