22
Energy = -7.64353147 eV
Cd 8.21876644976182 2.912553792615739 5.039753213204258
Cd 9.289440350735815 5.3553841427428654 6.362826806221568
Cd 8.627950000826454 5.733433615951686 3.383361844204265
Cd 10.092243172020924 8.12074971132837 4.692535161713801
Cd 5.884406509895121 4.3272877463252195 3.5461001750664947
Cd 8.248805647352096 8.562643985356557 2.137243683097868
Cd 5.359795623212842 2.118571031603888 5.550554580132874
Cd 7.381433152386537 9.51318652540027 4.999953404994259
Cd 8.828350357461426 5.378290882010777 9.332152567742895
Cd 6.638248020904885 3.9091087894910754 7.761069698058861
Cd 6.590851384898005 6.569586898094215 6.087017909360437
Cd 9.025269743510373 8.1698597804843 7.594251129820071
Cd 6.224014003993176 4.754341676392768 11.021404628649123
Cd 5.6538978685853785 7.320249428037759 3.322476791156429
Cd 7.194354006077388 7.7618008794677475 10.084437458757552
Cd 4.1108680640252375 4.848571933254374 6.070064584567926
Cd 5.885527703102721 9.049205213755416 7.714812242412948
Cd 2.732211713892835 6.953752958555182 4.452400878857456
Cd 4.342132521966546 9.53074753905117 5.05146731705866
Cd 4.770039520703359 6.314689331006838 8.647402248419484
Cd 3.312275278064257 6.035666826115365 11.386465131588025
Cd 2.820076917447935 8.136034431370856 7.268144748056794
