26
Energy = -8.88306884 eV
Cd 6.104745628922645 10.283127707332918 9.81669083221492
Cd 2.1263035102481713 8.230934699107097 7.064086174589358
Cd 9.38000626014003 5.724692889205825 8.98202701456933
Cd 5.895038242202823 8.055292078475079 2.5504248957535443
Cd 4.713765614831943 10.396056060879804 4.068662496014382
Cd 7.431776874580154 2.094720048790707 4.874552457410246
Cd 9.260379662446407 7.205514148772009 5.941526164655652
Cd 6.24180382170518 8.075487993228734 5.757252030096667
Cd 3.7534898208352834 6.9849792835048365 4.477513295463902
Cd 6.740913487719148 5.491909462558104 7.250300611930559
Cd 11.323772968522745 4.888420122239523 6.780769655664137
Cd 6.228473816798592 5.07747376046704 4.203366125404323
Cd 8.863157733920318 3.1025450979618547 7.396386684477048
Cd 4.707418521232566 0.7395233053920321 5.402507344799174
Cd 5.658829313737446 11.437701726695238 6.936341591115568
Cd 9.252613790074788 4.512202671117154 4.372346837969458
Cd 2.1177807877983654 5.376221907299543 6.506522744204797
Cd 8.093526100050612 9.473027714471444 7.5612987190685494
Cd 6.4276676688702485 6.237220826670428 10.283017798943739
Cd 4.697110541619145 8.019030711625195 8.434892164973784
Cd 2.7757700586804246 10.933183041163414 6.238239164538267
Cd 8.537586246865398 8.319173482173982 10.253341254475252
Cd 8.614328369583252 7.049856248779676 2.947755794146084
Cd 4.054102437686438 5.03831257322602 8.820950417492295
Cd 10.72526073489449 1.815715968726909 5.112957209012001
Cd 4.464273790396714 3.6275722744979264 6.156166325380138
