28
Energy = -10.33492864 eV
Cd 6.6713970516961 9.869063651661511 4.419944525554806
Cd 4.127316067296505 8.51743701600597 5.522133968305908
Cd 9.21271414875019 10.904212361004733 2.8196274013646114
Cd 7.178030153797434 4.081799941236023 7.721353607360572
Cd 9.355329655661057 5.467833684972921 3.9633062915932644
Cd 6.499495144562997 7.2016544434271506 11.26065185101047
Cd 4.237724022389706 5.443740133986293 4.233782852152336
Cd 9.441409213562311 7.73352448229003 10.174511743792987
Cd 7.111563275450227 12.028942824235266 9.28903196597529
Cd 2.2910419968474303 6.270466256844077 6.501070673529661
Cd 6.104535061321509 9.032321654251781 8.986141757545186
Cd 5.17120933776181 6.539847481942453 7.7472471633466435
Cd 8.47998039065369 10.459385850260443 6.972507866895396
Cd 11.076656521669191 8.939417682777258 7.649878208781756
Cd 7.575526610736101 10.048803947919183 11.599566163605948
Cd 10.179364490103687 5.268511180554165 8.188959316433312
Cd 6.788844853068869 6.95232916499836 4.801563968341998
Cd 9.58083880318029 8.4694852513219 4.770377378256258
Cd 11.685682389936325 6.6058686574798395 5.9281245676606
Cd 6.808570881098695 3.75410777037932 4.6192900724214
Cd 4.4291711464725125 3.375026326527569 6.4834403945665615
Cd 5.367481164880593 10.96832679624556 6.904343803274145
Cd 5.259277485069284 4.66760967230388 10.20186767362262
Cd 8.058941800850581 7.247303846917463 7.449865703913173
Cd 9.574234959730811 3.2279628438042516 5.897332668293238
Cd 9.853043719707676 10.73329179260592 9.73073054048341
Cd 8.227315498049023 4.867681065682277 10.447971357837297
Cd 2.665396817783714 4.336136880451869 8.727469176169649
