25
Energy = -8.76983508 eV
Cd 6.8049295205099805 4.829447048393239 1.9981595330736521
Cd 5.957912942112173 7.3451057948889025 3.837911511890058
Cd 3.944643146386 5.392288828277555 2.6819722753660282
Cd 6.551014727411772 10.51209872219476 4.82061491723573
Cd 9.090919464295304 5.4302130134488795 3.7943702115188302
Cd 1.9301404859093672 7.285388645719225 3.7557293977304593
Cd 7.572552273920693 2.8369841758615633 4.304178161848613
Cd 5.158137944125824 4.360603203273181 5.3306079627732945
Cd 2.084339562919948 4.292000388601354 4.910271409193627
Cd 3.780833345410715 9.156216135399244 5.10737543981609
Cd 11.224682872146623 6.041391400986131 5.724093905014611
Cd 8.791387432200851 8.30254269599441 4.583187403648536
Cd 1.6091243511895064 6.668604590082215 6.773293502229039
Cd 8.402145102006358 9.403866827136977 7.3853480179125865
Cd 5.481370921910804 9.742887536728075 7.690977010618246
Cd 3.332827764080628 4.151824291616322 7.807097811685978
Cd 7.4052336134496715 6.221251648396806 6.365388158660042
Cd 9.938553071835916 4.665433300817076 8.131691119800518
Cd 7.436176425982496 3.2989860027682236 7.298504941540944
Cd 4.5886627432896 6.91689548864242 7.072114842091916
Cd 10.643569027824194 7.678793008768762 8.236545445083372
Cd 5.157033992664247 1.7562783863100586 8.596693621724647
Cd 7.899034453794771 6.7625722098207115 9.335443750027167
Cd 5.679087713094822 4.667061860272977 9.747844137931104
Cd 4.910435985605952 7.656013679678946 10.085334395662585
