23
Energy = -7.24352696 eV
Cd 3.428126413829015 7.386448452742145 7.843148951493042
Cd 7.207314924122099 4.555140892499492 7.008388037412219
Cd 4.991230680632414 7.803287512615239 2.400278309223231
Cd 5.234644166607561 8.571984769601183 5.555756006755715
Cd 10.742598808448003 6.525084151118851 7.765703435418387
Cd 8.884122161389445 7.215380739839323 10.22071369029454
Cd 6.654583889905407 6.100081104806077 4.222202646720942
Cd 10.214792435615921 3.522938557758252 6.3125278545687085
Cd 9.612756143981455 6.137718076432379 4.821541411727717
Cd 3.436225985632435 5.28126401271401 10.198536924675086
Cd 3.345660403023317 10.604285589658053 3.952687848490881
Cd 8.186498822889956 3.454282531655804 3.713829466914462
Cd 6.1447168534308725 6.341554141493562 9.223411886777152
Cd 7.804304297440107 7.645146213548056 6.820109904522989
Cd 3.543313306190854 5.90964849580345 4.802881752974185
Cd 4.258039520051608 4.434773999727232 7.350261463115841
Cd 5.895762120486469 9.457591480154374 8.431172361807493
Cd 1.5368925688708917 8.689668030695943 5.854748329983117
Cd 9.230299560660038 4.232320267014086 9.205682031485455
Cd 10.343669628525268 9.186500774394533 6.131172423940867
Cd 1.977847069410626 8.120203267134292 2.860683145785581
Cd 5.343434695896199 3.006474882651732 4.869154430447785
Cd 7.688950528268612 1.4609660331198526 6.389439602575261
