23
Energy = -7.73078849 eV
Cd 3.43234877381365 7.8434270001217765 9.005190165469703
Cd 6.43610990878336 7.454107381254211 9.01622327805853
Cd 9.207166586124144 6.7224471915159345 10.326060349722708
Cd 9.297442844894764 11.26199640071386 3.4189054664361436
Cd 1.993587938854592 5.004392776015808 7.767478002458767
Cd 9.254719364950887 3.6864958236704193 9.857041268790315
Cd 4.940506326234881 9.731390090380728 7.208912927668749
Cd 4.601604248776669 5.046013824787526 4.5650098983245195
Cd 6.861059319621047 4.897808338479013 11.132017467997157
Cd 6.2623339616712945 7.484476057881118 5.669171174202983
Cd 8.939629613749945 9.229453157067304 8.558776563024786
Cd 3.1679851970311996 7.263167366828934 6.065453349595266
Cd 6.047103393270347 4.791057641237707 7.1968145485561
Cd 7.626995376487911 10.52723570516016 6.084065072093086
Cd 4.392467249729689 4.99812597541941 9.597395357842732
Cd 7.05484774242723 3.2124667862161704 4.27423175405817
Cd 2.103096236961071 7.465480936496149 3.1487697529345073
Cd 8.585929732305628 3.306857217426888 6.995286572639251
Cd 7.114223251801413 6.046052670886329 3.0606009451298593
Cd 10.787235095998446 9.995233633793765 6.086079359578718
Cd 8.812136830352957 6.386649984551063 7.2843704419478215
Cd 9.513930101719616 5.054251205144426 4.666742701841581
Cd 9.046642922973241 8.070514853485475 4.494505600162075
