23
Energy = -7.52952085 eV
Cd 4.811811659854423 4.956712903734507 10.503816329371618
Cd 7.829212117556883 8.30103085930532 6.919378459638382
Cd 3.2270515919165743 6.028232485275369 7.58910980104674
Cd 5.216371465416626 3.056233467011011 6.99087321279133
Cd 2.8061836246106138 3.2061898612270174 9.018910384293955
Cd 5.477558932423378 9.386878816462833 5.027021854832345
Cd 8.49206437738628 1.7754039721511485 2.9145082028092855
Cd 7.688424903913659 7.425833983344767 0.7718745240728
Cd 5.538770505217029 6.2043726937954435 2.575109443713773
Cd 5.997283714137756 10.487135256140938 7.993434082494697
Cd 7.946647033780187 8.112172336788833 3.7443278364492127
Cd 5.853013054197917 3.2386531069416638 3.7251127948011216
Cd 3.338270040934071 9.074184777747979 7.345938128581395
Cd 8.469743964655237 5.115130715999394 3.0913681480780886
Cd 5.5876655477598085 7.560036137108982 9.032148861254793
Cd 3.4271612956031685 1.477443086041175 3.9067229182591423
Cd 7.254393820310163 5.152257998063777 8.471529378368714
Cd 3.0057494755447407 4.552976141099152 3.0958970165699298
Cd 9.667435889580647 6.202123791243663 5.775297837652915
Cd 3.152432414649862 7.189587201019594 4.761612705628441
Cd 2.400552507734352 3.6132849907205538 5.9256985717104715
Cd 8.011885836079026 3.6315410096903187 5.90809904611521
Cd 5.828027519873435 6.044119129780087 5.720792821491285
