22
Energy = -7.01945424 eV
Cd 9.238363860130182 7.2264860753316675 8.031398253008927
Cd 6.263716143983804 7.610142156606847 8.971688764470018
Cd 4.16548975244826 9.66007624321434 7.503760088719144
Cd 5.840705732155234 9.462525392662851 4.888428937648654
Cd 7.432581330862083 4.777681362200043 8.596342780745822
Cd 9.935338271665342 6.780521766442477 5.144098510827927
Cd 6.419869952683803 6.383728252591418 6.066268140108283
Cd 3.832586867892347 5.936716489239153 7.943421220808031
Cd 3.3892724546185558 7.4376593530619575 5.360992187656177
Cd 7.44669532763677 7.479021210302924 3.2804073372736546
Cd 4.369114997482517 8.128366775029493 2.5152063083133256
Cd 1.9445118313367624 3.753089793145368 7.188817480358118
Cd 7.986878231713067 4.51894388812721 4.172415441946684
Cd 4.905552562932736 2.941630238384164 8.16024112511664
Cd 4.49252495870169 3.8092112878261393 5.2997647448734275
Cd 2.0604430581788047 5.86481441399286 3.2248260645702325
Cd 7.4789069666723496 2.630487601642941 6.486288370938169
Cd 8.468933469731102 1.4639976114285203 3.76057533470186
Cd 5.151950321813741 5.236448697486812 2.7026436733840513
Cd 0.513883658629745 3.7133282828519945 4.6575112730960635
Cd 5.70937957188734 2.198489983723811 2.911424655037047
Cd 2.7324585040923495 2.70875168066708 2.917811794529381
