26
Energy = -8.69322193 eV
Cd 2.616606426769008 5.886728550017826 5.617035037717366
Cd 3.4937606305026003 7.708501171236666 8.16556606227298
Cd 5.7749140334398446 6.726093128836286 6.2291326591165435
Cd 4.356573530381449 4.819253198713539 8.185373609665099
Cd 11.621158389600087 3.328330667938852 8.551430744126177
Cd 10.369839997523744 4.964765720248307 7.949523034581203
Cd 9.254253004024505 9.669081867358774 4.146863648157494
Cd 7.763889230459313 4.578644696475284 5.2668712344983195
Cd 8.820756183316695 7.496064064577822 6.38099546004421
Cd 8.50433274353215 7.230925570193493 9.349119483309513
Cd 2.378720148599145 2.858786834350244 7.042660840790366
Cd 6.195054710170805 9.0814024233708 8.543849613481903
Cd 7.279231324442459 4.673810618482599 8.597108197642223
Cd 4.076289540385126 0.2898959068736142 6.351489424813112
Cd 11.621158389600089 5.682939686418758 5.224093643794071
Cd 5.397074125230531 5.524699785419855 3.4760635721677575
Cd 3.9675625449554537 8.315205658747676 3.9097560230893498
Cd 3.9843839678628434 10.677526684274566 6.817859119299433
Cd 1.7951137001043596 8.825834613293337 5.842571753921416
Cd 6.43900724006343 9.632012939268828 5.454267680692321
Cd 9.181844501031831 6.561098218989251 3.5135272914612687
Cd 6.742706411437467 8.372958620131586 2.6952064448443167
Cd 7.339564710006065 5.76722072183928 1.2034399095146868
Cd 6.198361129100625 2.4945776642098982 6.796732986730705
Cd 4.06803363751223 3.1328019198088617 4.56326991592063
Cd 9.335670166505746 2.3006666105857345 6.923604221527155
