24
Energy = -8.03066396 eV
Cd 9.308968048447305 10.087486882211739 5.816641684990564
Cd 7.155223338559822 9.965495576629678 3.7779886876723534
Cd 4.909092741322103 8.400358740932852 2.535897467071789
Cd 9.61715673673558 7.068645904828334 6.317763600180452
Cd 7.097995598194152 6.621329591813082 4.078964497571095
Cd 7.4463045498331155 8.544529655615902 7.780628330225726
Cd 2.2937392558835636 7.187741900660242 3.524636098744553
Cd 5.112299127762155 8.502546320350781 5.631619240535009
Cd 4.3745955237435075 5.492317970814626 2.0726821777629034
Cd 6.35080615424668 3.7323880620100622 3.4599212786015228
Cd 1.611777700890381 10.019384196160166 6.336711120803924
Cd 9.061268696776107 4.1072260665315685 5.306020312185477
Cd 10.751468987337187 4.769912762392627 7.882596203857791
Cd 3.9397526672136087 4.75413558546741 5.185657412999219
Cd 2.597568701208817 7.138125698261327 6.470851013598937
Cd 4.41531244738323 8.484568517998115 8.666278427405961
Cd 6.63849191754815 5.551977210150668 6.8314945123037845
Cd 8.175336311904534 3.020255779592801 8.265717390879134
Cd 6.452957795318908 6.556992337503324 9.851701547501495
Cd 7.2180811560651 1.6747849694480705 5.65616549328675
Cd 4.191457831388896 1.7611939021945884 4.859603647246426
Cd 8.984530844510727 5.206583206820553 10.278112153836446
Cd 3.9277228356195604 5.327786622445017 8.60111104175865
Cd 5.117153855338007 2.7757454641259898 7.66161101405827
