25
Energy = -8.26513189 eV
Cd 3.113046945173805 5.597649095836195 12.884533543246922
Cd 7.074322174483611 7.680682867962404 1.3376615509296623
Cd 7.285272743268087 5.314259769379124 3.4932736753201183
Cd 5.318088809596038 11.072583918722612 5.103123137435202
Cd 6.620108065788259 7.0528345882093415 9.392126172256763
Cd 8.856086733656234 9.267498486747519 7.069947835543496
Cd 6.910107734658582 11.472337497407807 7.647292872418398
Cd 5.498312718210368 3.0045935861678923 6.329268220577448
Cd 4.247232652909781 5.179165427917309 8.31267177268223
Cd 4.207059407514332 6.74359686696156 1.8015562108236733
Cd 8.405424717094856 4.667628555747514 10.251349451023922
Cd 2.2836910334651885 5.618871078280478 6.131399134821246
Cd 9.413443225433186 6.2981507376201975 7.83220907932496
Cd 9.72336904464003 6.576085342615699 2.207905450788329
Cd 6.641781838412583 5.906450068506015 6.40485380576356
Cd 7.185702228167149 8.386089242510106 4.5382185950540475
Cd 8.47985748125547 3.532113479938199 7.277949822343627
Cd 4.021048116452828 7.758914408241461 4.947916919593185
Cd 5.584412159999076 8.756109719999918 7.329897389166965
Cd 4.376795177342079 4.775494162835381 4.086878918011834
Cd 7.522090324661177 0.5770418888907403 7.253264692894531
Cd 5.055340065684037 9.581403933047714 2.5202707894359384
Cd 6.222525902334892 2.576598688078232 9.257863326993293
Cd 10.087404740379107 7.398494988496867 5.091106842621073
Cd 5.441265715040521 4.779141355501331 11.071250546551374
