26
Energy = -8.51192366 eV
Cd 6.158836033182012 4.5033526388545235 9.512671446628369
Cd 3.7851344739462256 10.627994450864248 4.326447678200833
Cd 11.667624632223838 4.710432539555919 0.9892148394531459
Cd 4.528627035357307 3.047011773886351 6.3766046258697715
Cd 8.195474819695121 11.477578982378374 8.121383503716038
Cd 9.12381288460554 9.013435296767993 9.650066148985859
Cd 4.647618696096711 5.667214299481662 2.7142769042552777
Cd 7.01539410747203 7.240966475560246 3.5778720830104853
Cd 3.779204748903475 7.720005113329474 7.854238469539586
Cd 3.356710419306164 8.655962630090212 10.817464536314546
Cd 7.428199200052861 2.4169414201051773 6.658192323558444
Cd 7.054831234177417 8.751304129201973 6.465841231984326
Cd 9.505567994699618 5.3738448080198955 3.0876168605532097
Cd 4.2407918881177045 7.768589744762184 4.861923293152901
Cd 8.503933142113066 6.43893651792566 8.239627624257949
Cd 5.579899508017153 1.6582540595000848 8.94039645426784
Cd 2.8897209222967195 3.5274105039014634 3.8741122670780777
Cd 6.192859633965043 7.420984398908495 10.059809272270186
Cd 2.681708999206202 5.443246453884958 6.269783333724595
Cd 9.540293411457448 7.442367345895855 5.312291774735423
Cd 5.983631004643094 5.795179436858506 6.671427634207258
Cd 9.139031951331843 3.515462390871856 8.98035451661062
Cd 5.783195122459737 11.74962585513936 6.247317852195453
Cd 5.445966608689627 10.082337504925704 8.766986844617572
Cd 9.57332755282711 4.435557527042756 6.0044375372554395
Cd 6.791355213569655 4.108754940700277 4.212392181970172
