29
Energy = -10.36977855 eV
Cd 7.440747866559323 4.992368576874728 8.665372676324305
Cd 6.384510334964791 7.797067756789201 7.636908081538145
Cd 7.307165479982134 10.699887395087956 7.25674844121234
Cd 9.687105231260494 8.049329836252078 3.6516532317154775
Cd 4.556002007739219 4.317758166619953 7.851801246020144
Cd 1.4572586015490734 4.362294418302658 6.693870241207371
Cd 0.70885453025674 6.891511517845179 8.304263065505706
Cd 7.672303948929949 10.32834393495865 4.0745648486670545
Cd 9.05015566738301 5.158098266502289 3.2635020258188168
Cd 4.105388452927397 6.35386977296988 5.50163058960647
Cd 6.8162885565030225 4.322468798224922 5.786768509135693
Cd 10.010434348710476 3.946060803852572 5.877982223223169
Cd 5.090587067212908 9.639563166900466 5.479178358640055
Cd 7.421989150072347 5.237361760626626 0.7158454920765539
Cd 2.943659594901567 8.570560811546521 7.247058830880537
Cd 2.2745744430825257 4.7222716986896645 9.737138730271132
Cd 9.869120912388079 6.810739569170318 10.827521998686056
Cd 5.525111349645795 1.8524137702381582 3.393937052637677
Cd 9.262178424257378 8.956128136612048 8.885734605405318
Cd 3.6036799372195096 3.3825143936866153 4.951377220309779
Cd 9.137015656595338 6.851906061003012 6.464099063694821
Cd 8.33777588043102 2.219231370159186 4.1802655377972995
Cd 6.954483106327155 7.350488216029576 10.697866148257509
Cd 10.559710142966514 5.142155492045632 8.512325569300938
Cd 1.1032509059834068 7.080046889499142 5.232779294646681
Cd 4.132909406637816 7.050910991813097 9.67848387200633
Cd 6.79810343497926 7.261013459026853 4.412513958210405
Cd 5.297247411289212 4.94367191956009 2.855816753640911
Cd 9.99544635654814 9.804708874582412 6.105632600186961
