28
Energy = -10.00181284 eV
Cd 5.073022591006521 3.2895948938268043 6.64497357394593
Cd 3.8832728971319055 6.03465135544413 8.201827169870256
Cd 9.945034155994515 6.672140101790859 7.5776342217437715
Cd 7.2024561582838285 7.535620335595682 3.8409886622017346
Cd 7.683728856553377 4.442903420234977 5.551877058787964
Cd 7.832991519182688 9.628718816573631 9.092000796140963
Cd 8.23079094413509 9.284545148458768 6.00361705379128
Cd 3.750590864537696 10.805269162776794 6.442032629451672
Cd 5.762045694775101 10.36043700377594 4.26732938526277
Cd 9.535482201107182 11.670843190873601 7.5298685251354405
Cd 4.493271847895443 7.794430326404363 5.6848025675717935
Cd 8.364447664097085 6.575582630407684 10.108105076887558
Cd 7.746915866831435 2.0998828420054814 7.667959646373682
Cd 9.392910621188259 3.750147892111391 9.671328394705936
Cd 6.222761307060618 8.26811524143293 11.223780273978365
Cd 4.404221614519037 5.8765996216904 11.200959065071547
Cd 4.889573835719449 8.96544903034834 8.583122092953843
Cd 5.344511149349755 5.198483735171807 3.8612103093001693
Cd 10.151010741145463 8.751470719509236 3.715124400934805
Cd 6.492364828329272 11.744568442278872 7.140147183734593
Cd 11.494890720258573 9.243337260108806 7.676189558020938
Cd 6.909349439518961 6.8136110454483445 7.297146912108257
Cd 6.358615258915362 4.460732195048601 9.187965758235311
Cd 1.9508388663471488 2.6860032067014594 7.391673640979949
Cd 10.334983624934125 3.6117409514987036 6.811309029271894
Cd 10.068675561767161 5.9590573384827845 4.613233319948277
Cd 11.294871347911984 11.090479010044252 5.188658284822637
Cd 2.8717267170096736 5.070941977463941 5.510492304276404
