27
Energy = -9.23328631 eV
Cd 6.056996667369237 7.641682839294228 8.342326903307216
Cd 3.155908972294455 8.741994879459055 3.1872186258712314
Cd 5.215905642696165 4.157786271957812 6.049855439763713
Cd 9.217791801588866 6.828079817577503 7.196362232998526
Cd 5.935890537832436 4.434960982162861 9.279448082712701
Cd 4.563428358083517 9.000022338764625 6.041123210204344
Cd 3.9364197314999823 6.60367971991986 10.275774129808239
Cd 8.153297581101612 2.9843589230832235 7.796684554984458
Cd 8.194933289432097 9.896394723515591 8.176185624069738
Cd 6.59694390447485 6.776643292011128 5.4986731290326905
Cd 9.62215931462572 9.645608061438498 5.473020064169453
Cd 6.950946767926618 10.884484030004 5.688656346299292
Cd 6.270877816685555 0.4338920323936699 7.326440434521203
Cd 9.190401033572073 4.893888166584875 9.742239637353972
Cd 6.085603920959342 9.464595192462838 3.285226525741441
Cd 6.700972673702151 6.443779976528136 11.523327206398193
Cd 2.626184278634468 6.648535556991287 5.522858804380699
Cd 6.888392467206801 6.8932252182025895 2.107814960614693
Cd 7.299244254056655 2.068591594275614 5.0514581669883905
Cd 4.0187548586271165 2.1062179551173656 8.257841651112093
Cd 2.981216058747792 4.975546145957909 7.91768523761911
Cd 8.93068870787025 7.82635497069249 10.104910934987537
Cd 9.314494245269485 4.361015816560511 5.191339296337653
Cd 4.025991141638669 5.813304144050467 3.105751454424778
Cd 9.26084987077776 7.114668085309095 4.051110765935807
Cd 6.489195598892418 4.17557117799891 3.1967441277130884
Cd 7.011056059345117 13.879663642597997 5.304468007561704
