26
Energy = -8.89439407 eV
Cd 6.310021614830845 3.528453742900611 10.539280025955703
Cd 8.613163032402857 2.363854320609325 8.976395263782583
Cd 5.563253162416716 2.401829864041919 7.573684995843379
Cd 8.546866078334224 5.445839274922898 9.683184825393964
Cd 6.655474098375024 5.276061827452015 7.2719383576058085
Cd 3.958185699980327 4.540854108845259 8.997379633849617
Cd 8.173333743786417 1.9452962885693768 6.0579373443899796
Cd 7.280160244108102 8.233063361204254 8.888740405875936
Cd 9.911589646455946 4.305185877675918 6.99165880876566
Cd 4.834372226474857 7.204021552310468 10.128178767847348
Cd 6.016567197502897 3.4225175637253447 4.640945110049155
Cd 3.359832766975796 4.575449154641697 5.9560228183350254
Cd 3.2220929602370596 7.1970398355164855 7.47806494140303
Cd 1.0415581343715286 5.725220444825694 3.622759641315989
Cd 8.225966694685189 5.688752812699841 4.688741297242547
Cd 3.5319180015710288 3.9820865227366884 3.0257650146395605
Cd 9.557516733638163 7.30583177300146 7.101364565593487
Cd 5.843662931313227 7.9865014641169 6.145321357420107
Cd 5.41405329967649 6.303444709768196 3.709141572246745
Cd 10.672784455998151 7.380247329429021 4.282878839935654
Cd 2.4296090455262713 8.438920107032143 4.85182781026059
Cd 8.102707022633187 9.971960372384608 6.5867740129465275
Cd 7.922079784708259 8.626479678280187 3.3030121637208962
Cd 3.0014563821050664 7.446071684270458 2.034682171883645
Cd 4.93989800193768 9.437816290094199 3.338107241366475
Cd 6.984401519212129 11.391626829849553 4.226165716499838
