22
Energy = -7.45270208 eV
Cd 10.344085713884784 7.736874913072918 8.012732171690983
Cd 9.681459891654203 10.58799264290984 8.30478536164678
Cd 8.872954447649807 7.124274685017978 5.436110926886041
Cd 7.422504021684578 9.998147498662014 6.383061868868267
Cd 7.5992490602014096 5.554379115165682 3.142994009959821
Cd 8.978266324417966 5.047669954337358 7.9399805045458
Cd 7.022290196824379 10.130711240297636 9.647712174144441
Cd 6.567844489766081 8.498503073645463 4.006835034149684
Cd 7.1169203875426215 7.190989175130988 8.652006056757543
Cd 9.177224276777219 3.8178615074774593 4.975939474937011
Cd 7.813828987882747 2.3551118412734864 7.232680390908317
Cd 4.713025082589185 8.462404493831526 10.467240590726249
Cd 6.112067193772319 5.824026753669944 5.897621620830434
Cd 5.82575185043757 4.237092331925555 8.533199342634834
Cd 5.546453295704296 3.520320183686497 2.3216909780519237
Cd 3.781810147031942 5.649123672969415 10.133998555568299
Cd 4.926420771083488 6.80871458325609 2.2231403919204995
Cd 4.796152008364435 8.784071889360515 7.316077640763793
Cd 5.522532662881383 2.6349338318800375 5.311893854728644
Cd 3.4565795608344234 7.745770838538519 4.7379724141859025
Cd 3.5374800578724663 4.624582893886654 4.300793421212885
Cd 3.326189710944687 5.8963566695778615 7.157273093428329
