24
Energy = -8.66936326 eV
Cd 9.597139384396792 4.270264488668215 6.771911324414536
Cd 8.08971544421931 9.35983400744829 5.409016042124935
Cd 5.905492399800656 9.292745435508255 7.4091865833257735
Cd 7.0407801669553125 2.4753289605480235 5.577657662377655
Cd 6.750285250427173 2.868311407101069 2.527079264110554
Cd 3.0967859879789064 5.1819929875222694 8.083273917935529
Cd 5.2448788410308556 10.184595329714268 4.273294723040261
Cd 5.635130897860607 3.435354267050479 8.511438654317605
Cd 8.39787056659438 4.91418392519151 9.52679713612043
Cd 2.5645968058390722 10.087436404079043 5.661928814046266
Cd 6.735601952951317 5.453648153603396 5.905974242285854
Cd 8.63684001254641 7.39974432481191 7.71279050801093
Cd 2.0437466250744305 5.206837783891867 5.2130691073622355
Cd 3.2899305871172118 10.118469130353997 8.685046417142996
Cd 4.0336259253916245 3.015888159784531 5.980348032686313
Cd 6.468933598500872 7.490449197842901 3.5411942991046477
Cd 9.405180382220593 3.679705513636535 3.865584277372947
Cd 9.267727907242676 6.672930846712837 4.716391719264602
Cd 4.260316666330636 7.205737819203297 5.6243069611147245
Cd 5.7646801694474 6.503611822303197 8.489935313520519
Cd 1.6798735143518688 7.790024655013824 7.51371709267895
Cd 8.011440663801876 5.568360116505335 1.9485343251203668
Cd 8.278748802245024 1.9933295243963 8.408995226302817
Cd 4.804467783859357 4.835006075292727 3.646318692401902
