22
Energy = -7.43273072 eV
Cd 5.094795674088402 10.694089944806107 6.106981562564919
Cd 3.8594780051612623 9.97955113225455 3.427678076407049
Cd 7.603661966500679 9.37375963454135 5.046662870801611
Cd 9.629593670880954 8.67570976540372 7.256592717929415
Cd 8.362015553980756 6.712160799052384 3.844014470541202
Cd 6.641010255860344 8.898005676372605 8.039780031481499
Cd 5.527933451258306 7.475170023585682 3.544909390594078
Cd 3.6196447045847284 7.983582296287957 6.162063686278793
Cd 9.98058840696336 5.767780472706549 6.4467821853401395
Cd 8.464862622907916 6.501892712594378 9.059530722241075
Cd 6.428486706739487 6.4120806644893245 6.323238392299703
Cd 11.390607614855975 6.4672056236326005 3.6675044571767925
Cd 4.166579423562049 7.685891981146788 9.170930002324237
Cd 8.161771641621733 3.8910387126396104 4.900206431987644
Cd 4.055822958076204 4.697561783300693 7.514191607364967
Cd 3.6130626508692116 5.368128170784812 4.593633151409399
Cd 5.81815696360024 5.319905062652056 10.204146578451436
Cd 7.109512266020299 3.81751808940554 7.7742827160930625
Cd 8.515379218980836 3.6869116115432767 10.556152177133848
Cd 5.951636535518282 4.4114239955381755 2.822818066617149
Cd 5.300283373243473 2.900840502842808 5.36997783613964
Cd 2.6452713970559323 5.219946406749614 10.108077931152424
