22
Energy = -7.36803942 eV
Cd 4.239887912243225 7.952234601477072 13.518840067925666
Cd 5.312863910346682 7.556195496967916 10.740409203076652
Cd 7.020231470142264 5.536200741430827 9.368909294726636
Cd 7.1771654281926685 8.704318631611722 8.804899973734248
Cd 9.54303028013251 6.741601109818514 8.038190168644283
Cd 4.3369245815799164 7.088043810987019 8.009165001972383
Cd 5.578438994588448 2.0520264000422404 9.653517350229086
Cd 8.537930735012766 9.11387761920216 6.2528314020300115
Cd 8.280470293576329 4.144159853611821 6.84460742344752
Cd 5.427963475345755 9.553597213338211 6.35512423670078
Cd 6.750327825023032 6.644142248717584 5.982925348868693
Cd 4.406631944762175 9.593811766249086 3.5175207165718194
Cd 7.386909775343357 10.109331262018737 3.6374711233203323
Cd 3.9064937742704338 6.956183913781385 5.000193937193998
Cd 10.760153854642931 5.534348791974511 5.462962340314805
Cd 3.0337501438854786 3.965990184804584 5.284608388525687
Cd 5.222336484612866 4.215070495513823 7.275772780962053
Cd 9.38470882486194 7.658689425619091 3.7652077653638893
Cd 8.18520038345147 4.8001859694164075 3.800321908368346
Cd 6.369089949461954 7.300874470096225 2.8743104294823993
Cd 6.426305984853951 2.529141133010314 4.964857336921558
Cd 5.099317086610955 4.63610797325237 3.2334869145597835
