29
Energy = -9.99449633 eV
Cd 10.765768398698548 6.494135521959955 4.440501799175768
Cd 5.349623384020337 12.715058794375475 10.117959858397956
Cd 9.368518671371353 8.763670519161295 3.0300222667762506
Cd 6.5297035378754575 7.193268900383294 7.828457479129793
Cd 6.842352296449767 10.152951746168146 8.916346292160584
Cd 5.378120160809474 9.460883431961282 6.184654335620771
Cd 6.285749468367278 4.2851131977336845 1.4457532160669788
Cd 3.1797661681759113 6.9135379877913 10.56668472642838
Cd 5.9653725832831705 3.85393319202758 5.802791668069367
Cd 8.443356045320984 4.703597639244531 3.661946758895222
Cd 4.044976374259702 3.4014778372315293 3.4190723583306992
Cd 7.20089966542285 5.076233468472177 9.850466201051903
Cd 4.258699559582816 5.033269687043502 8.37620922423817
Cd 8.428842389895218 8.976432970629933 5.893080795322669
Cd 3.896470169986104 9.805963282784235 9.909270576025277
Cd 9.10603727257281 7.4083780049472185 9.941379335209719
Cd 10.700051948348378 7.369921094159035 7.370344455876698
Cd 7.182459951465916 7.132713665191211 1.8627419328607824
Cd 3.190431856365798 7.8485493348349555 7.557137771995578
Cd 6.390666156263044 6.804290843727164 4.778437946080626
Cd 8.619811460938138 5.175356287265833 6.692294375575945
Cd 6.096483649949771 7.778925508460382 10.974400646508244
Cd 6.597510585356979 2.540744892595029 8.41075210884988
Cd 12.910595437608023 9.42453093318182 8.182776195565989
Cd 3.5165782797287513 5.67552734618285 5.459850993010902
Cd 6.840613471181212 2.0817750937797306 3.510635077750944
Cd 4.263694237012021 6.3955257937637935 2.5955162917780883
Cd 9.781458508401297 10.038496456107966 8.5339922628434
Cd 3.621710797408415 2.25205905495375 9.442845536521896
