21
Energy = -7.32903308 eV
Cd 7.702887919232453 3.8428512310849654 8.80070852820389
Cd 7.298645999000825 6.321447778734417 10.461471460802004
Cd 4.871965793313002 4.622359573801784 9.566514999282086
Cd 8.39090765543118 6.8137350282774 7.596256098051265
Cd 8.18637247868293 4.0592174875726625 5.918041490394968
Cd 6.507489071134398 8.893373215335918 6.05425095807875
Cd 9.5328390851888 8.855934334479606 5.5713403128139625
Cd 5.871540091639915 5.922043733265171 6.0400991237028325
Cd 5.221248965246789 2.9218044920896133 6.9881462101363345
Cd 5.324671830234678 7.6075467036701685 8.569592298943473
Cd 9.606887854512765 6.095592806797521 4.339458347890545
Cd 2.6705868527799765 8.85865056467588 7.737049290615228
Cd 3.160542066630045 5.6672095920638235 7.363911408623219
Cd 3.80699189582445 9.881275767821618 5.204663063655624
Cd 4.854861080136692 7.420316277217639 3.676061388040149
Cd 8.591452176905115 1.8917271460663947 3.745838613192489
Cd 6.854432014983456 4.9494893209625745 2.9973874842367216
Cd 5.4381026789754525 2.376659288631909 4.017516324050634
Cd 7.7100828933964864 8.122508717401024 3.1635083828038058
Cd 2.073766679440331 7.218084211968809 4.996800616912647
Cd 3.452258636017996 4.601719022602531 4.271563703259706
