23
Energy = -7.27737286 eV
Cd 7.279523503621976 4.002143676266885 3.878916240764751
Cd 7.874301600689291 4.781289518238268 9.15320384739196
Cd 3.792190522961763 1.3116393274393072 7.099350852121413
Cd 5.922255688717489 10.857748494994343 4.754009350702865
Cd 5.575397060919616 3.990468391794705 6.641170184895358
Cd 2.5451873977235002 7.167694537290739 5.754436872143064
Cd 3.210157679639228 7.245250233518322 8.701482760628656
Cd 3.0464909898141768 4.140442785533082 4.962524337221804
Cd 2.5789750120424135 4.276089822379963 7.937478944430064
Cd 2.779139066501366 11.373957005158221 4.787688079528063
Cd 4.259266864869902 9.57121388113445 7.008492733396729
Cd 8.829796770050857 6.495775084864135 4.4373159067378865
Cd 6.169773178176036 6.9621310644386325 7.516249020010846
Cd 5.416106225716669 6.415072363158668 4.490655422205834
Cd 9.412799685653102 6.829502089740041 7.435928052687396
Cd 7.871439892234972 8.924209018518543 5.891470935143359
Cd 2.5914765274222855 6.409950949973872 2.7502953579703444
Cd 8.746608967211536 3.6990861747539463 6.4627581225558615
Cd 4.9992309879191295 5.027555666134995 9.745618017979599
Cd 10.900607416872969 4.4320125048204355 8.585509746154472
Cd 4.103492686718621 8.996780258914844 3.194492711197234
Cd 12.459362883045626 3.82945454647042 6.088836216268003
Cd 10.537608250233328 4.054201818771928 3.7869384726708586
