20
Energy = -6.55410556 eV
Cd 11.005968086187963 5.963280597916295 6.60475317573768
Cd 9.412946365083688 4.9987033518754 4.251497971061546
Cd 8.25132809498225 7.390783903470452 8.730481277454443
Cd 9.542705366295968 8.499902879754671 6.10464806211753
Cd 8.52272272330016 4.168065030828335 7.263130138273165
Cd 7.226818865623949 5.015472645970186 2.1749665382814998
Cd 7.794362235454186 10.248398065236783 8.111468787599263
Cd 7.697992721324058 7.704785532747127 3.2775671124002512
Cd 6.508494790273582 5.189716200034042 9.456796859997771
Cd 6.532293907816108 3.742676775620476 4.900911022656117
Cd 5.471534440485131 2.914648192670487 7.577811019968523
Cd 6.897544166526124 9.781999079229044 5.213918745428265
Cd 4.325609348584545 5.2853105838842245 3.0299823966387747
Cd 6.902467463127903 6.540465237469379 6.088434835143219
Cd 4.7837613273269595 10.322212498085417 7.381286078737873
Cd 3.8412479691667416 5.164969380998609 5.989080157561252
Cd 4.480689339387581 7.902544177653888 4.8554534013135395
Cd 4.855852977937126 7.50431330107107 8.157065285942535
Cd 3.5278372530609774 4.872526315604295 8.937110059519904
Cd 1.574540933001061 5.945944624824923 11.050355449111944
