25
Energy = -8.4581264 eV
Cd 5.340154580649732 4.3440362562227905 7.128779148739733
Cd 9.672826451876603 7.216597072182927 8.571203749352023
Cd 5.098207142818277 2.7519896276357017 4.405708873580246
Cd 7.089240681094461 5.754722927580474 9.6168618094931
Cd 11.008884503868238 3.9577567714754833 6.131609642568352
Cd 6.864874514669567 6.953454323374643 6.814996253351112
Cd 9.17726374749971 4.0016116089060825 8.490573001227927
Cd 3.1281655476603776 6.331617111731051 7.754942643410203
Cd 4.347102705364241 4.6068155605333745 9.998457158480182
Cd 9.516481447444782 10.29474476480524 8.877001024638474
Cd 4.7437280365591 9.093158673969475 7.218770089710312
Cd 5.185069508380406 8.06941649567439 2.4876415694869856
Cd 3.229459875620639 6.762199104067261 0.6099226214636561
Cd 3.572589745938078 4.5964085118067635 2.682298016224457
Cd 9.886262885548621 0.9324867971972434 6.083837869637419
Cd 9.249489176031185 6.253745560741054 5.17496960599269
Cd 4.104041171026178 6.724319160624507 5.002982321490726
Cd 6.795073223273213 9.266524233884143 4.5904063778280895
Cd 6.706251602763897 5.598396990896484 3.6178216263415885
Cd 9.419368266615267 9.058470508551338 6.050902439149754
Cd 4.4229460775060545 7.628376383569376 10.305137525465694
Cd 6.975284088547308 8.841474032309222 9.41654819910176
Cd 7.8708547112279295 3.4088345505022177 5.72121996082569
Cd 7.137028041642386 11.010672231045708 7.06285886496161
Cd 1.9584447060685877 9.041263180407553 8.683642047172562
