27
Energy = -8.95768294 eV
Cd 10.967724714488483 6.378983004849247 7.647793136134819
Cd 9.440051296423308 9.783875911351114 1.286443959023408
Cd 6.050911168960063 5.395701040120044 6.398895404511888
Cd 8.566184774327416 4.311231079569893 8.029150001478563
Cd 4.93186552582571 9.743536328504097 7.133705626618061
Cd 7.352872536804895 9.89221162730716 3.596773761081779
Cd 7.666737135083675 2.951172737804999 12.538484732286781
Cd 3.695084374817945 6.190843816976344 4.222936383598356
Cd 3.0207216301637994 7.454215936979243 6.938760960872978
Cd 3.913512378220368 12.241492595856952 8.398088253714162
Cd 5.480590716516408 7.3243152055917475 8.861626666465366
Cd 6.7787131970561 5.227245403753816 10.612885127824502
Cd 4.590204818789817 9.086218872243656 4.243429680272428
Cd 2.6393470152185143 3.2512556277629265 4.444490305806477
Cd 5.452693644093794 3.805726660775444 3.218675360826594
Cd 5.430208248564655 3.217972403203363 8.700197826313131
Cd 10.066238957617767 9.299696479907928 7.485960948208618
Cd 5.196634535200713 2.3449966868562004 5.840153813633564
Cd 7.383648284905936 8.289909297792434 6.441916178641657
Cd 9.526133207867574 7.222665010630273 2.9295667142979247
Cd 10.250677301824279 9.75712340562135 4.522308087343762
Cd 8.990067745594658 5.573015520826031 5.370445948550114
Cd 7.92149477663496 1.8005662677381544 9.64578701580773
Cd 3.1054265471377933 4.418931623992161 7.431916434981614
Cd 6.599250959747451 6.693159946962622 3.6535466788043447
Cd 0.9220749533016654 5.512543625768155 5.614584337761555
Cd 8.552409804991429 7.322874131433288 9.282956905319166
