26
Energy = -8.90917321 eV
Cd 10.470018092923462 7.790638598083724 6.878070327136084
Cd 5.26075472057196 4.529616960660495 6.515239975226685
Cd 4.867693846133718 2.548357397247971 4.195014896893381
Cd 9.0077730550517 2.8906761339216094 8.456946218330367
Cd 5.762313003358465 6.706229216420264 4.1516403749907616
Cd 8.453219462139794 5.852540288266748 10.407662103897511
Cd 7.498114223547429 4.186561127806194 4.243831146121615
Cd 9.693047760890053 4.792170868362647 6.157877398714627
Cd 4.994003271129456 7.71555312821245 6.913301390922857
Cd 3.9294833298981735 8.584493294441618 9.62877676967236
Cd 3.64056279338212 5.621746829771045 8.831564289860946
Cd 10.166984501937064 7.678857960018102 1.67382670328874
Cd 4.370269782716049 10.65197176917662 4.472363626646501
Cd 7.52173067119121 6.3535207902217286 7.49769531093568
Cd 9.55016651069267 10.629847972699537 8.672931016642261
Cd 8.826511338068842 7.12772188970493 4.401859731812514
Cd 6.271743012250676 3.898916091319969 9.248658619293094
Cd 3.0601869928053356 5.0405774197445 4.001089765816324
Cd 11.023311642691738 5.259741479157108 8.86459105587968
Cd 5.541856389164446 6.414998407991262 11.004573789936131
Cd 2.845093088540785 10.009394953196475 7.014931449954966
Cd 2.8220524717665914 7.993085523913259 4.5478395975260675
Cd 10.456479881823874 8.048297938351514 9.913802685966846
Cd 7.6453896448914875 9.426210393798025 6.681612152685207
Cd 7.06374604377234 8.57163938611784 9.535128037442078
Cd 6.9951627255779645 9.414302438311747 3.8268398213245987
