20
Energy = -6.16349041 eV
Cd 5.562983843677831 3.8035068394369356 10.450711339698412
Cd 7.791227764413835 5.41198752552008 0.8800940173272258
Cd 4.854234409446995 5.698587431116947 1.7219904104241128
Cd 6.332909997971708 2.8466757143252064 2.124461703254906
Cd 9.375917133734365 4.006100280077718 3.3320582036177746
Cd 8.860389321490771 6.970253175485794 3.292262457780767
Cd 2.8699458946169414 6.823291652231711 3.9224877929539126
Cd 5.919787693491635 7.571794593236598 3.876681501391832
Cd 7.32181361347805 2.6229383415433922 5.017857413022062
Cd 4.839398255634806 4.401620288172627 4.533001519196032
Cd 3.6853769019972296 8.16291867987653 6.602050630463654
Cd 7.517560100998131 5.654784786046825 5.8275702800017815
Cd 2.6806221910009604 5.174811174427824 6.596476813052194
Cd 6.887557698431283 8.523973279723634 6.588870163732857
Cd 5.507139631062774 3.624898781619 7.47002816299751
Cd 5.524025544843968 6.523040112065879 8.530040976824273
Cd 3.388756355539469 4.3693375298920145 9.8913342056998
Cd 1.776559273431829 7.059342794837109 9.101122777321073
Cd 0.5536096711020102 4.147564994649676 8.604813273295013
Cd 6.402213076903129 4.254600398980847 10.450711339698408
