21
Energy = -7.28342469 eV
Cd 6.1556131586122715 8.564505669093231 11.864811659927394
Cd 10.014133651518293 6.59616873232822 6.4950032998457035
Cd 7.680187526785082 5.277795656289708 7.864774593516008
Cd 5.610810907227392 4.502008571439901 9.98050485178338
Cd 5.594602975957467 7.37113700546599 9.086269849603081
Cd 5.145855103409793 3.312158462024559 7.229475625477283
Cd 7.594194995054045 3.3968694068794636 5.446646021863182
Cd 9.612801432416937 4.9539591868223924 3.986500495863478
Cd 7.144590540066135 8.152038007661705 6.620881562183668
Cd 3.2315703545318257 5.506850831546185 8.431027978077072
Cd 4.271025881196993 1.7040825743990182 4.891749445215366
Cd 6.445436324935493 2.4107944658258247 2.905378756743325
Cd 5.772877199359216 5.8126335248041805 5.5012683255824095
Cd 2.9819747129678302 4.908705437641482 5.501816797815357
Cd 3.7750266959960954 7.94483766611082 6.642360879757011
Cd 8.724691892286945 7.819357297045104 3.9500406371083514
Cd 6.738006647557881 5.5471800669110305 2.731648482590504
Cd 3.878996291343434 3.905971813336013 2.7539521474295614
Cd 3.554051177255703 6.851222388080419 2.972261781905544
Cd 5.918685981452241 8.771532895120233 3.7496858252618295
Cd 3.053521271682115 9.495514208782671 4.275267509501315
