26
Energy = -9.58251237 eV
Cd 2.8191587356412127 5.544102037946963 8.140129028346866
Cd 7.858501055681486 9.858650465343969 6.165910898523311
Cd 4.9505635605725224 6.126920295880952 2.4149750938726497
Cd 1.9506151001411252 8.65178743505198 6.026168515876659
Cd 2.525000573929271 7.829143181735394 3.0225660013616795
Cd 8.458278870070702 6.299200432571643 9.614223571614247
Cd 6.2627654277051485 3.504137176480322 3.4600235478700743
Cd 6.9371279415144755 8.947000267956431 8.863115819976464
Cd 9.622075634679613 2.268309004202275 7.220282298828907
Cd 3.890758373627895 2.449162333664955 1.9845636954413548
Cd 9.889772776496722 8.293630479340438 7.815742637055407
Cd 7.751804945912528 3.3795612183541635 9.246037400546358
Cd 5.447703746785736 6.22888809100791 9.569732512773177
Cd 1.4995168008974722 5.740700676434315 5.4650563770191996
Cd 4.612090809591822 7.961747989722927 7.190054090695048
Cd 4.523062553797453 5.292036583535503 5.39693593295735
Cd 7.0463627333226455 5.992034386815295 6.842270225217557
Cd 6.258029085445604 7.853562027377707 4.499982275221278
Cd 4.122919430687748 10.010310339902475 4.468955242601215
Cd 9.207404718152636 7.1604342422485905 5.09085814731701
Cd 10.393439509392389 5.254924702393642 7.48670922083201
Cd 7.91339760153878 5.905373733041178 2.70697150588176
Cd 2.1617612530730055 4.763905053933655 2.7699459438445726
Cd 4.668635761682948 3.354942740205936 8.824033158601171
Cd 6.2622823308591675 3.034626250043894 6.396461013638745
Cd 8.874185493780713 4.065024132379081 4.966110969890923
