20
Energy = -6.88329355 eV
Cd 10.859336712682296 6.557857162694391 6.8523869776721815
Cd 9.768288831374388 4.084726053646614 5.118891620917419
Cd 9.131940303934432 9.196068536778883 6.385217180556777
Cd 9.35181472365459 4.296470778310982 8.104049231628002
Cd 9.206460600988342 6.966510336535019 4.33227418974003
Cd 7.076623601229047 11.137515712426374 7.336777128082745
Cd 6.750723857137484 4.613953230678377 9.445253135208647
Cd 7.2055226923049185 4.963613937528879 3.371477802736264
Cd 6.797992756193343 4.607444544105641 6.3186149668568445
Cd 7.867295745685701 7.0782312262022735 8.13590716407361
Cd 6.519868362883566 7.561243458074537 5.350707721732149
Cd 4.1802146201375905 3.45139728519057 10.35266428720476
Cd 5.598900241572129 9.05447334454854 8.898382691569495
Cd 4.088773237332998 8.044218092600367 3.6349308797008275
Cd 4.83553880398139 10.096582334530813 5.691630394334839
Cd 4.392399091642436 6.520625793491144 9.767514869361174
Cd 3.796978761878412 4.76465131450352 4.648248719011874
Cd 4.046314362045631 4.1271743931732585 7.4736109938041695
Cd 3.8174453269327704 7.244126974498315 6.7961519648955955
Cd 4.708852061511671 5.634400185584486 1.9865927760161948
