28
Energy = -8.92370873 eV
Cd 4.306073040972742 7.498366088104907 6.236612639477314
Cd 5.353484423608423 6.518845520115183 3.27355444314184
Cd 6.797521829816153 8.844204825879524 5.235150824929224
Cd 1.5022083388521996 7.41050476641654 7.299233642470759
Cd 2.157491482693646 3.0522750840748225 1.1648859817390227
Cd 8.689556554837694 3.459042360094468 5.401715066447844
Cd 9.570040410691668 7.8002189003431175 6.422483939815509
Cd 3.6333681813084673 8.88202933425275 2.223520591677276
Cd 7.122174451764001 3.8536086337644475 2.7346439467888337
Cd 2.5295485136989075 4.752307074199288 5.8021667569933335
Cd 1.3827431782332047 2.087809618946322 4.207569288773984
Cd 2.148239578735796 10.11020500401173 5.76960113573149
Cd 6.710249173710955 1.5500198499298488 7.352866023818272
Cd 4.1414471456866 3.63125626275051 3.4165213313199816
Cd 4.331327194568434 0.07251834898017663 8.530752116103336
Cd 3.833601643903179 2.034009953617665 6.171164460452728
Cd 9.598808533873768 6.412429060689752 9.21725925419828
Cd 6.775119964608538 7.086681665973801 7.927669664816824
Cd 1.7419249033331772 7.343908767457759 4.213254042696159
Cd 4.728744851162661 10.849194179435866 4.374614467081031
Cd 2.544048785679345 6.0666528820811765 1.6629011271469365
Cd 6.3654834878695645 1.3762633665670896 4.308884263749437
Cd 5.742069348467133 4.699513347530072 6.086233950360819
Cd 6.822704246515628 5.853919554651007 10.837272603982186
Cd 8.29799949718704 6.19021916755035 4.23177727486088
Cd 9.860220386754316 1.8452453319245699 7.686572993925773
Cd 9.179816770485138 8.971314004533511 3.2820978880631273
Cd 7.743527169475522 4.1019624957672365 8.500204153689241
