21
Energy = -6.90816684 eV
Cd 8.971977764225898 10.250675540890514 8.041907885690392
Cd 11.102494028582457 8.652493728481701 6.422056092656621
Cd 8.398511795693567 9.649259538003413 5.1404157448267105
Cd 7.435068747647051 7.899204598936469 8.862174012693009
Cd 9.485796143087025 6.1446950993166585 5.97124879343953
Cd 5.5626651747983376 8.730189586395824 4.61407233549385
Cd 7.9392889277869 7.160244109684676 3.3415208137580765
Cd 6.4604559288772 6.573404148446966 6.3810331086964265
Cd 8.939198750004083 5.216112379451456 8.737391061951044
Cd 9.528457807380311 4.473647327658327 3.3837646978835716
Cd 4.4555451362810965 7.516460240759225 8.545099603134656
Cd 6.213727085039211 5.512838903217286 10.378519803309368
Cd 2.8493573620864785 8.314877353083196 5.86245448546715
Cd 3.97276678819477 6.563402859279896 3.234160584923967
Cd 7.568311944676681 3.652088669471014 6.177961786306188
Cd 6.510471781781988 4.487797658597321 2.7150384667966097
Cd 1.3623692648801322 7.676471591106056 8.756752764877888
Cd 7.115144945203765 2.8466398444395207 9.065396337826876
Cd 4.692666421572939 4.320969576752473 8.032498961674843
Cd 4.747458727087997 4.331763389885403 5.10122158140591
Cd 2.1118644957324237 5.450362876761779 6.658910097806352
