23
Energy = -7.65216236 eV
Cd 4.204517011460605 3.5672432969359624 7.226113114171286
Cd 3.039437545371173 6.323296538923837 5.9907523122199
Cd 10.563264853300419 6.971282493912426 6.403481543323174
Cd 7.1801925211047 3.4164816819208457 6.223062466818475
Cd 5.350629950325309 6.286471108824795 7.8639121139429085
Cd 10.070738254088694 6.701423879976812 3.2169301625734423
Cd 5.371242368384402 8.400981771892592 5.563405625302501
Cd 3.7633880843649186 9.882324080908832 9.279916575376397
Cd 6.628367938260368 4.994852091340208 3.593680714170195
Cd 9.360955707831815 3.7575809544192467 4.129012678065202
Cd 9.020969853156288 7.108954341142556 8.943203906228815
Cd 6.454487668096534 2.5828955305867622 9.014349043548021
Cd 3.85994061033662 4.056914946569304 4.176706126508092
Cd 6.2882326661734185 8.199730869254712 9.927888971402002
Cd 8.990880406419194 9.495709599276056 6.692791161650578
Cd 2.6353655487275756 6.94104739122347 9.369430406761367
Cd 6.26873118141218 10.295882979726647 7.596782300613822
Cd 7.677259268239525 6.399756745722126 6.040122398524567
Cd 7.377601294799977 8.057492602247931 3.0306571514342235
Cd 2.105199209813529 8.995691225988464 6.903987131955966
Cd 4.31410965823247 7.036085905078217 3.1402845397176122
Cd 7.050935196114246 5.240398399181793 10.18819414262691
Cd 11.95087232954388 4.814820690504385 5.012654538621563
