22
Energy = -7.50768676 eV
Cd 9.366411662544545 4.429528192503445 3.686576306851662
Cd 7.395569516482242 10.108119670678475 3.9678558258852346
Cd 9.736467327140556 6.465346423750275 5.888458526908091
Cd 6.404995892429043 4.638048831805712 3.632962832617575
Cd 3.993266918056296 5.06358857776099 7.642572434670072
Cd 1.8398354280626183 5.344763332787415 5.595368994175873
Cd 9.361667066505127 3.4770782934851425 6.62551157206341
Cd 8.245220108745535 6.68194673820419 8.485274087026065
Cd 8.212567538820469 8.99771724721955 6.6317086862685235
Cd 3.5016607076657595 5.576417669478717 3.079974417759512
Cd 3.5528897923870186 7.778103537847947 6.114137207529414
Cd 5.306514666827296 10.142447499423804 6.245336703103973
Cd 7.483345622194325 6.734551801458528 11.348487030893768
Cd 3.9745601461769753 3.221455152531985 4.931234699046596
Cd 6.400056908062797 3.4430116877936627 6.633912763057952
Cd 8.42882048891118 7.393449136693647 3.2221094021537358
Cd 6.294087719078759 6.484302201234993 6.246678100049944
Cd 8.068001006199271 3.7670985699025046 9.354753116266671
Cd 5.411871981849765 5.038639244319117 10.149625428199935
Cd 6.967861924588336 10.816888076794761 8.661969072483863
Cd 5.40755461120388 7.7671157921166305 3.617293267605067
Cd 7.687992597359697 9.671601953499724 11.279419156674717
