28
Energy = -10.61629731 eV
Cd 5.744847509081899 2.6570425585067574 5.994911113181789
Cd 7.564067640821032 7.158028935726561 2.900711885110644
Cd 5.33127465707093 8.513315199546465 4.3113086124150435
Cd 9.056714625340321 7.363058634586724 10.632810214814047
Cd 2.1599460094338765 6.557582875376101 7.566618097196283
Cd 3.186500262247614 8.54710457590982 9.548983779277787
Cd 5.2867085521113895 10.555960234331708 8.53184022865071
Cd 9.985171864944586 6.244927931734517 8.007278061504019
Cd 7.875343953566738 10.29020890267175 4.211873637909299
Cd 7.5123571834363 4.957427941465085 9.928790963537658
Cd 7.8214602630121215 11.58164715322684 6.908415637474872
Cd 6.212935988313226 8.124498303586462 10.211887201998612
Cd 4.431972083513804 5.810946348065195 5.568948420701764
Cd 5.144259537850396 11.352243307511694 5.559884054121108
Cd 6.79565691370161 4.521977561550996 3.946192216826928
Cd 8.777465011645292 9.193935490275189 8.312581846920123
Cd 8.734967930473754 2.285803537321333 5.127382983107433
Cd 7.293656135414989 5.296390938700819 6.8683795359574
Cd 6.16748128502359 7.946590258989546 7.160259521507063
Cd 3.2075037968698394 9.04469439170454 6.359085169379312
Cd 8.81689236186915 9.5379858026374 1.2692998419818982
Cd 3.3096191473625503 3.604046200626288 7.439374612033119
Cd 5.615690809164462 2.6674034691592907 9.105258774131153
Cd 8.546741999049354 2.7472899917783344 8.14487736505633
Cd 4.65619150583663 5.732055400031638 9.170580503616879
Cd 10.912982698935888 3.860810355727045 6.485287144981321
Cd 9.795599187470676 5.228887991045946 4.092502020402075
Cd 8.843249697783861 7.756771823147031 5.634285416896528
