21
Energy = -6.74829642 eV
Cd 3.3909446824912615 3.781762729427363 6.438977284394037
Cd 1.9761355302840269 6.0460143767006755 7.780015969935423
Cd 5.667136217022449 2.3515933545328327 5.216343842603596
Cd 1.861905589768909 5.947181265534675 4.6948126638442265
Cd 3.569953515664146 3.797321169186041 3.2095293455411182
Cd 6.1096645167838695 4.85305775934136 7.479350227023674
Cd 2.7711489089601575 6.714301621551416 10.595267121886293
Cd 0.9395314408318493 6.288581202487919 1.6100385611356782
Cd 4.322728026595044 7.138739191334998 6.195195126179008
Cd 8.518122979067297 2.9590123884966126 3.8461245478502213
Cd 6.176053953417292 5.229366640405163 4.37627857202306
Cd 4.006007109747777 6.8077049947041886 2.6977860519673937
Cd 5.436918155292187 7.318522054251494 9.34184080833984
Cd 8.21859315608066 1.3945599922756473 6.429010554187234
Cd 6.3039501058864005 8.23729696334891 4.13323467079115
Cd 6.410266690750735 9.177273441071668 7.202819116326131
Cd 8.359424669326863 6.908523056138683 7.935381823019972
Cd 9.089268392916303 3.9790013301005507 7.553254038970556
Cd 8.469463782087129 5.433898392775518 2.0453416415414774
Cd 9.043269447531065 5.959570319595368 5.078810926460885
Cd 8.872579523766055 8.99291182658793 5.469993965016417
