26
Energy = -9.15496567 eV
Cd 7.725835438287398 9.769953785130602 4.844110036245876
Cd 4.81271954141699 4.602569959201332 5.6987772568036315
Cd 6.3445994745561896 7.961270742743157 2.7601419358051817
Cd 9.022231919202953 2.445982332453345 5.726945486045555
Cd 2.633339547787317 7.343371242862499 4.79210069429104
Cd 2.3746754304963673 4.532971483737592 3.837269286269442
Cd 7.059802448547718 9.130397903595554 7.744805222939594
Cd 3.164818137254098 2.9654421033578835 8.060238556942936
Cd 5.44703176595522 7.639145766820247 5.644521088317941
Cd 6.578090347833123 2.8640663239895785 7.510565036000626
Cd 2.9949218762791845 6.3162199504706775 7.548119295463064
Cd 6.375902225469508 2.0405405185967873 4.370687712963842
Cd 7.4283379688700855 5.99000506529205 7.451487663661881
Cd 3.7530269669852356 6.728830045489108 2.0600445051103566
Cd 12.441127031381784 6.121127985170724 7.203035654709163
Cd 4.408004645695969 0.7451836979194738 6.209985983685112
Cd 5.280066959676081 4.9353412033772575 9.28426024477864
Cd 9.387343237841895 7.578359570397438 3.625908332701214
Cd 5.095002835268173 4.018684134824342 2.5631908142521693
Cd 9.850443411163377 5.257292895778301 5.702442928293371
Cd 9.614753487979895 8.085837732184196 6.688333209616712
Cd 2.6955958717642177 10.02084024121997 6.1455119052903475
Cd 4.812868865550653 7.905788285594443 9.352919572789515
Cd 7.282804892279733 5.427042959364384 4.146953739049075
Cd 4.63523675076233 10.863013514455487 8.234278530783705
Cd 1.84188351259774 2.1355726590957316 5.446420979919978
