23
Energy = -8.30888146
Cd 6.189321456710152 8.765915171313534 6.295148718188084
Cd 4.5677625870007015 3.085831396691805 7.290058988228105
Cd 2.246969138735695 8.31528961503814 4.28425378352335
Cd 5.243593164677844 7.672304068731569 3.48102363406822
Cd 7.721547147248127 6.770367364312291 1.9625955045162315
Cd 4.333020478956136 10.467776788776055 4.48458799602212
Cd 8.797445771821396 5.114362979186668 4.249224739361351
Cd 1.3032902652177796 6.67895369647555 6.584699007986347
Cd 6.622980878993115 4.61123520389828 8.789258833761952
Cd 6.241949553090225 5.74262775408575 5.944063571672239
Cd 7.78769580784771 7.1940901201453205 9.785898082789856
Cd 3.999975372554264 6.236018050328577 7.813679968104177
Cd 8.004180676267254 1.8701666755063613 8.086265785949436
Cd 8.818839204727063 6.856812807305982 6.968756950707167
Cd 9.988420864451044 3.068406217258571 6.1081494793668645
Cd 3.329939713149276 5.4746760740009766 4.591487859629015
Cd 3.102378854410099 9.237667752592358 7.09263106689864
Cd 5.310514576410528 8.691789870324836 9.191557052553014
Cd 9.720916082131822 4.531739095502903 8.746138740883865
Cd 6.981855803498598 2.7569583439442447 5.280907173526334
Cd 8.508933555952627 8.461473985590048 4.3403969909203735
Cd 4.009565227972856 2.520661461402413 4.348044188791352
Cd 5.882425926993577 4.588397616405367 2.9946939913691994
