29
Energy = -10.17667695 eV
Cd 6.799241060901612 3.1576058808830023 6.650654199343818
Cd 8.38952586780771 3.3371500223088755 3.9890801430058054
Cd 3.3723268599937373 9.625825059445036 9.300835945844566
Cd 7.026861279848276 6.018219518510995 5.636201961370754
Cd 10.80146822785954 9.891777002112756 10.43503785392729
Cd 10.517888808412394 3.6118518157320065 9.610142082040603
Cd 5.6332420965458185 2.142366097367345 9.222404522083545
Cd 8.756005411809431 6.837352888683746 3.332447384838142
Cd 4.1960460100317425 6.637813163177134 2.4687659779145577
Cd 2.4875698997069255 9.068047770499964 6.52828720857071
Cd 5.694062778471079 9.977940098065801 7.1835622395389285
Cd 3.9818649243179087 7.367873609676213 11.229783842840552
Cd 3.876571110031905 6.610434831390099 5.501106959468386
Cd 5.1663557085978775 4.933215770583762 9.922154268533419
Cd 4.941544306632569 4.059857389259097 4.289837460408318
Cd 10.80660117090934 5.048037004144306 4.800207127368589
Cd 6.702784036118575 7.90615865646041 1.2723074162663885
Cd 8.134130280462923 5.211022279054052 8.547979156005601
Cd 6.185776614324044 9.398218665748827 10.40753554189876
Cd 4.667167686153707 10.227898437906417 1.870734794264797
Cd 5.944406676345591 7.153821544683987 8.12834736473556
Cd 6.769250444545106 4.865989037143224 1.9673996865383718
Cd 3.8682252636877035 3.9093708353404883 7.157330168435093
Cd 8.34881516565766 9.022289972260124 5.637708872394182
Cd 5.731910328241919 8.773737866257644 4.295291051676177
Cd 10.03143631800023 6.939439417928879 6.955895416147516
Cd 9.861846762615237 2.7862342191416447 6.677697162592856
Cd 8.534502797238021 8.952721768531019 8.617675668811449
Cd 2.8221388525520386 6.577296125523448 8.413155270954743
