29
Energy = -10.47579706 eV
Cd 9.983589060441588 4.330346409771822 10.217745545017813
Cd 7.407044685846305 9.552587349379602 10.102007920243773
Cd 8.771575066062459 8.999686836567582 7.275246949354065
Cd 8.978270937155274 7.019679056222565 9.553580436711435
Cd 8.798130250704256 9.053558823436402 4.175658254154818
Cd 9.70024732474641 2.8323271236169885 7.702138176390603
Cd 9.741457158775788 6.076538817480237 6.676861691748498
Cd 9.943059948164263 3.5661086521013616 4.891381084224865
Cd 7.62823297228664 11.337880295203055 5.63557163941763
Cd 8.799321173576189 3.7545831739011444 2.0917001009605642
Cd 6.771154837370321 6.756476470720727 7.032356766390556
Cd 6.120667492161113 7.048623771299911 10.920390072419117
Cd 6.372063016386623 11.554405432893367 8.319941588914729
Cd 9.386637478257551 6.311848724002029 3.5959943196292166
Cd 4.578766952343942 11.363037948179478 5.892373878464316
Cd 6.346580634798613 2.391441687732604 2.8999401408733925
Cd 7.098045217230744 4.449089568093914 9.077883589241875
Cd 5.754146603327732 9.039254026544585 4.214904921375151
Cd 6.590198380431975 5.5566371430947585 4.153800793222325
Cd 7.149276886489175 2.7667251771028742 6.076071281822326
Cd 4.235462758941053 6.678057575673955 5.586844042311012
Cd 4.306961911744928 6.0723382330641185 8.86000159417985
Cd 4.55245930156696 9.001089557646857 7.866585178207802
Cd 4.756162554642816 3.0189049218264348 7.935149714029885
Cd 4.409375170321671 3.499661659730208 4.820520303573684
Cd 2.446949395776202 4.5810935214202955 6.871595652123858
Cd 1.335542855113751 6.678850228179545 4.488911527182209
Cd 2.6045494461333525 9.323273217521487 5.144954276802685
Cd 1.4353290367993743 3.6503081897396488 4.015385326029422
