29
Energy = -10.06628325 eV
Cd 8.865991420880382 8.545507861291549 4.090717052438615
Cd 7.15990306540522 2.2993597272587794 5.030926047595923
Cd 3.248054961460261 6.505774204542022 2.7789411970921387
Cd 6.294192878899017 8.586074600182915 6.084461568043196
Cd 4.773799803050938 3.407268275087736 6.776121212113344
Cd 5.969667797935792 4.267698274289404 9.6434561936784
Cd 4.948409266504224 4.188374324092503 3.746573577974773
Cd 7.092603494658886 7.249107544283358 9.93581780928304
Cd 7.350169180068394 9.885545329526762 8.66590612160431
Cd 6.8728020659599816 5.609079147300723 5.760687609445863
Cd 9.820171917205316 5.651372825120449 5.3995754481168
Cd 9.344726174481288 6.2739353364391945 2.3574156343286417
Cd 8.866889115095221 4.659630301925751 8.09804061437729
Cd 6.2804982993998015 7.164124108092896 3.1065222845742304
Cd 9.276982573305249 7.669059389083413 7.5612434844169805
Cd 7.200250619253921 4.295854636613578 1.9122712110080122
Cd 9.081971957226633 10.44333990581016 6.230839846372612
Cd 5.903258295397015 5.684824239547558 12.435750012528938
Cd 2.631082812994438 8.729910193620071 8.130863239836419
Cd 7.280476985848467 2.1051676695610873 8.00728174009921
Cd 3.762187261049884 6.892319524135114 10.633357880830447
Cd 4.481408068362913 8.585860925765449 0.7309415401152404
Cd 8.731717937088396 4.91976298085821 11.20346640062829
Cd 8.501802245572676 12.681320048749168 8.297237648849075
Cd 4.671350100215896 6.298228232873334 7.719874622481734
Cd 3.459507477529994 7.999994650367335 5.343765490562308
Cd 9.55684091605723 3.2653951346564702 3.6083159426883338
Cd 2.5555839216339185 5.0882284861763445 5.470972041757777
Cd 4.733369965994816 9.76355270128414 9.954327105694047
