27
Energy = -9.43206971 eV
Cd 7.953284321078837 2.0932803087361256 7.478941247879495
Cd 4.848248979277779 5.511425653376743 2.517254512241183
Cd 5.355364123703034 7.67007977374431 8.71098220322425
Cd 6.344752342019679 4.962174632021603 9.599897045680594
Cd 7.7429234038270405 4.432998617842332 2.571016806635232
Cd 7.0778302294706155 8.494827990356772 5.070166661731457
Cd 10.156248578067435 7.863389213723295 6.916723451658587
Cd 4.767032358457593 6.558999992766296 5.281858531707447
Cd 2.6014000718599806 9.830510729362235 4.64762491745578
Cd 4.65557459505231 8.84094851209781 2.7962421557163215
Cd 1.155487017886 4.393665009911822 6.141568440965564
Cd 3.524545316938596 5.393712637329118 7.811397377779416
Cd 5.748960932147799 3.6692407529178235 4.88168484576037
Cd 11.390477517878356 5.045383697412982 6.3886438025869925
Cd 7.2801071597844915 5.664678453373498 6.7497481604560114
Cd 7.7529748110705325 9.562131165890193 7.721304570345008
Cd 3.1253074599168222 2.2435465185723196 5.522286000009314
Cd 1.908353537882365 7.281988026431548 5.956078107619865
Cd 4.760368472044325 9.7550868449126 6.683098779250842
Cd 8.743579856940165 11.972836678245377 9.25871058314017
Cd 2.2815129798342046 4.342800601142042 3.346985152034796
Cd 9.399596458774495 6.631647542471827 4.279724977119917
Cd 4.937141642223989 2.6981709549468476 7.8784656551043994
Cd 6.851155617633001 2.1323827697873377 10.289193682304811
Cd 8.493379664500518 7.015973622846241 9.256157053652094
Cd 7.203078490071345 7.403996888423052 2.3061404316151055
Cd 8.931664824517352 3.676463251407289 5.250195927160188
