23
Energy = -7.03043412 eV
Cd 4.209749345366266 3.2292966720332 8.35644292617626
Cd 1.4344310759195038 10.728434952917679 7.068391957972427
Cd 8.827765028181773 8.23137538460511 9.403960724051625
Cd 6.198469952082933 7.350835947787748 2.464551615247874
Cd 3.8330459967384978 3.77313386609074 5.461739673672908
Cd 7.689810924245725 9.776629050046006 6.995039651890036
Cd 8.645242782348449 2.816659947836827 3.6982734320185493
Cd 5.860207835013743 9.904020275464422 4.6387405370038
Cd 3.3496858046155733 6.028123880328472 7.813218295726565
Cd 9.883784063115664 5.170690029043895 5.238149342461351
Cd 5.872208075400392 4.314441033703188 3.236704527743528
Cd 5.300598025886222 6.4547823677553 5.273270044007768
Cd 2.804309824061955 8.925277131926308 9.428318992746265
Cd 3.182078705727107 0.7713327828014547 9.819664768582404
Cd 8.48541740388351 7.970871652930003 4.51632480730116
Cd 5.7439175906447675 7.831238085011201 8.658717651238875
Cd 8.631236260661327 5.596382361584616 2.4259402803882284
Cd 5.605131197746112 2.810328649462981 0.5987600768049647
Cd 7.808930006267717 6.352666844230022 6.9913006335186685
Cd 6.955855556555159 3.6362050480629495 6.104396795598563
Cd 3.585959761914548 8.684746293693609 6.217848027234504
Cd 10.970775857631244 6.656430171035183 7.730563240435512
Cd 6.591345601107011 4.71034349172797 9.119281730364058
