21
Energy = -7.13001568 eV
Cd 6.21471865428838 0.9889042775873171 5.153423363128069
Cd 8.744938113501952 2.8010240721811015 5.188260170081825
Cd 5.960666467307008 3.295224920702401 7.220845655880102
Cd 6.679591693420703 2.88189957024738 2.5586668504829615
Cd 4.14279050116939 4.047329805901391 9.574048682566296
Cd 8.35830369199279 5.20031145214817 6.978111412982582
Cd 4.4486571594449655 3.7200874816483207 4.433566674576381
Cd 8.326694920605613 5.37610274492071 3.4822825853783486
Cd 2.7695461990144783 3.8397922910617317 6.864183843383194
Cd 5.941181910941187 6.1529062354766415 5.53196239540709
Cd 6.04942487526513 6.230471385378704 8.741880934716802
Cd 5.5504849688727695 5.732222255595713 2.2537839011613587
Cd 2.68131781208908 6.435050724513109 5.078147989316905
Cd 8.427864554785833 8.042423630394937 4.965836821300434
Cd 9.138554758931338 7.933306980976659 7.99167061639316
Cd 2.876041357455662 6.536585414727158 8.205249817433605
Cd 6.734386094760872 9.079297151704695 9.54651995825691
Cd 3.568700391445475 7.910914772819705 2.6056230946862113
Cd 5.7289005186872615 9.198685448803978 4.174960273419664
Cd 4.698700719808108 8.541972762471067 7.026248540097958
Cd 7.157120491774476 10.352187484038998 6.657864086488206
