21
Energy = -7.07565 eV
Cd 7.811573825409138 8.845164016197243 4.88174974341843
Cd 8.106347280331649 9.086916087167722 7.900457248815499
Cd 9.957522868865508 6.828158379599767 6.583272033291171
Cd 8.494921572632183 4.077241093733762 6.164821442639218
Cd 8.059388413487955 8.119771766626792 2.0128132313459353
Cd 8.936102068217398 5.912108871018378 3.8510440951655824
Cd 9.500891268902082 6.931494834761265 9.637206545153463
Cd 5.4496735429823016 9.736032213145345 6.506055043987167
Cd 6.367364428831559 7.208296699146277 9.777902238554585
Cd 5.550338625316732 10.174639664094933 9.726304747363002
Cd 5.707460660058799 6.909904312780068 3.3832757304440713
Cd 6.547647325929357 6.564545382297524 6.602401930423032
Cd 7.729470674579542 4.531535533550803 9.05324649842783
Cd 7.9424013947344365 2.7956203503324177 2.933377521807891
Cd 3.6988485600430114 6.252641652067199 5.554479936511467
Cd 4.547691117690129 4.9876007748565705 8.62447606273157
Cd 5.767424000435358 4.1401903959862345 4.618759341895943
Cd 2.6304980175525614 9.062243039552813 5.776260308804043
Cd 3.6084579230127383 7.851037648009618 8.433115912878192
Cd 6.1230914294590075 2.5230861341620727 7.4262962958485765
Cd 3.3279478360936334 3.3268339854773843 6.417746925057805
