21
Energy = -6.82714772 eV
Cd 10.276970292594646 8.380172921436106 7.802505309495395
Cd 9.789202118065633 8.092872583393481 4.821931392040004
Cd 9.572637353138422 5.596757380836478 6.7131807498885685
Cd 9.59032932792924 3.078380344376114 5.005595656657925
Cd 7.945326478878642 9.840910301489547 6.454153851579692
Cd 7.53338801623408 7.287755740416977 8.595649150929145
Cd 6.706741182022126 5.466076377688964 10.922982315980823
Cd 7.480831320829582 3.849552142694757 8.353043127725075
Cd 8.372191871076181 5.670255892602828 3.7977223026541744
Cd 6.181480398949099 12.145528771729564 5.767275325507726
Cd 7.189095476869556 1.6192644548408637 5.985939115136915
Cd 4.4679781977333874 7.1270998523719715 9.560655108484703
Cd 5.230397515859562 8.41971773207763 6.943895251036124
Cd 6.47291538047697 5.788088905060695 6.088613990744088
Cd 6.551264475160206 8.118287146900606 3.9221737134456083
Cd 4.797669415797869 3.3492163574274856 6.429968973427793
Cd 4.508913906798542 4.077628218658529 9.320611793223618
Cd 3.795403181521442 10.39221175724567 5.001131151346319
Cd 3.556598776805697 7.550952611223261 4.045310051792273
Cd 3.137252754442268 6.074985037035167 6.931564596927067
Cd 3.3476103896550304 4.578483301331819 4.0402949028148205
