29
Energy = -10.40637117 eV
Cd 6.167203339778111 6.940989619335301 4.8137780060701125
Cd 8.637387191006464 7.52413681552348 6.56342082643216
Cd 4.206210808810129 8.804454601932786 9.479535095376574
Cd 7.994284776984631 5.434115824457591 2.758093101342934
Cd 4.314265795425793 9.955175641866695 1.8024904925447862
Cd 10.551281071232662 5.317233711536731 7.213459346344451
Cd 4.93069432198854 4.200811398552111 4.637073347160255
Cd 4.837824626283429 7.5628295854737555 12.05331529086715
Cd 7.527432241642584 8.576637327106964 9.259451999591818
Cd 7.621302144066325 2.6817806695128805 3.6599092251748466
Cd 8.059386211389784 10.385572927336002 5.440577119649816
Cd 4.532745380527418 2.024259647433873 6.752794006163997
Cd 6.12773450369042 6.295321630771946 7.799885705990274
Cd 3.0517833451940346 2.5358739342268892 9.651551713383018
Cd 7.844165288275187 4.330277271873228 6.215430640076808
Cd 5.983945408968888 0.46486304594734357 4.669594945990341
Cd 10.118642588784152 11.011652288974341 3.1961151091610245
Cd 6.954553428474909 5.7940417326671865 10.791057473374698
Cd 3.6707494020941147 7.689679094504339 6.706174278294951
Cd 3.1589723563749086 4.74245839274228 7.139213399767263
Cd 9.182497825425704 8.074282282355973 3.4335038746200977
Cd 6.367831523819337 7.7888588783510375 1.8158373180834746
Cd 6.0737369951901545 3.440352450009482 8.843183411216451
Cd 9.770729035393188 6.718474224826951 9.782376635070133
Cd 4.976149791960269 9.678266138560003 4.67104759336034
Cd 3.697401889850258 5.5929171681605805 10.03824136389777
Cd 5.8388242076432775 10.198235919203173 7.479712958758234
Cd 7.195953094524752 10.755507548412497 2.4164647055896595
Cd 8.951772107906509 3.8264009310500025 9.26217171935333
