25
Energy = -8.93337101 eV
Cd 3.4027221786459148 6.717062103710986 4.139206938839507
Cd 8.529793401089748 9.528526022853063 6.283698404362682
Cd 5.88523481112697 3.829337921638572 8.85387456599032
Cd 10.534144589422539 5.138093658452696 5.074119544166846
Cd 1.5023913042754813 6.357893039433217 6.45228910547568
Cd 8.215952605963826 6.681114917736294 3.4989189076316984
Cd 11.240024614525385 6.873957081203416 7.452862500313197
Cd 5.596902449850628 7.436178702005142 2.092313796255551
Cd 8.575345232692912 7.4609329736721275 8.685649620749512
Cd 2.9745914854800724 4.8758595767325685 8.84554447927464
Cd 7.651022315200548 4.1085411020746045 5.370034134625197
Cd 9.044606863053867 4.5082147069017005 8.17442879933562
Cd 5.959738817691491 11.259088108602343 6.660913537220339
Cd 4.134450709166688 8.448602202306068 6.444399968007653
Cd 7.531530296145807 1.8027248650663783 7.318786244797776
Cd 2.2586797789099 7.740721419485434 9.04874423148765
Cd 5.603205521540651 4.695064651304891 3.341342951231101
Cd 6.826259541873826 6.86892164097591 6.3108056980000224
Cd 5.5170113770682745 6.828773507770029 9.094951528133397
Cd 4.468527230501735 9.703880085044533 9.100016554016712
Cd 4.511366796021609 4.75798763663497 6.2361724284484215
Cd 10.569209621968733 1.6051691968865638 8.081254390733775
Cd 6.1491182773088875 9.231814372675952 4.362747170118155
Cd 10.651591799555723 8.164229116022168 4.697328172962746
Cd 7.399754729986457 10.110487739877222 9.11277267688979
