26
Energy = -8.86075576 eV
Cd 7.567509375714789 5.742314816379737 7.021702380661417
Cd 5.481089498733458 11.60393262152316 5.731203685494544
Cd 7.056518208301942 7.684568468693185 2.7525861679338264
Cd 1.9569523589153983 8.862521711195727 8.285318856758398
Cd 5.17263240874389 2.289441026320683 9.035938801887724
Cd 8.868095123524265 5.337916508433538 2.253216668460558
Cd 10.478109293586412 5.296260582120677 4.826829897424485
Cd 4.624819309761705 4.9074695059004 6.5107765990009545
Cd 10.188691785939724 4.350906169801458 7.88576419626795
Cd 8.637788957494564 8.231459905660753 5.321889728449102
Cd 10.706477612754307 7.153025279702565 7.14397611933729
Cd 3.9871988963900105 8.954116804430415 10.601399955223552
Cd 2.4727407515741158 6.957762764324277 5.988448605770869
Cd 7.563078557363916 4.283439021789021 9.712040280780016
Cd 5.597665971988702 7.7676816341989205 5.341196212228594
Cd 8.430315066615195 1.8797052724976124 8.121552923353505
Cd 9.130286284662574 2.515582892616183 5.223692158704625
Cd 7.42304248935783 10.58998112982248 3.8168600243900697
Cd 6.321131592712186 6.928211849728049 9.65412934665616
Cd 5.541069683908916 9.449884971594441 8.021621360781278
Cd 8.583870623797942 8.711860050508479 8.588941152361434
Cd 8.118440641510116 11.045884273365386 6.832265870939431
Cd 3.4355446944554724 6.35563404259363 9.019005891247943
Cd 5.996329595504925 2.4066882861870385 6.080754442792658
Cd 6.80891732919752 4.51952983283034 4.389186941480159
Cd 3.1901199092975423 9.719276205397225 5.64266138054849
