20
Energy = -6.40607532 eV
Cd 7.91405022199195 10.248204988593825 8.666288248745767
Cd 4.943014545563956 8.684016964658154 9.461406428457009
Cd 6.2916018714774 4.390510415811868 7.854977938514346
Cd 7.533843653110189 7.042103089869339 9.414775140191054
Cd 9.83984697209561 8.19454569535969 7.398122514752151
Cd 5.378744527566215 11.207077641886423 7.478981883687839
Cd 3.692434027670665 6.170767133257129 7.925217475205778
Cd 9.3765085219198 5.20629519222742 7.861781621404189
Cd 6.509988069045194 7.276860886774454 6.656130760967783
Cd 7.491150482905185 1.5485802721766178 7.650220893437285
Cd 10.078845921363067 6.246624988478475 4.977582010502443
Cd 3.2007425332321486 8.97153875318631 6.78734398679542
Cd 8.213730486570235 3.8008474258495015 5.36700663916555
Cd 5.95491133597235 1.8688461355207704 4.9877400480204
Cd 5.550538407513078 9.539106397912755 4.888904854210288
Cd 8.481893508496041 8.799127755102422 4.7108450215519415
Cd 3.9598680365538392 6.684754200111261 4.791718980567652
Cd 6.9715107249457 6.200289808940956 3.82148987956202
Cd 3.737979902775972 3.817738368243323 6.052908686670756
Cd 4.827729434295336 4.051097071103554 3.195490172654259
