22
Energy = -6.95532139 eV
Cd 8.413370647720873 7.788276404372772 2.3809516670546156
Cd 8.855172504327555 5.0023738310745385 3.492579925758579
Cd 8.161238592542109 1.8159416178756842 2.8986848159259
Cd 8.575549083284942 7.551322943896435 5.41469401539571
Cd 5.62122411154417 7.351916671575777 3.218320330425951
Cd 7.8428840895403935 3.523416238923504 5.92678838261011
Cd 5.8584406944563545 3.9879273531187116 3.5217634199373946
Cd 8.676727359213624 7.638136349558921 10.701575206729565
Cd 8.203701283455967 5.901749425327496 8.261418249716513
Cd 9.167147814681057 8.98048431736726 7.9909477178424995
Cd 3.783133467726288 5.149386229055173 1.5108974093275485
Cd 5.957010803735447 9.145891664495768 6.07383885890619
Cd 3.3105252538790024 6.00528264839072 4.573590775122895
Cd 5.838508285348435 3.8034057144563618 8.656363039827104
Cd 2.634437838667778 2.895885908795818 4.145125914626544
Cd 4.940446298658525 2.2065340818531354 6.110406322810722
Cd 6.365617595298504 9.015555180193653 9.293349501906691
Cd 5.913434671766048 6.0421849219309625 6.133727884323682
Cd 2.994515169486766 4.405950201017016 7.219314489563657
Cd 4.683521642721235 6.545248178755929 8.966028797263572
Cd 3.644304360650084 9.335238902871701 8.018171706330572
Cd 1.83965115340794 7.297136790547119 6.827767548833113
