28
Energy = -9.02198892 eV
Cd 9.968682620860214 5.818049969726937 10.622999351830451
Cd 9.909724150378954 3.5173870584209896 8.759333383700097
Cd 1.6872084620296304 7.7191351597625415 1.5929953060001507
Cd 4.891072825381626 7.769538122116263 11.51854644665664
Cd 3.5217348720108066 10.704749105619666 11.518804305979353
Cd 7.06889610135929 3.2645019882278694 7.445187568369361
Cd 8.52089276016679 8.745004916305316 5.658330340205364
Cd 9.895354951216339 2.8830800944689012 5.851563850440728
Cd 6.410782244237988 2.767353282379741 4.3485754808247385
Cd 8.68596636912761 5.8774230514567565 7.09788952160418
Cd 7.166422908412842 6.5975295506045475 9.927183209697837
Cd 3.633004621763442 8.83552273215875 8.845063660903998
Cd 8.85524864548619 4.30747739683309 3.3450183175336408
Cd 5.630862348773819 9.572605489334906 6.599697205757086
Cd 2.8166093302969095 7.516893271543567 6.316807785854273
Cd 9.296763942607427 8.555282325507225 8.855486019012567
Cd 3.3394996418174534 9.998141887622948 4.494324457814815
Cd 5.604162198804379 6.528674684570493 7.435867816706688
Cd 10.565133404800255 6.749474694574432 4.770763323541952
Cd 4.045809304631949 7.162324048723812 3.4672700210853566
Cd 6.294573793197299 9.260126588737856 3.644155389934022
Cd 4.344659034048255 2.139013310622615 6.571061933298463
Cd 4.176084586675784 4.8623304546448 5.373700552555838
Cd 6.358361642204577 9.928247839539624 9.873304905319845
Cd 8.141549907565437 11.16162715596938 7.747217619321348
Cd 6.831884679092218 6.252341814284896 4.496685468584967
Cd 11.560172826761598 8.521074111109616 11.126335176658165
Cd 11.981252121083747 4.187460189924106 3.8982018756016052
