24
Energy = -7.50290282 eV
Cd 8.936517709169621 4.644770268562133 8.56382491552448
Cd 9.770762439794101 7.374547157785786 7.466739049609724
Cd 6.675832199221443 9.173894748583661 10.136837525776356
Cd 4.6038354676978 6.084635604018504 5.559516655006153
Cd 6.084319493738666 3.4848306765516583 10.55798013472157
Cd 2.6466658485112498 8.33484470979256 5.729828962258395
Cd 7.785504290624474 9.999854983340583 7.398164734031362
Cd 8.362162909364436 8.471441222937688 4.8486629496795
Cd 5.198950661262763 3.8984579005636353 7.570646986642293
Cd 7.142423404361193 9.999247881567928 2.1040245394839623
Cd 6.2851062534209285 1.361903271434335 5.6413700984880055
Cd 6.295830325819061 6.7663913934900615 8.231120845881886
Cd 7.535208183671141 2.071801733467652 8.29937554816575
Cd 5.357019519480969 9.003080500000715 4.490934865649139
Cd 5.97887339934354 6.3566338780855896 11.268589507668652
Cd 5.204691030168332 4.745916315197722 1.0800410448707527
Cd 4.8206904957654 9.31205859604475 7.561716923460973
Cd 9.849183782169705 8.261606668604232 4.9801552045274216
Cd 9.846816391262674 9.651436704272468 9.583813746578233
Cd 6.097989363892822 3.6637677398005906 3.819851998469485
Cd 8.320975704913264 4.192629785947465 1.7128122537713015
Cd 7.728972265114881 5.550453108065515 5.857453130479486
Cd 8.859489050654377 6.930334489693196 10.539929122097961
Cd 6.801755184054974 6.6664875728714845 2.9976361678375576
