26
Energy = -8.89371903 eV
Cd 8.916775646969741 9.385138331938688 10.386736137129294
Cd 2.570108482213064 4.939208954652687 9.255759144299471
Cd 6.925758683230124 7.2217133594253005 9.09101925214129
Cd 3.8425403997963974 7.571076255144074 8.775309343580533
Cd 8.514718255044038 9.74350068172184 7.255271002078792
Cd 5.433555163461803 4.541783397644751 8.508317373141033
Cd 7.154779147177822 9.496550423266154 4.595748230347286
Cd 5.942156943870646 6.702468365330862 5.965676786249176
Cd 5.523651068202499 9.469812298166866 7.276136540360116
Cd 9.998199106841644 7.247347767877966 8.257184432242248
Cd 8.204429078859913 4.926412874762927 7.300778399356756
Cd 6.725614822392602 1.8106629056501413 8.49437778763762
Cd 4.290140401157167 10.895633614166785 4.853399337943919
Cd 5.463983081016463 0.4319531557326082 5.988882924141831
Cd 9.034671857206405 7.1748479113916765 5.224331138120448
Cd 3.0346759241271806 8.249467506718311 5.629339969214181
Cd 3.0702007029854945 5.268771760201782 6.360499760877248
Cd 1.0463996437135443 5.884914551970795 3.753978558830552
Cd 4.753280481269878 8.734335261764114 2.8471414115369607
Cd 5.446430448388341 3.583689537238747 5.457590070463641
Cd 8.35129284716918 4.355298395115498 4.252639300266325
Cd 6.999496730588238 6.670350560440867 2.8127652541686325
Cd 4.13798997309412 5.764925017465158 3.533767240692192
Cd 8.32453770785064 1.721638150311104 5.812938721652156
Cd 5.945367349195394 3.8638956799253834 2.0981207329001745
Cd 6.637786981232788 1.1168008471528392 3.1795488851488334
