25
Energy = -8.96741862 eV
Cd 8.478244601211763 2.4111773924669473 4.198667590594687
Cd 2.58634382496239 4.983685851012334 8.856685336802489
Cd 5.098497559771577 3.3227136948044547 8.47053918680125
Cd 4.51222988158711 7.301924004166666 9.545056584972597
Cd 6.276368847248271 4.246618279663337 2.741176994296473
Cd 8.011063379413516 3.091813802534867 7.303664809416981
Cd 4.672449167443612 6.155634192103457 6.590373120149717
Cd 9.715049355957598 6.8877093576730175 7.46485105425555
Cd 9.184930694224876 5.110356213806779 2.842777635476973
Cd 10.697534698639002 7.171546926216186 4.5588146848241164
Cd 9.047100365647701 9.525615287055718 5.782733546639702
Cd 6.977086781972076 8.41030664554925 7.900750134838189
Cd 2.539910658085509 2.885497720892803 6.572278331024869
Cd 5.0475016819247145 7.002336264732234 3.3640135006803447
Cd 8.075756987014433 7.978579207498026 3.158522126787836
Cd 5.95937006053026 9.087283329954591 5.233040450413565
Cd 7.12219496114298 5.618032581557169 8.825517870377976
Cd 7.414126862582781 5.937042258150571 5.496679376424273
Cd 1.4706017756572733 5.72706770110569 5.927615076802171
Cd 5.592606109424252 3.1797647684337336 5.488751869662397
Cd 3.36481301327609 4.479654820098553 3.90774132595213
Cd 1.853827800945941 7.87703663346892 8.099544108663139
Cd 2.8725939039318282 8.393767586510751 5.238628340938415
Cd 10.302007644155713 4.368578463621861 5.77238747966042
Cd 4.1937153459765115 9.912182979650467 7.7251154262727395
