27
Energy = -9.61265261 eV
Cd 2.975428652453503 6.959393907186074 7.995236109305232
Cd 6.847309180561875 4.202365145952825 8.164187043014781
Cd 5.233139643137893 9.926890650633394 9.889220056235011
Cd 9.928751460068332 4.144472772062706 5.841162399668708
Cd 11.570492750709166 6.507241947565455 5.079236655884266
Cd 7.881581120063134 2.0396728202314627 6.39618824972864
Cd 4.034335037504841 2.697948480978848 8.138274358741333
Cd 3.153966343451175 8.039193891393053 10.84242063833916
Cd 10.701905088170324 8.825082835083098 7.930183481997012
Cd 8.04926798958442 8.979357734142765 9.252182535678092
Cd 5.581315878473997 9.469742077543767 6.973808170247535
Cd 1.0857579000078144 3.636079616958227 8.09789097348014
Cd 6.741197476567691 8.975555654985062 3.775234471548348
Cd 8.388542488417208 6.2533450034710825 4.122365881755477
Cd 8.80918770507283 6.546965990445198 7.24086268862545
Cd 5.5493481655464025 5.318799422716113 3.2350699078521408
Cd 9.885766990997888 8.663412495126117 3.2120110804869566
Cd 5.228310803761814 3.3263702437274514 5.4894586491291095
Cd 4.281118430279228 7.887727097165373 2.51730482214911
Cd 3.7855030060429935 4.934988471711451 10.099623886380122
Cd 8.511614243465395 9.61853679476367 6.0253794141625425
Cd 6.053248485118579 6.816205833479145 9.449885903181727
Cd 3.4102135944719976 8.151715222885075 5.340648131105685
Cd 5.865568802738982 6.34894915528372 6.25652346686648
Cd 7.817070873972216 3.26490779578946 3.6567569346851676
Cd 2.7184609410148095 4.959043245665836 5.686580510436264
Cd 11.890283306031073 9.484722050739846 5.270989937002119
