26
Energy = -9.10880204 eV
Cd 7.959841758472893 5.532112544908707 2.2799405846770893
Cd 3.2200611390030556 9.156551703739618 7.012661009530368
Cd 3.947877742066571 6.523337100115831 5.452830323793994
Cd 4.407939246506403 9.557383127226325 9.924377031464822
Cd 6.8820953676342285 5.509891259153182 5.934274944233936
Cd 9.084077007856369 9.362420778646218 6.902622212286064
Cd 7.840716635988725 4.12701260870759 8.5597638875477
Cd 7.311863059626711 8.413129961463103 2.955707539751178
Cd 4.874325043400171 3.423938375291764 8.230710844450211
Cd 8.339753033182504 12.29030090402424 6.876363856456143
Cd 9.204442141820213 7.059265830048546 4.93195523111591
Cd 5.270894518154452 3.9245223034555483 4.09282627360111
Cd 10.26491838110595 4.840890266355446 6.6631667734594195
Cd 7.202778341472003 8.791097709458066 9.21437949079546
Cd 6.668171457231861 2.143583781132562 6.191016645019889
Cd 2.6993330715493205 5.532981247951469 8.215001010769202
Cd 11.652242698050523 9.209227284195832 8.624618667440256
Cd 9.303514883092829 6.795850420391156 8.67802415801611
Cd 8.745360350281816 3.5145306511956793 4.266587673355744
Cd 6.317827879836348 8.49849020975712 5.841333729083918
Cd 5.641671388217582 6.413216841303974 8.445730446056933
Cd 2.888257406307753 3.6379850378213807 5.917877621460811
Cd 1.8857110367494736 7.983285559136094 9.705140584529959
Cd 5.046628672678242 6.5295371794343335 2.550532018228167
Cd 9.580551842016927 1.9648520944701915 6.838864581772438
Cd 5.622663096397485 11.128122419317943 7.5572100598044205
