21
Energy = -7.19020323 eV
Cd 4.616725471025518 6.345896912642862 2.4314783834562603
Cd 5.242092972778171 7.017226939054788 7.460674103205818
Cd 6.456779184481212 9.589692993873276 8.844129886807837
Cd 7.901033943566798 3.3546860663054967 5.296521272059195
Cd 5.889450205160113 8.071207317910906 4.6328012848210225
Cd 7.250933308580932 10.442956307902561 6.021548466556851
Cd 8.609626240908955 3.5319660857075217 8.388361696669644
Cd 4.263906824691555 9.887540690047208 6.688601004094629
Cd 9.705632632339446 5.373978121283655 3.6185129521479036
Cd 6.8789625756674235 4.248919930621342 2.6401065814377045
Cd 9.087504109162992 8.366341201621458 4.630641900123041
Cd 5.071702027293034 4.940252184356187 5.1718503893821
Cd 4.393127637077246 8.789214054445337 10.833948068143258
Cd 7.927625193414912 6.1354982964664275 6.2484515243700764
Cd 7.647128483032603 7.215367854051295 2.2174979388542155
Cd 8.004468586905697 6.955585765788334 9.07473726811493
Cd 3.460056439908458 4.546217093775591 7.907143594298483
Cd 5.74708923372811 2.6422972718641775 7.275641474967832
Cd 9.529352667813802 9.175921307732795 7.629427567723011
Cd 6.081355137431984 4.693228656851304 9.57910900802394
Cd 3.509993558962512 5.950551381628968 10.683362068673288
