29
Energy = -10.53541596 eV
Cd 7.8015835944201015 7.11792916702833 1.9713873285590584
Cd 6.717255787511354 7.315112955841366 7.831879151970379
Cd 5.521107182293181 5.5515744972693675 10.233956526993886
Cd 6.187091592149438 9.466879643660844 2.869817184063409
Cd 8.158704050912366 4.67069439972608 8.433927058212886
Cd 3.1316985778124162 6.966718082784957 7.623070753025807
Cd 4.828507022691002 6.683222877539526 2.5610375955786586
Cd 6.860304153761236 4.078823062776192 2.910412421391532
Cd 9.87243641773824 4.9579124971074675 6.067622994597059
Cd 6.587187321647625 7.730574330939707 12.060158387452102
Cd 6.294328110161704 11.006306709377638 5.404519707854648
Cd 7.712698041296916 9.527912377643762 9.83443663698415
Cd 8.087222821507941 7.262873078087484 4.93381922411209
Cd 4.126145297372837 9.832398913774284 7.187041470799696
Cd 9.67067825289199 4.9610217570487025 2.938249849410535
Cd 9.75369426602367 8.353643128329987 11.654566734517235
Cd 10.955905252078868 7.880845579338685 5.992744263836118
Cd 4.332575336094498 4.153604683834184 7.900161185557691
Cd 1.9218918026304097 4.525493618724684 6.033034370080543
Cd 8.614058605342496 5.5896715048071846 11.192440018980813
Cd 6.7286138446297565 3.383513052833358 12.181203909192087
Cd 6.162980762226879 11.664201814162515 8.56648029131665
Cd 6.529805470837322 4.6968708257334395 5.899231237570614
Cd 12.250263980255207 6.202175910133893 3.853365918345256
Cd 4.066555150033277 4.168612821721011 3.9782863061717526
Cd 9.77846268530995 7.268281711418612 8.682654944880412
Cd 4.748590214229762 8.61692688397052 9.874916179154935
Cd 8.528092490035245 9.604380197948043 6.834745182549925
Cd 5.080651621906419 7.624347169489555 5.375864969884388
