24
Energy = -8.44106055 eV
Cd 3.3449446568418826 9.58897292415983 7.600930102531388
Cd 6.4066826544311875 6.599438443954838 6.374896889683906
Cd 8.90543505468216 5.43080321312943 5.223548075010168
Cd 8.851722975161337 4.27109529901432 8.680787181585089
Cd 3.8644799917225376 7.30563026352423 9.59412510436133
Cd 0.7787695842169972 4.306557628881337 7.1585182033714
Cd 6.871688965537798 7.129453674745054 3.397797012190559
Cd 1.874326462581956 7.086095008351197 7.143058866602275
Cd 4.193582740567951 4.996491468512126 7.544191807140523
Cd 4.596806912287814 5.385894584561178 2.329087992974898
Cd 2.006983142389101 2.213609668665446 5.386702724754123
Cd 8.258759660685362 10.098806689863716 6.746765212666963
Cd 3.784172961140843 6.766461650179228 4.865698823127244
Cd 10.577507856462725 3.0586137795116755 6.449566319912601
Cd 6.493790936471545 5.798828760810143 9.604377095177561
Cd 9.160169245589978 7.275437185298807 7.965193907090845
Cd 5.365657711902361 9.308006717660106 5.419151779615547
Cd 9.586863651085945 2.30087858194399 3.645395849089688
Cd 7.064532511168524 3.9226598759234244 3.3549687146254565
Cd 7.687361926326094 10.113837803190341 3.6724462740916177
Cd 6.246506300947956 8.788555656866865 8.475352067096093
Cd 4.496079461085875 3.648327577200381 4.803884231616161
Cd 6.860002253837394 3.349156782434478 6.638062846129548
Cd 9.690836843578156 8.224051222319773 4.893157380259434
