29
Energy = -10.27071688 eV
Cd 6.260408924551504 4.7805290545602945 10.208363777044756
Cd 7.026628006384864 11.356468226965422 5.44444394233707
Cd 4.491134625892213 7.77323653201695 3.6887505197613804
Cd 3.9350776885854324 3.522552018100033 4.049526938955329
Cd 4.39294066772205 8.969156990960748 6.7494756855152485
Cd 8.906111465186877 8.143533812574619 10.090558407870917
Cd 8.758589329857921 5.413091931274401 7.945758579064186
Cd 6.218631142516785 4.260456107351356 2.3973615499198324
Cd 3.7018822809894107 5.932482362748978 8.976112976065732
Cd 6.190675044328172 1.8296314398178668 4.926498942686887
Cd 5.672855424575309 4.081288583391591 7.209033530166339
Cd 10.499552547561683 7.982430231628928 7.540797827854754
Cd 9.055964291880153 8.851468817836206 4.899068713058113
Cd 4.341117051337832 10.76061901577462 4.253548873584914
Cd 6.407172846897166 6.775113167788994 6.012143118420899
Cd 10.445325823950817 6.131336068002917 5.152222224952987
Cd 8.174591239472852 4.2951884444732595 4.985238590223345
Cd 1.7153961039979375 7.745578940491821 7.451461360573872
Cd 5.824992318540165 7.872491228188776 9.598707903460676
Cd 11.666984107944504 6.357455434996523 10.08834011115027
Cd 8.762123666281806 2.9815670508654053 9.865534170110946
Cd 6.849352382512486 9.75912298971877 2.794076455727524
Cd 8.909988878973083 5.540248710553524 11.488735181369675
Cd 2.3951929203785216 5.885308350735113 2.865010622183541
Cd 7.455897247238509 9.142148327884923 7.477748617493177
Cd 3.373813741982909 5.6705317277744784 5.939985548671239
Cd 7.409755775529488 6.814862302809325 3.197084885892905
Cd 0.3289641200344952 6.618504197041082 4.919747091078438
Cd 8.163681952916345 2.0883995516952303 7.119465472828418
