21
Energy = -6.97145069 eV
Cd 10.940403678013515 6.126134141663999 9.712682294395472
Cd 8.114752521736284 7.242939868749879 9.625276760141816
Cd 9.913033623645266 3.3799619534302656 9.189629871898866
Cd 10.086094043321237 8.026238189311298 7.373930761818283
Cd 5.2598249236172006 8.371083689594796 9.499033088767959
Cd 5.956113053849801 5.227195705260992 9.099081740072155
Cd 7.704740598667659 9.834375315096812 8.046567362816784
Cd 7.286851792804068 2.8500515343830592 7.858393715116273
Cd 2.418788752866053 8.132702518032458 8.377014872530207
Cd 8.310210004851447 5.655548299832588 6.720254133380512
Cd 5.338120258959562 6.539248281107185 6.551923662548196
Cd 8.327455376040087 2.9420727128880655 5.0071101973762895
Cd 5.289147311954259 2.6273199546605053 5.6111941075226
Cd 5.183215706410017 9.55926033678698 6.557888139301584
Cd 7.686104828957361 8.271603592715199 5.191011560646558
Cd 3.5527192032007933 4.903168744940934 4.811633969419284
Cd 6.681571102738601 5.332310261473451 3.9873989219442176
Cd 2.735373244578826 7.923180703248803 5.262014414175734
Cd 4.972409648507067 9.47302507175238 3.6213480732974497
Cd 7.039329538969254 7.7107005462674785 2.2002892405561942
Cd 4.086968598214284 6.755106390705492 2.5795509241761825
