27
Energy = -9.37159103 eV
Cd 3.9449907308856837 4.672864895772115 10.571570239403547
Cd 7.5297268579212275 6.242092506718342 9.078392926373061
Cd 3.2521073167940338 6.633168533390692 4.259939366883326
Cd 11.111101373371731 7.7202369357724665 4.9763835693278535
Cd 7.985775464037858 9.683059109162429 4.825430040509734
Cd 2.569440298540562 7.247462844166536 9.589487063595463
Cd 10.789536454671419 3.42853373444849 5.523451527036036
Cd 6.275251858236885 2.9387858292780495 6.379956838264415
Cd 9.987718990695607 9.523883941734537 2.667744927882515
Cd 10.294523577866979 5.7860570849918185 7.3587572410819115
Cd 3.9807857562778692 4.163597067170547 2.4155417271211332
Cd 6.272925870626917 3.5107058630655783 9.29411781431414
Cd 9.06157653070635 3.20830532436851 8.222087279113238
Cd 2.490856046814526 9.567990960115079 5.095133130891026
Cd 2.3172659845056214 4.484295385914585 7.919812456194294
Cd 5.218887727058317 8.332921933550365 8.903867508727418
Cd 5.290595489060347 8.684581823283228 5.687668818768101
Cd 1.4797844330097552 7.272543631127714 6.763092802333791
Cd 3.5348400659265877 3.518346647823805 5.36826830836063
Cd 7.007974353026422 10.391218392791473 7.593732163331761
Cd 6.125365849244174 6.170586547689504 3.335123836712372
Cd 8.12387589952005 4.063144341602576 4.385396905610358
Cd 4.960575217896987 5.884249482638169 7.062861017913439
Cd 9.230313537711352 6.525459190896788 2.880492907539108
Cd 7.674620549390599 6.604314180692674 5.954356666794962
Cd 7.976451672176403 9.051518658788584 10.285965199434568
Cd 9.457134697461584 8.634077756480227 7.545370319916694
