29
Energy = -10.08984497 eV
Cd 3.389724977668791 2.333182688499102 12.442936063712537
Cd 5.454363789588559 2.6657570509604476 6.093306714409717
Cd 4.4413691670730415 4.200114070950311 10.28925412812653
Cd 8.91779425864029 6.10548744608091 8.980240589439079
Cd 8.711447885258172 2.3554590222123486 3.259766581769801
Cd 6.844519403634551 3.903444478908108 8.396742087964952
Cd 4.4932030357359425 2.5369221395482087 3.227021312949921
Cd 9.33096670891287 4.958144785820786 4.890674575562628
Cd 6.492826111436531 4.666503759233363 3.9681324681775623
Cd 11.066154094227175 6.383517183039109 6.878501797937592
Cd 4.187354146680747 5.243964946906618 7.475546563870433
Cd 6.985219553383835 6.371459019440011 6.515701664685706
Cd 6.399870589150678 6.345016603997383 10.674829080395948
Cd 3.5556554783786423 7.169557400210649 10.033392912199234
Cd 2.567114155280974 3.9382418760413063 5.0056540936041225
Cd 8.450435073966215 5.135042704283055 1.7328641897705395
Cd 9.957810775097808 8.978599177857644 7.884415478497237
Cd 4.498479101405158 8.380164518072204 7.3352101272829895
Cd 9.31202022073882 8.045485843894502 4.837434484659253
Cd 7.017838784273585 8.649906296136843 8.916913625783387
Cd 4.3611762081829575 4.291478145297896 0.8917428154155388
Cd 5.539428094390669 6.956991958433315 1.6867951616982673
Cd 4.5296050618752774 6.812858388807279 4.692454872404341
Cd 1.6953753345040437 6.739093139658765 5.490553868608508
Cd 7.560241030601203 10.145113507047425 6.405039058275489
Cd 6.419253309062581 8.943456036862955 3.9638479213591373
Cd 2.521263447902617 6.1746756271343095 2.450821746271739
Cd 8.482266163153477 8.082557410523831 1.8742579726387858
Cd 1.2344655577936936 7.943790750255642 8.172620159986659
