24
Energy = -8.59895038 eV
Cd 9.428815198846397 5.308185469933096 7.258601257473658
Cd 5.272337122105188 10.53513410557514 8.913272221976634
Cd 7.793559701636436 8.469075950998928 7.61440247650944
Cd 4.4892876607283405 7.476043123751394 7.960519528416346
Cd 5.596175454224863 5.147130654013075 10.820818765699478
Cd 6.5355362468851785 5.828384678693091 6.596919360605274
Cd 9.635513198033303 6.693942600345534 4.591658566425487
Cd 5.749977477339912 8.228726936287808 4.800065558084717
Cd 4.2637836723218925 5.746247877538379 3.576018224322835
Cd 9.812635139217543 3.601420805049191 4.61502682813359
Cd 8.418789812925748 6.043916558660075 9.92373392558593
Cd 5.060562082681458 3.4373813767707095 5.4750487354720105
Cd 8.850341528981906 1.991560035277095 7.073164970338451
Cd 6.359147259144719 11.081032235858267 6.17490490593048
Cd 2.314896642936367 4.615276002771489 5.691808017367095
Cd 6.973886715726796 3.614006647453492 8.618088438414578
Cd 4.040769512020882 4.519858011579789 8.225046610364444
Cd 9.664618705986166 11.13586574111088 2.5731040569814465
Cd 7.310673898559506 1.8317434096304825 4.548438650691454
Cd 8.509492039057065 9.39991683910329 4.833872311206679
Cd 3.4430676683469126 10.329037515028862 6.436531036931874
Cd 2.8294334818673263 7.556082144333059 5.543190285931348
Cd 6.252855014905367 8.048324643925866 10.218816309852885
Cd 7.180853262051934 5.148715132843334 3.7039574538152453
