21
Energy = -6.86859646 eV
Cd 5.925869582865671 6.654217003241692 1.8121104098146281
Cd 3.746769728356055 2.3094358565028137 7.589464148507427
Cd 6.308058434915583 3.322533579824831 5.828465452047577
Cd 9.327827995698346 3.9990843594364462 6.186216713772196
Cd 8.780551017042661 7.598954296039145 2.585387276471347
Cd 7.840246602224277 4.761406427188999 3.6282229147700558
Cd 6.320068898639288 2.978109449602567 8.950326041159325
Cd 5.725765683791677 6.76683054393871 4.92192187586699
Cd 8.863348185582497 4.614468668676966 9.16721430402699
Cd 3.7383690735217665 5.0553957483385465 6.446662305415007
Cd 3.5885582839291432 6.892354446382885 8.873278351500465
Cd 6.674490397920046 6.113839249538526 7.680819255589255
Cd 5.559781756638188 5.288483645529006 10.751108921361466
Cd 9.039202038712018 7.141110277143143 5.540245484257827
Cd 10.90899467222435 6.325383226927006 7.7428954259471094
Cd 3.1023756469623067 7.981597917129707 6.012882726548967
Cd 6.707539393162512 9.760191897248514 2.229586094031877
Cd 6.089970941411544 8.382793121608705 9.674983602551002
Cd 7.180174129832372 9.031899301360527 6.794646916111397
Cd 5.105136407222901 9.884839187354734 4.697287485971332
Cd 4.379809775819093 10.049980443459733 7.799182940751611
