29
Energy = -10.6429968 eV
Cd 3.4608826523849143 2.24996973119531 2.9376699370339914
Cd 3.5613692806844455 3.6199484157850077 5.574843062690725
Cd 8.510163181574677 2.474055185889186 4.369272107251781
Cd 4.89093408729247 7.967256761972428 3.7928945391083646
Cd 7.408903271865726 3.233489906018066 8.870581523260695
Cd 6.110273802417467 1.9337750622867984 6.331588606908128
Cd 7.531306627317065 7.606090304898638 5.5088012398167026
Cd 7.506142398099271 6.525512116921662 2.3623491634753853
Cd 4.11196949532049 8.368139398928504 8.831722678768967
Cd 6.093890962863362 0.9125729949686102 3.4750859897877557
Cd 3.2473546544199756 6.482972420900427 11.17022534440116
Cd 9.76173034822618 2.834983898944264 7.052331438036847
Cd 9.292947351293364 8.776122251746378 3.4352866308752685
Cd 7.760760584859508 11.47475972115478 4.07724953565973
Cd 4.744283164117582 11.113575033383368 3.804427854844564
Cd 4.1602588367716855 5.196771919259152 2.8408910873687954
Cd 6.459263003387229 4.81337447750844 5.185276766027215
Cd 5.784938799399981 4.703364352050749 10.93053012250204
Cd 5.94018912579866 5.956685584012928 8.012695927450613
Cd 6.752146885782431 3.6885802274786843 2.2837580083189484
Cd 6.691678368981388 9.50102721313858 1.9293462611724304
Cd 7.670794685400392 8.381847972620605 8.846986145097421
Cd 2.542005191908297 5.456615365612767 8.471023535934133
Cd 5.200518527637656 9.58414985990747 6.380175739753983
Cd 6.052807059817297 7.6856160045187325 11.232218026464876
Cd 3.645265861791549 6.669580538102703 6.048304336738196
Cd 8.791307750003835 5.607252120383091 7.271626830490612
Cd 8.29167571836492 10.269579436554862 6.711993757085097
Cd 4.389745889468014 3.1025194824391282 8.539937424889578
