28
Energy = -10.32002545 eV
Cd 8.627428805396425 3.02983377554279 5.790034397649469
Cd 2.359232302402864 7.243714251235269 2.494574343235086
Cd 4.204750332813377 7.657404725938778 6.305321265879828
Cd 6.034787542058615 5.063772630247876 5.94089737092835
Cd 2.3349027776149125 5.450224561346085 4.972629764696092
Cd 9.779118027848265 5.806447970010119 5.637267470789489
Cd 7.406019461655383 7.580917408561616 6.721447392002284
Cd 7.73097874202991 10.64639574636528 6.807773345244048
Cd 9.651042178114261 6.588889087661912 2.7616916184031193
Cd 8.981175249492225 8.843470401625114 4.5494269353528365
Cd 5.990789918883421 1.4750150370678408 6.709188863588051
Cd 5.380393939417786 6.413148366079376 9.589001750577802
Cd 7.506226664651298 4.624782151266686 3.2063277809028317
Cd 8.273486602551694 7.3663722877715125 10.23195632712499
Cd 3.4697640236469627 4.995148600326356 7.649674056314776
Cd 4.533393358480165 5.044828599330722 2.9035785132612197
Cd 3.8688838373497854 2.7561301828404807 5.032847246786502
Cd 8.907949057917188 10.131722857776003 9.495648640196933
Cd 5.690386242212771 3.4140671278628507 8.9727702537378
Cd 4.675461361460814 10.719048494442816 6.293727825417499
Cd 6.652113297781731 10.615091931273176 3.9171433058202907
Cd 3.1197588929708986 3.887458436780814 10.686969108362492
Cd 8.255861898633075 5.124849668991313 8.298592398357544
Cd 6.654545320607408 1.7504502729050844 3.763589694808793
Cd 3.8688896192598308 9.39921872567881 3.7629375316244436
Cd 6.271583005197401 7.400369112903507 3.7809668936002923
Cd 8.396659209775237 2.039098801978967 8.687926920743285
Cd 5.6312810517482 9.24055096435563 8.679242141073157
