25
Energy = -8.10170021 eV
Cd 9.31580004296387 3.6491783787351046 6.92045840839281
Cd 8.733842226955792 9.26185103681901 8.665112500625852
Cd 7.351856893055985 6.272811232002187 1.9412764279326062
Cd 6.052281041601686 5.006124471317422 10.725570142332579
Cd 8.479776152681925 6.082950788032643 8.685038284931299
Cd 4.428620644261381 8.936239595399535 12.332427764818837
Cd 9.077167553915457 3.306559138046463 10.154033382337795
Cd 3.723800575502835 6.8244590493314385 10.03291682780182
Cd 7.470823426021977 8.404854988129793 4.800546925825687
Cd 3.101268713413965 5.757158915103451 4.5854696172722935
Cd 8.560473184001594 4.001380767608391 4.050383478735979
Cd 10.315414019783812 6.405541309340656 2.6688239345473175
Cd 6.530626687487547 3.513998499930624 8.159683808593465
Cd 6.011938792441949 7.6873325916555535 7.441306618070423
Cd 9.838642844856356 6.469648153961792 5.712691142475736
Cd 3.4805294623688954 3.5318683412253593 2.64968617817668
Cd 6.637958395855498 7.969421645094329 10.379096754571025
Cd 4.115622580861426 5.169362658310377 7.364267647618242
Cd 4.920962518249403 9.984187283464287 5.735907021348428
Cd 6.2149396618074375 5.57315391573584 5.234430099090704
Cd 5.016981886042591 7.679366849885236 3.178272535088129
Cd 2.940869077439336 8.009901644213386 7.337434981856371
Cd 2.4754671972556546 8.77037293395862 4.419335611015944
Cd 9.989889954175226 9.552246163701565 5.974214011345354
Cd 6.383789729042658 3.3493729110408696 2.020959157238552
