25
Energy = -8.27767907 eV
Cd 10.025757950997628 9.994396518551234 4.972486909106338
Cd 4.6631644234182215 9.90011245627665 6.785097626975007
Cd 7.784711161314507 4.394730424262045 4.678417726988359
Cd 6.903293263560379 10.157513998529724 4.82022442530966
Cd 6.223175996405258 7.304422586843906 4.551216994898796
Cd 3.1034251832952324 7.579709859105149 7.675219865755595
Cd 10.122157310786033 11.33755355750612 7.719867985054079
Cd 5.158923856826878 5.323508061358571 6.702989980904982
Cd 5.819536224269193 7.488969550689261 8.946578605577518
Cd 9.955543976628784 5.226813282079265 8.834290275106982
Cd 9.873863815943794 6.644093394534332 4.60257707540196
Cd 7.886713779774464 6.638758233418173 6.94177501335002
Cd 8.04252237179085 5.778485380111145 1.9668883050621755
Cd 3.299199469265978 6.992728095479223 4.753909419606589
Cd 5.506502822399544 2.450160891853122 4.159561278983123
Cd 5.050345743428041 5.016834659798989 2.837055300121617
Cd 5.074363942479901 2.29973883972866 7.046674569195287
Cd 7.093060444494565 4.84321654507526 9.852882374273817
Cd 3.5358831641090402 6.111076953455512 10.391916668549356
Cd 7.610107592932737 9.60021427349681 7.779953820924389
Cd 1.6330065668766158 7.26892734188109 12.530636626593493
Cd 10.490458471258485 8.042818695230402 7.444820582795059
Cd 4.2943233498534505 3.388279755870218 9.66143548479552
Cd 8.441739093663818 8.714570382748374 2.674295146338123
Cd 8.142613742806333 3.236759980694627 7.403621656912393
