20
Energy = -6.25215033 eV
Cd 5.364517896184968 6.534022366952485 2.4025424321957014
Cd 7.865863825653522 8.690927860414424 1.7292210769896303
Cd 2.4057087053188555 6.784352574445257 2.548278988791549
Cd 8.184104998715412 5.859030726440327 3.1872557100606045
Cd 10.853683542225458 4.640200707891477 4.0201844821759
Cd 3.387925082952881 4.136187118552957 3.5349112722994205
Cd 6.6707374105897435 8.288601994117839 4.725860183401302
Cd 3.3594520401441024 7.908791719287303 5.074114421745629
Cd 8.493043886248602 3.9201475091939866 5.7853639084699875
Cd 9.814913388495265 6.987558396310185 5.6815006309124065
Cd 3.893342139078593 2.78449826978843 6.204509517185056
Cd 5.760178960478522 5.166150705484904 5.3902019257825335
Cd 5.098690320115358 7.653526710353141 7.46394870917544
Cd 2.850834289948883 5.52899283285861 7.042311482589285
Cd 8.227343459367896 8.94733520999439 7.268901851984488
Cd 0.7230651118000475 3.8817940390509102 8.876593187469796
Cd 7.78789522311515 6.010231217376451 8.067339852555031
Cd 6.455893096210666 3.2720339289954232 7.9325165471642265
Cd 3.7334985863393193 3.2467045411844837 9.348709356771371
Cd 5.187728492973736 5.877332027263815 9.834154918237612
