27
Energy = -9.23304447 eV
Cd 7.598122845329612 8.758521720664737 2.612808656564277
Cd 7.970299783971236 11.709862905102609 9.695984863713791
Cd 10.289292663258696 8.477265450158136 4.034559163275413
Cd 5.764790902601569 10.127631172040426 4.5864122295659095
Cd 6.248985476449921 11.51115454432412 7.144501278328755
Cd 5.156022289341105 5.685803239983678 6.390958492392621
Cd 6.584533756581511 1.9829973778342416 5.58760456104027
Cd 2.819595104018282 4.991646083509007 9.51255590447338
Cd 8.012228422266842 4.410634313530323 6.635016914690101
Cd 8.755097780226247 5.408452936940782 9.35518957917031
Cd 7.699625051322117 6.474447236219774 4.46746101008754
Cd 8.771802124835817 10.372744584699538 5.848659910869261
Cd 11.08960727242471 4.699303291287024 7.136332362184002
Cd 3.4705190663392926 2.0105649258600917 4.681305041260183
Cd 5.959489569248559 4.4502796948925845 9.240452018359628
Cd 7.633885006805548 8.12099790328977 9.842302168915639
Cd 6.083550237626561 4.071978853960409 3.3373660079338383
Cd 4.708040821329591 7.307013671685815 9.234322720726945
Cd 3.3015748030658205 5.155398019594726 4.052755595118192
Cd 9.38184621757983 7.381755432950599 6.903615244022007
Cd 2.366904179083498 4.060002007730136 6.660539353013657
Cd 5.239466868800762 10.1399825412771 9.633542255176112
Cd 9.958297425264277 9.731924737104604 8.719948355131681
Cd 4.808101350367468 7.601403434490157 3.363075216155583
Cd 6.399194785936589 8.349759418469743 6.913788479645025
Cd 5.582994248953326 1.0495009414439822 2.703980076367165
Cd 4.482924866818672 2.0957664808040137 7.84175546166634
