26
Energy = -8.70471167 eV
Cd 12.099550656047896 6.112207592417701 3.495507499606893
Cd 8.94711521533462 5.651131652091928 3.480477619458481
Cd 6.764428854022343 6.665298426075243 1.6978639491846113
Cd 10.30643450526292 5.307714039318841 6.192555831064907
Cd 6.101927127089637 9.705216197182663 2.1841062101553987
Cd 4.1047135745478585 5.55508558050337 1.0602351286214344
Cd 8.984873471048532 7.971138282998146 6.40168969298247
Cd 3.4034066103932408 7.880845201611468 2.861368089902067
Cd 9.015618559240414 5.543980235955425 8.98445354430688
Cd 5.737160263600524 4.576479968449146 3.9693519015605307
Cd 6.59334772015541 7.4983523540593096 4.671612343406736
Cd 8.146366291260184 3.3956299841211486 5.553827519162544
Cd 2.6430949656852802 4.92600203810928 3.598895271327308
Cd 6.975978595321009 10.353488857984196 6.641522959921574
Cd 6.851293974752745 7.799943324354591 8.594392521905268
Cd 5.479404242963571 2.243211268769818 6.431239844613307
Cd 2.6667252122411136 3.6007191135371914 6.264116045060574
Cd 6.204316443935329 5.2209250992201195 7.077863790368601
Cd 3.747268093279395 6.753042425304934 5.934896737938451
Cd 4.501782569713814 9.717437555775712 4.951923731174469
Cd 4.203846774173744 9.275773331952616 7.927158064705506
Cd 6.642292394089097 4.275880044995706 10.222812162739954
Cd 3.015639736967214 0.6279021924143098 7.506697517956425
Cd 3.9392139008055764 3.2722927164806612 9.008499718621144
Cd 3.9675818906930806 6.445284435453691 8.993852290962428
Cd 3.9762198676160394 4.953412678267029 11.64554952282589
