20
Energy = -6.05623324 eV
Cd 7.534156951854779 5.324545064208714 0.5995404462539013
Cd 5.1769138529994745 5.385892536584666 2.6851998034873676
Cd 7.368552177157846 8.059340801187558 1.8522358722661514
Cd 8.005606824611078 3.969698280998599 3.2317225104850276
Cd 2.5529407694661894 6.966297409662629 3.4144360950203945
Cd 5.042516342414311 7.980381338485782 4.739719677287431
Cd 7.5362237078835275 9.646289070745803 4.500246550017183
Cd 8.047990937194987 6.668498818261964 4.850312535936484
Cd 4.232055936777363 4.863405005429134 5.744805149123843
Cd 9.72457852938647 4.3315458291998885 5.966887703437035
Cd 6.783282021160552 3.180643600469709 5.833365311337286
Cd 2.5240372393288255 7.347753530256118 6.712518094663509
Cd 6.738209259183412 5.350797470430176 8.008457067463672
Cd 2.5015021665580894 4.950437260494313 8.553123753556841
Cd 9.568076107587283 6.7327527940456395 8.019021015027857
Cd 6.749252149488474 8.318598310089328 7.41370749035845
Cd 4.878618523480499 2.926858064038803 8.233903743332622
Cd 4.311147821807546 7.461715592149914 9.217068735249832
Cd 4.777333370361625 4.677295294002184 10.763171973020485
Cd 6.993115410638448 6.903364028600009 10.706666572015065
