38
Energy = -15.68800723 eV
Cd 4.590949313926545 5.276399497436333 10.559576843465186
Cd 3.8240178443704655 8.112262027570372 0.5486429868537341
Cd 1.8438309330207252 5.911271016594077 0.8657262163823038
Cd 6.559651273473904 6.897818223877001 1.3948789897607412
Cd 7.659235939764002 1.4712729849564536 3.2377493967716457
Cd 3.2256412390964386 3.396841679770467 1.8923996934052987
Cd 4.5187338212267445 5.843220667648541 3.548898828468457
Cd 2.1891088565081334 7.804530509857057 3.1901377793942975
Cd 6.49544212956821 3.911442053335952 1.9417617391597943
Cd 4.990079798284352 9.024726489905493 3.1718123288371936
Cd 2.9745056401684815 0.36310055534881436 2.862610089254278
Cd 1.3690929439407977 4.963616505213579 3.7176408812405164
Cd 9.151249526573427 4.899403240284635 3.2495351805339863
Cd 10.123128514807489 2.3125180361111872 4.5925510220029135
Cd 8.646167125901254 9.209557158366966 6.257622934652501
Cd 4.894071888163835 2.5347243000530173 4.246705522643906
Cd 5.8648097060677795 10.291715947314895 4.92826177454502
Cd 7.396997798084274 7.3837149774083235 4.188115694258938
Cd 3.579198580879279 4.504142081759366 6.091900802567426
Cd 8.02274146218629 6.791171600980662 8.075829836881619
Cd 1.212463706584803 6.385733850472481 6.318358971655444
Cd 1.4723055886376997 2.365920448309164 5.008105301843624
Cd 3.158529681598234 10.536074943771814 5.971006462558514
Cd 3.1442834635262935 8.720073129846943 5.8275693691200035
Cd 6.903071980455967 9.84952831288805 8.509182044810577
Cd 9.565382445908387 4.27005492966408 6.701693390479952
Cd 4.730513060088038 2.155196748420915 7.699545058382908
Cd 5.816682872116404 10.291715947314895 5.701632350055066
Cd 10.188547358625534 6.806525366630746 5.394952130846328
Cd 5.385656028936655 6.810295009053195 6.492947221193055
Cd 6.813386047274123 4.535295734436734 5.221418323725753
Cd 1.4002966403095938 4.334605679764447 8.664532636737361
Cd 7.636369447123792 1.6174353270960335 6.38035940019016
Cd 4.237521836765206 8.840267128504054 8.660239161165174
Cd 1.7212128892094103 1.6299781509912203 7.888321294462023
Cd 2.1042312478300067 7.07525503936402 9.191481217936541
Cd 4.418768724461043 5.122568255357249 9.062059135068301
Cd 7.022783623170348 3.9778536082875555 8.283482059990988
