36
Energy = -11.42260642 eV
Cd 9.884687690787933 5.218724808371522 14.456352253806328
Cd 10.327595921224857 8.566750609380039 14.609579724819211
Cd 12.567730782223242 6.623388581238152 1.1942563534966704
Cd 8.111662574962052 7.119625697932332 1.9002302750026718
Cd 10.34963521519529 5.375935680983658 3.1958232154105324
Cd 10.521510885186826 8.501102528204498 3.4063963810376006
Cd 5.659642220532616 7.132446249379641 3.480709444029037
Cd 6.176699430199896 4.947009861693666 5.417228086334509
Cd 9.050164189849431 4.512496818342822 5.614880233762655
Cd 6.3456583590054105 8.88437099680566 5.678904204192481
Cd 9.256968663860212 9.27015994953042 5.913129025144191
Cd 6.584304585613395 11.786642753009863 6.078874158439521
Cd 9.369405301202411 2.5010942446159588 7.716924786770772
Cd 9.768816723148866 6.782177468212774 7.351672792030963
Cd 10.588531186337434 11.018879934558901 7.852174020901419
Cd 5.940113773249252 10.095828048605886 9.731685355698936
Cd 8.40164666127627 5.605398643991456 11.71162992924745
Cd 4.720394125938002 7.82659821891785 7.886420759953449
Cd 2.780876688658626 9.14229730049503 9.798395712640634
Cd 7.448691830845338 7.288885408348176 9.139581071641725
Cd 12.707173911632509 6.87425138062062 8.13045237076082
Cd 7.925615666007643 12.128176792277772 8.66088858555482
Cd 5.221892497589472 4.959020614858686 8.1465703325102
Cd 7.413409548924459 3.699269764720314 9.633622463839556
Cd 5.9201749204204654 13.523789371254361 10.339941944606217
Cd 3.4507609615053907 11.811851487109019 11.080935344108918
Cd 9.099245684206728 9.807062116409915 10.382646650961478
Cd 10.813438649679757 4.272792211387923 9.632810165506516
Cd 12.457971482219905 9.585970863438495 9.587386984762382
Cd 7.565111322182061 10.225451516710645 12.902724513438542
Cd 10.753152753486626 7.262861338336868 10.512583165014297
Cd 11.28133872220394 5.085430610439615 12.720488334342285
Cd 4.243689197563057 9.127874308972418 12.524128934978352
Cd 6.6203290986910845 7.379280255550759 13.19055890552686
Cd 5.657349980295837 12.534253432551113 13.206147718481896
Cd 2.9699520486938784 11.478193387343506 14.456352253806328
