39
Energy = -16.18742597 eV
Cd 7.204952751052375 10.002291436617572 4.561104373249243
Cd 10.182712721797667 11.448996521754262 3.757678113314823
Cd 10.221459347265467 8.589154500847823 4.192225337266244
Cd 7.738301186608947 7.15115620294801 5.333187994149835
Cd 8.2438208758714 12.738125356959593 5.5474477552516985
Cd 4.197665727587008 9.968865331078007 4.809556253962435
Cd 10.65226084944396 6.673905166133865 6.35718404671139
Cd 5.412639242402103 5.650561565035323 6.388321785360819
Cd 9.196565154905466 9.598713576634584 7.03442866784151
Cd 3.224770041614519 7.500745910298295 6.024877641955504
Cd 8.02155545510209 4.231923047285237 6.316406572850482
Cd 11.015239730772866 12.06524460874996 6.606957245802277
Cd 10.77573525367741 3.8611372365203036 7.357307430635883
Cd 13.135868876691084 5.5827023420870425 7.89525535954706
Cd 5.8052988742329505 11.554487600261881 6.838246831130376
Cd 3.5364346592685316 9.792980333182134 8.037207916433891
Cd 12.87288467045629 10.420943211522168 8.109799862992267
Cd 6.3366110938755265 8.586777780419347 7.731558207422641
Cd 8.388175768265238 6.60195816006929 8.430017958300715
Cd 14.495029032592365 8.019705104858726 8.67456365013826
Cd 5.883017037724576 4.490522422197096 9.076639569830084
Cd 3.677882131055351 9.211320727181295 10.942570831375363
Cd 10.90463275276379 8.212801038901741 9.084226614377764
Cd 10.929386162812964 12.208837444942592 9.685230122216437
Cd 8.219627009585732 12.282636580024318 8.525634318305572
Cd 8.228738215716056 9.440816143807252 9.887545441556322
Cd 8.545042910620227 3.0150762625459415 9.059154539403282
Cd 5.565744313303526 11.423589984554896 9.803743843332123
Cd 4.0017058395404455 6.791074397484276 9.003499571862136
Cd 7.98855656063929 5.063421382362162 11.125330607326644
Cd 13.26202900423813 6.603803992957613 11.090383180250667
Cd 13.600403790989265 9.662311097275715 11.155417175111525
Cd 10.732230330634138 10.059993547732025 11.647443023502241
Cd 6.051236594574045 10.187693632901325 12.496237149422875
Cd 10.733291203798453 5.324280177594874 10.153406255065692
Cd 8.31700829376605 12.221620832456537 11.584231439596778
Cd 6.241581598221334 7.468605211613042 11.016594905521268
Cd 9.189737071340767 7.522034927259483 12.239139288795897
Cd 8.658267004519772 10.157284342272192 13.808338258156997
