31
Energy = -10.43965447 eV
Cd 3.19889747290625 9.558322258537503 9.068492648073423
Cd 9.229056718686504 7.049687540376002 6.017738592879779
Cd 3.6232756222658664 5.283405643416605 3.5538884674881657
Cd 7.396757008252299 3.84362026508041 9.616949062336365
Cd 7.935708372840189 7.307206353614171 3.086564567136709
Cd 0.5599599123714032 5.568347620078666 3.108836384524505
Cd 0.9350756687253983 9.745412302823475 6.636201917903734
Cd 3.7870361252194638 3.2178193507929698 5.608719062272598
Cd 4.322457386463934 6.724547156017759 9.797761462888758
Cd 6.098629451286303 9.17109646639392 10.303516253538255
Cd 7.098990095153874 6.667007204752863 8.393363469017672
Cd 6.612064664116192 8.368351156446908 5.747703041605842
Cd 9.11431488028788 5.601796241405394 11.328439476339272
Cd 5.167551043338653 0.7606775163948022 4.836294418309618
Cd 3.680644638157681 8.477670613218642 6.216402314553334
Cd 8.439891582915145 9.392253277037334 8.272013693577033
Cd 4.823966550710067 7.907825948968205 3.3699817460457737
Cd 6.399437681423879 6.513716234903361 11.943373955622251
Cd 8.913878908463984 3.7559756554851167 6.157862107886618
Cd 6.7353805282055665 13.184401396707129 6.224676446871244
Cd 11.63340438118838 5.1898907843405295 5.9903332984729865
Cd 4.5651465039492 5.7061464315240285 7.015714035555876
Cd 5.684137729174397 10.592507932712431 7.574306544380228
Cd 6.237522791492978 8.47967486655836 0.6882318144297428
Cd 7.696249544856508 1.980216224479298 4.06524452056869
Cd 6.5107702714664395 4.976179153207677 4.761857558035775
Cd 8.706454536211476 4.307722182726954 2.6285063907177864
Cd 10.807584486905327 6.2293808822991785 3.306662056326338
Cd 10.032141320645785 5.31020961335858 8.545878812753577
Cd 6.201819559572968 2.6082191258209497 7.307456564999552
Cd 9.76114741351743 8.430065451293107 10.73638216566027
