33
Energy = -11.74567153 eV
Cd 6.049179650334582 2.561478050638721 6.557882546613327
Cd 6.3819087843432 6.511164625232211 5.760553980876227
Cd 8.433421409616097 13.289515250035686 4.614377879185817
Cd 13.740430723174072 5.862813370966612 6.852637857099347
Cd 8.181105930746202 4.5875826919768015 7.19538417239753
Cd 3.919203862566266 4.594021307903374 5.526431603562234
Cd 9.147563953668048 7.4493753188688325 6.296199742906369
Cd 3.6661716798473782 7.602444972772387 5.187456092433769
Cd 8.746366928822402 10.399935636254408 6.5912327043635
Cd 8.814339067460912 15.340986277632897 6.991151762365288
Cd 10.631647568661714 12.901933700494755 6.834209777077507
Cd 10.958402338696779 5.33102392397548 7.774108813321979
Cd 6.82087106409574 13.045289925288367 7.27468505274284
Cd 12.055854050675293 8.316575931318317 7.50788186910557
Cd 3.6538749942704594 4.140926407814895 8.432741316200643
Cd 3.2824644088949926 8.874638653917074 7.812901427410055
Cd 4.906093892691325 11.227456162255717 8.442116241554752
Cd 15.679189531541583 7.522519178906946 8.47494814405092
Cd 8.7590435273647 11.749474496527723 9.40626752287275
Cd 6.479314108987567 8.696999628309431 7.903617516867594
Cd 11.861539135607204 11.053204255567945 8.675232007169766
Cd 6.057368916175506 5.875304631987723 8.914434612295754
Cd 13.101344937699825 6.32167227293024 9.862295010740143
Cd 3.2769688828121897 6.778320977199936 9.891843647903846
Cd 14.63923928138018 10.121287513660857 9.428993655634512
Cd 6.059215746586201 10.628039546224993 11.128629924158634
Cd 8.914886385996176 5.680267257876513 9.974508968457025
Cd 9.307269334529432 8.631603648523011 9.12481410786554
Cd 7.010171952857424 7.726305246048272 11.085394096040766
Cd 11.823525868150105 9.122040526102674 10.944940701627251
Cd 9.02557671809302 10.12498048252483 11.90911929327318
Cd 4.2209685900165175 8.265283778510382 12.26646305444103
Cd 11.05513792427638 6.325195502391458 12.01620604802367
