32
Energy = -12.81480119 eV
Cd 6.211413501621647 2.2510518758048645 8.155528123796271
Cd 5.9235073732092625 5.5586421920069915 10.544237710141013
Cd 3.9592187524136797 3.8518710467434345 1.1657458543848958
Cd 3.3154519948617036 6.398871250239963 2.8110134465794188
Cd 8.876703831097576 8.891572239116103 4.548667238964651
Cd 5.729579081543981 10.606133067541426 7.955703153182079
Cd 6.198744079110686 2.407891580580392 2.3980640025934594
Cd 8.375712811460838 4.065144224166738 1.1909577844490158
Cd 6.93613226122034 10.936092264699147 5.253595570694984
Cd 3.273545496586177 6.287829788056214 8.732712251115275
Cd 9.066761082797399 3.336019053564254 6.985915541971116
Cd 3.3525685687038487 2.7620537480471783 6.877350349421914
Cd 8.620181905664774 6.681156151506754 8.900285451766559
Cd 6.032986823086822 5.953510948073956 1.5376485596130054
Cd 6.084122343782881 8.451934327032838 3.289735534067178
Cd 8.466121852064822 9.342391964105609 7.502184337564776
Cd 3.536107761028506 3.5191010939683416 4.08434784633763
Cd 8.831730820201926 3.6076551514637583 4.09695782610704
Cd 3.0351645801903397 8.920869390357378 7.4429607863069585
Cd 6.225769348869646 2.3851815668456777 5.307559534912241
Cd 5.791523137270693 8.092169257067248 9.225262932729642
Cd 8.655041359690811 6.52969689591332 2.8911613625608803
Cd 3.332141901539773 8.837954421086609 4.344990726136461
Cd 3.0747118989868727 5.939749066791481 5.802655130392735
Cd 8.69747493324555 6.226114236000637 5.961760176087451
Cd 5.803083972584058 7.776025360617505 6.183714273815986
Cd 6.042062451943036 5.344047246066062 4.527476232586969
Cd 5.995352515497255 5.161837978051618 7.441837316578951
Cd 8.397545357716044 3.835601795455993 9.793121285697898
Cd 3.579103785577314 3.553037817166372 9.664089607515855
Cd 5.995976185503939 2.601892023761143 11.07629078309506
Cd 3.98994078190363 11.292381052216502 5.711952495315764
