39
Energy = -15.13857986 eV
Cd 8.321492900661651 10.453166976067712 4.030229074115671
Cd 9.607675031523756 7.870095623444208 4.819194145859731
Cd 10.255677662200737 12.770451792502179 4.0256267629932685
Cd 12.78056423692437 7.6318398452891545 5.712245459835664
Cd 11.561849802274446 10.350891874240808 5.360515137920072
Cd 7.679581997829835 5.877165823115066 6.447702886611713
Cd 7.187101084350378 9.01106107456382 6.588785531986323
Cd 10.342127461267998 14.580303773354274 6.390252290914781
Cd 5.0985460442585415 4.122832735710743 6.29891238437264
Cd 10.17124850851814 8.615774059700696 7.7016359693789465
Cd 10.565583546866266 5.217023544250785 5.782249819791691
Cd 14.014138926467453 9.927307185426606 7.2777629176777126
Cd 12.326956551923487 5.815240504568724 8.092823677190363
Cd 12.151537441030184 12.333546152776458 7.628000360424803
Cd 7.810755810661846 14.037871052335573 8.234867819959254
Cd 4.941809412546408 7.082759694213843 7.313043835764683
Cd 8.952375105640177 11.570237105679059 6.8965346776722045
Cd 6.4705685556992565 5.44387494822917 9.406618535208805
Cd 10.331782627806371 10.758490686186333 9.725601086692503
Cd 9.425980701294483 5.702110903755446 8.865961072246803
Cd 5.442458970990372 8.504335808131865 9.9384147667331
Cd 6.928029180469507 10.979619875696343 9.035541807449945
Cd 13.62233004499413 11.12126810135722 10.048217864750272
Cd 4.974229523313378 6.057773926308054 11.873956625287484
Cd 11.722012994239336 12.93562589465324 11.65740939914308
Cd 12.551010209970647 8.416361826606062 9.604501139335166
Cd 3.2132412453757837 9.055752513610654 11.819089236583476
Cd 10.810610591395944 8.4754636235481 12.213474502511904
Cd 10.580076764615121 14.315750774831269 9.378569251854476
Cd 8.380286160882077 12.735709604880206 11.04970122732416
Cd 8.432101315281157 8.395257635331628 10.101472924452008
Cd 8.865087156256665 5.9270793249352245 11.87121509371742
Cd 12.837827792739866 10.486929938081124 12.869730031140646
Cd 6.498071385513786 10.532346277700261 12.219093328112985
Cd 5.145658331940925 8.22005066156419 13.952174155082735
Cd 6.983806957708659 5.6393228817617125 14.144739877339513
Cd 11.678012986452648 5.858862453334484 11.04414395217203
Cd 9.650853394150742 11.121342984508836 13.251391035660328
Cd 8.181249429593205 8.543408383377809 13.822908180360729
