34
Energy = -11.8132325 eV
Cd 12.320695549611452 9.112747567630572 2.211576617107602
Cd 13.609545859265081 10.406293685664375 4.866945585255504
Cd 5.41884164470644 8.350340534449664 5.90918952354316
Cd 11.990838522742122 7.883581656184553 5.348310188279948
Cd 10.18206998461936 10.078425098026091 4.234643544544943
Cd 1.1145690847303353 8.646053018038387 7.5497440675044025
Cd 12.840645717977695 12.577472112851096 6.8167655226918455
Cd 9.501452827361893 5.218782349132857 6.601844273897416
Cd 3.580869466929324 10.369882822951515 7.068394874475075
Cd 12.495086397920025 4.983051485818425 5.907182023893353
Cd 13.201958281551795 9.052623554578483 7.917696767227495
Cd 7.19427401628178 9.370368569942833 8.09319769471399
Cd 6.617170477516573 5.665108792307217 5.444025346714351
Cd 9.860355727916671 12.434499986834894 5.948304763534432
Cd 4.936760702188828 13.004495016036687 7.5776753888317785
Cd 8.564475131031312 8.080606962189604 5.666018287316991
Cd 5.106681766450478 7.183930905083504 8.80860247568231
Cd 7.080396096609371 4.927986483491951 8.369341722013692
Cd 7.778869522103282 12.264905365392298 8.133500238587485
Cd 11.62802106347107 4.942809075208288 8.874549763874853
Cd 10.186485867832266 8.178166172300285 8.280772743070663
Cd 9.585002855502745 2.714618453612347 8.850308859197915
Cd 7.901141320377978 7.390301787771487 10.208360558745934
Cd 10.836520253439323 11.087358466315393 8.563192705608046
Cd 2.7331081746738666 8.787639073854816 10.090022933412579
Cd 9.076657579653066 11.713572398424452 10.853651587922391
Cd 4.718823111637753 4.247858683735524 10.352858898207533
Cd 7.409874609891414 3.1434613363527664 10.865873546053265
Cd 4.675106387074978 11.120202231175602 10.033957890158957
Cd 4.061974895034751 6.765160481553916 11.80907347911483
Cd 6.851593937595491 9.983720426976452 11.58164114756872
Cd 10.89825478944887 6.846746074323379 10.999127388650379
Cd 8.667874727611363 5.340082816700422 12.33801054323226
Cd 6.613717823216125 7.3668607290631565 13.065353223339983
