36
Energy = -12.88035107 eV
Cd 5.819485485918795 10.942240490552129 11.628611735551749
Cd 5.079892762129344 2.477358611250325 4.535991944054169
Cd 6.597321549747607 2.3158139515794147 7.147413712340641
Cd 3.0095185464116687 3.4672931112437966 8.675559219780586
Cd 8.604802172135123 11.623656212842961 4.105376730492945
Cd 7.792447142288167 12.45576345416008 6.992641792809972
Cd 3.493373278041231 10.003875759900714 5.84467445823086
Cd 8.722052273018207 5.1420134585802115 11.866207716736877
Cd 5.358753798421072 5.146730203583766 6.425909958770068
Cd 6.270696492504077 6.7067328905208425 2.2652305189732953
Cd 10.749947669721804 8.357071024323272 8.539667603255376
Cd 9.032551210917878 0.3259754190262695 7.435367184166745
Cd 8.10565702759349 4.061815238584922 4.756805783265776
Cd 4.4011819274263315 5.916121623574177 9.26573440565987
Cd 2.798942527662183 12.907234143023778 4.975434572253901
Cd 8.386525637881315 10.318365267398102 8.887387754744292
Cd 7.428291277783397 7.011501734772634 5.067441433174672
Cd 6.301961545956789 9.397362245469806 6.76213327994529
Cd 9.976799436567186 5.561382685555461 9.251876997704763
Cd 6.589463420346483 3.7160878954635175 2.2263311597142517
Cd 9.394053181241 3.4674290769680254 7.313815761218029
Cd 9.401416338668321 9.264888889580723 6.0576144962299
Cd 8.478938919260482 8.810676837815146 2.5688405317445575
Cd 7.369519982023786 6.749959488499796 8.015945914035884
Cd 3.890408242383324 4.87974655106486 3.1080012492178093
Cd 8.560481653827987 8.0270767825779 10.754602547376319
Cd 6.955172298099309 4.061770976247725 9.547162251767164
Cd 5.571579021212333 8.629468528496588 9.645746962212575
Cd 2.3517600410118806 12.907234143023778 7.430221114245029
Cd 5.770513214196863 12.189911314623604 4.799546158736613
Cd 6.0145823907994655 6.360150817264916 11.695897483474182
Cd 5.694971052173934 9.434879213947278 3.593156673944679
Cd 10.20261606520972 6.222871365985199 6.174714528494747
Cd 3.831492499798774 7.203223871206596 4.966697305750382
Cd 11.089357111746784 9.840427559657765 3.615839695561031
Cd 3.801612280234136 1.270795774240967 6.954538838725247
