30
Energy = -10.83660876 eV
Cd 8.226948365089324 11.18339009370816 2.635786667420689
Cd 9.134113234575404 5.014879716058615 6.201046098058678
Cd 7.499604338344239 2.4681966630141963 9.585903548673155
Cd 6.295264683885898 6.968525992576995 6.526971934809998
Cd 10.516590684756588 10.826418701086519 4.641228079880834
Cd 6.516115922882338 9.412359529828104 4.388023521644645
Cd 7.774395214285709 5.4637555583689625 8.941168330727653
Cd 7.422610121113937 6.887783048067801 2.641425428117487
Cd 6.7969655673756195 9.827593520834885 7.436158551265199
Cd 3.1744888883883413 6.435889155019877 6.412393701944642
Cd 5.129469886676288 4.158667836465589 7.028772723074513
Cd 9.804116538814947 10.105548875973135 7.463752427314112
Cd 7.712266626881573 2.296408399724881 6.531979543138027
Cd 8.53493149286547 8.968710933701502 9.95115326968781
Cd 4.857107493364455 5.9659022536128345 4.018085130014066
Cd 5.0547293766381785 4.679944485206703 9.993317427799495
Cd 4.522108607156688 3.2351515116881355 2.645356468982865
Cd 4.98872694105246 0.9230177596294616 7.987992118292988
Cd 5.879708170938658 7.737682572248645 9.529217801932521
Cd 9.940103561881322 8.656984309515172 2.4690868238785337
Cd 4.737680326420046 1.852005468928981 10.867169791337162
Cd 10.10523461507162 7.155326837227936 8.097268285155126
Cd 2.90244055128999 6.607228080169562 9.422564640620836
Cd 3.595802710951273 8.763333856469247 4.248334675263513
Cd 7.3096860791276725 4.156185366874022 4.064777862700785
Cd 2.6355363036402637 3.647625688723943 5.05781282375823
Cd 3.6399319187995425 9.09461585648397 7.926976689777904
Cd 4.347111194930959 11.139677865092345 5.924213424854831
Cd 5.101158940105124 1.5992376487212288 5.071839845292032
Cd 8.94780158243272 7.870702354715422 5.392972304317992
