36
Energy = -13.0187819 eV
Cd 7.163068647281732 13.114051487864812 4.671007931095493
Cd 8.129118637011286 10.355153724876626 4.228232911353745
Cd 7.959393895586602 8.007270668869179 5.932720782366155
Cd 6.141318124213805 10.10541449548355 7.115824889182504
Cd 10.334512445426421 11.596663750706746 5.816891780748086
Cd 11.43850145193435 4.466985294116466 7.457752904653091
Cd 8.872276609439226 14.12199135731657 7.131215736925479
Cd 11.377579782346512 12.7445192775401 8.34156531946836
Cd 5.451182271966021 7.109875783555536 7.329640983724004
Cd 10.467017251517971 6.631327830147225 5.717265369908576
Cd 11.293989797853204 9.089992843886831 7.403295495191391
Cd 14.449127194215372 3.6874778637261447 7.343248901140816
Cd 10.356420545305811 4.721399531902199 10.154437522770891
Cd 14.750758580962895 9.138265486537009 7.246965738799465
Cd 9.129821002006686 7.2104331778722175 8.672932519921456
Cd 13.359814098175544 11.569768904313271 6.103982679623601
Cd 6.01622717729354 13.05788384164699 7.402840662593335
Cd 8.8727327714723 10.6099785555632 8.374017957811242
Cd 11.507196049334791 12.54118746169757 11.315691915851751
Cd 12.524817487350996 6.920702853333091 9.38187353844181
Cd 13.497977481492862 6.628628174979781 6.3916345381297655
Cd 6.891022445310721 8.887646889471844 9.9393947413549
Cd 14.366749765967748 11.579454195467148 9.048253543531946
Cd 6.151356427200922 11.902244788694386 10.097826109732445
Cd 8.190131429118404 6.164492464279231 11.565427549709653
Cd 9.151985563020226 10.67754084435758 11.519979037902548
Cd 12.507020497858951 9.703601237149797 10.377609627486134
Cd 5.66755526877275 5.941039266256237 10.012242324320852
Cd 10.60928659539115 7.911663595923287 11.77210183863561
Cd 8.658196753212382 13.576145243821257 10.177309279211604
Cd 5.627285412710129 7.57766119120287 12.572933840314343
Cd 6.192869160680056 10.63041201254246 12.661881095634456
Cd 8.387851777083418 8.618720698887088 13.610883801673957
Cd 4.664480564969514 9.597923829868405 15.081469101196905
Cd 6.652452197967196 7.443419515866689 16.049925334680427
Cd 7.418973838684057 10.589130860411824 16.209791695048075
