36
Energy = -13.09638438 eV
Cd 8.416052522346657 11.30566671826457 1.6193034655391194
Cd 8.141077233224186 7.227955153435339 4.575212632651925
Cd 3.985715886032022 9.396307030502625 3.788851375891037
Cd 2.96065792056659 4.438383662167259 6.413750397222652
Cd 6.250079529187443 11.314899523357846 3.700869704463166
Cd 6.205427007243623 8.255007743151472 2.105139809844206
Cd 8.122527413560068 9.218040887378292 9.153466734698734
Cd 4.709072094550585 5.755096690213682 10.613205252832795
Cd 4.771846871830947 3.0422618450325736 4.427921299549524
Cd 6.406063675568932 4.9529977956567075 2.7386621629344745
Cd 2.9908760081274157 9.373155473660113 6.547105878684166
Cd 7.288864896782931 4.3041892938105475 5.675391890024877
Cd 9.241838811322445 8.490708674281933 2.0766255619785396
Cd 9.10718873252733 6.3048567893969025 10.210761794238932
Cd 3.743137952608031 6.6558468820964425 2.2457590760273862
Cd 5.148081851259875 6.62510768605378 5.185134124693555
Cd 9.903651800399908 2.947447710978939 6.2111568114861235
Cd 2.081914698119834 6.979322306307628 4.937267343945135
Cd 9.403589069076979 6.025262890326182 7.1629857675729
Cd 3.077185115753884 6.659327595541575 8.228213345248625
Cd 9.321414743102869 5.516687733800892 2.3123245210694825
Cd 3.2920752531829587 1.0739649923832284 12.800646043091291
Cd 6.393080843804388 6.435476446209131 7.853374560056288
Cd 6.716987353415452 7.741003087603664 11.412994547599212
Cd 5.296394437548458 2.978987003175176 7.518553380903464
Cd 10.122813636526235 3.6162368325710803 9.111570663977396
Cd 11.128860649596987 3.497577847085762 3.5097602026044488
Cd 6.267916177869131 9.34346361876064 6.05733898770126
Cd 9.21595063876194 10.834049261555606 4.527617125109205
Cd 4.551960088035714 2.7862558158932362 10.496278160826067
Cd 12.146855387584692 4.00978612313726 11.398245444042798
Cd 2.2882197011012555 4.292979168274633 3.3276396655468568
Cd 7.2093394335044545 3.9584863597472397 9.618014998708576
Cd 1.8846579694838868 9.19799627100246 9.46302565987594
Cd 9.70209275027931 8.950519146989828 6.691864924853533
Cd 5.079061656485709 9.067217750569041 8.856496494880096
