38
Energy = -15.72013208 eV
Cd 2.0917355668191915 4.5759383818324695 2.24254142429867
Cd 6.965107905440237 3.760853260936388 1.853864661745669
Cd 3.8447108059666215 6.9850448614123275 0.6130783247815457
Cd 4.45400281963425 4.081284660601778 0.4526735200461287
Cd 7.092058590894221 6.959838321374208 2.0431295476593565
Cd 8.97134886003487 5.149137967943491 3.6785453687364833
Cd 5.90879267431003 2.034244426642739 4.107667131685713
Cd 9.128283545695634 8.086302958357171 4.253873551510521
Cd 2.6762255458902997 7.091691777153588 4.086504195824545
Cd 4.643535830601896 8.948422782930328 2.75283921917346
Cd 1.008503455035198 4.962737044666208 5.358310337520533
Cd 8.815597447710822 2.159792082231726 3.604790072899295
Cd 7.350353675353336 10.00636435943681 2.5433010516235504
Cd 7.014004244738102 4.570151675108468 5.872247433940118
Cd 9.712680895532248 6.225246260324201 6.497809111695066
Cd 3.2348880050237665 3.1121879354695476 4.881135415647556
Cd 5.115508360104897 5.307192482027976 3.723279047334997
Cd 8.396861625149706 10.898176539714607 5.164846393818153
Cd 3.940538225268926 9.36160515621769 5.629700024190044
Cd 6.361979904712222 7.6218731914739 5.244777681149596
Cd 9.995582352139468 3.292410895436831 6.207758605291073
Cd 1.8417050147679364 7.637767236015665 7.008805503569611
Cd 8.123297196087332 0.8757445983599491 6.183971158221193
Cd 4.320140952703181 5.784346264767029 6.618659817486393
Cd 0.5373381485039851 5.348299048792862 8.278746884229717
Cd 5.361762028687589 2.3310392453654942 7.023162279992504
Cd 9.092343602473214 9.03702120377776 7.458898258181528
Cd 6.993352479670089 6.690453431639549 7.997806981927214
Cd 6.340796907498381 10.27276957287203 7.115191891401798
Cd 4.447777794787914 8.402210663354047 8.475785082634516
Cd 9.589731731194881 5.162653927909124 9.2461356491822
Cd 7.971198471301104 2.8584917819139215 8.424763569872637
Cd 2.7886972478392 3.487922668764206 7.9272808671000305
Cd 3.0112420803678983 6.054640570148166 9.79758195555408
Cd 5.51862955052253 4.329421203961859 9.35330451180594
Cd 8.461644391444079 8.407435279305139 10.35044289318684
Cd 5.564046735078946 7.14678057722894 10.994439319485975
Cd 7.985127092556727 5.653637466074735 11.603483017136362
