33
Energy = -11.2653304 eV
Cd 6.041752667193528 12.122273284139402 4.413989646909005
Cd 11.685827744717335 4.841188449995845 5.0528130696074856
Cd 10.28206386982579 10.392794594460582 5.294077764905729
Cd 11.384567418035143 7.695714080312328 6.066587267623269
Cd 7.848907733061871 11.200779842428487 6.627629839843596
Cd 7.502127576361004 7.786878969208495 6.290269819298534
Cd 5.1582126960400325 9.23509103177371 5.101040853387058
Cd 9.248582937174211 5.511800718955759 6.757005210605002
Cd 3.5544225596049768 11.911136945580132 6.076381614853796
Cd 2.299916846787078 9.01143231181584 6.591934389881202
Cd 7.550728051996636 4.403049985347321 9.017616897287045
Cd 11.693017798577106 11.961860687786626 7.725797582974594
Cd 9.826493529076407 8.417377253890182 8.519916081878215
Cd 13.090805792280818 4.597795218874023 7.715741197703735
Cd 13.430909002601732 9.52875375183843 7.76198054303173
Cd 0.9039850123638653 11.657733181604103 7.539024103160427
Cd 5.5986597908639535 12.955495321722477 8.010996694210638
Cd 4.104372410534947 10.424294569289025 8.932556482146603
Cd 14.83068940662626 5.313655242573329 10.26728799930232
Cd 4.6718756085612885 7.460471267813559 7.676472118979418
Cd 7.009991508324861 9.399670866313217 8.806618148996915
Cd 12.428956312744376 7.201255206093187 9.269379773622177
Cd 10.432518465987506 4.849245283626417 9.547101133223668
Cd 9.399283097964377 11.26989686290836 9.46715213466689
Cd 7.990820340334944 7.064447892741992 10.686751144732781
Cd 7.465433774452824 13.349155800078531 10.247151639725606
Cd 12.88033842931874 2.9045192349424274 10.432075639270979
Cd 5.075803224582442 5.686939084355748 9.953817032829924
Cd 7.113496911519634 10.706955190472463 11.743853056716606
Cd 5.241057813350773 8.46716688849676 11.164468362728034
Cd 10.68481652081343 7.027040549702939 11.881946527283464
Cd 12.708390260874376 5.052744697077565 12.71543401936361
Cd 10.184219079269106 9.914429925602098 11.968176401070789
