38
Energy = -15.45747086 eV
Cd 5.069571522474532 6.691814707534264 1.9673845951758837
Cd 4.45250346629304 3.9717996777377995 2.6711893344061193
Cd 7.567462947994224 5.001401490053016 2.814332112636692
Cd 5.2867422980291545 9.550712882149714 2.470851472393206
Cd 7.830881148525868 7.972176681900864 2.5123939613558104
Cd 7.188224850067041 11.342881445440968 3.8099029472499115
Cd 6.651991953066567 2.534434050543787 4.158811035661109
Cd 9.563924512254903 9.598717782444293 4.261246457355417
Cd 2.327084199895984 5.253933289562126 4.322375647558601
Cd 3.3324136250664234 8.125221503943669 4.161153140536846
Cd 5.562212600089677 5.987625535718624 5.080481961230942
Cd 8.722897707628272 6.727801430028794 5.098038748954953
Cd 9.332566557558248 3.805411112048532 5.068482716590147
Cd 3.7167280437513206 2.4285856437693316 5.1728857661198555
Cd 4.17664123441993 11.71954846643244 4.15472033722592
Cd 6.220013611633528 8.814675981328776 5.634271389065494
Cd 8.653447788057981 11.48585507590089 6.371272423893845
Cd 2.8472409247099666 7.277353942479671 6.932532903025355
Cd 5.794167337635978 0.23382923605519493 5.917123020065952
Cd 6.64237801618653 3.8702978747358334 6.905548329796992
Cd 8.635934088737217 1.0572727107038145 6.0227296792304035
Cd 5.660933736885508 11.796663027862996 6.873985900207873
Cd 2.966413593156342 10.352819691844465 6.391175385732279
Cd 10.194412122258502 2.511513993188962 8.125573787738515
Cd 4.199523997727215 1.4907279792021133 8.019537924556566
Cd 9.850577347732223 8.614680135521214 7.197020117064503
Cd 10.030996288478203 5.523398364794232 7.52822135085497
Cd 3.648300500238785 4.508956250224217 7.2737028228758565
Cd 6.744232451365059 6.7268390817456964 7.7492699459767715
Cd 7.253169615981779 1.3398384477885097 8.733785004508734
Cd 4.7714575860204596 9.09786712209452 8.417908726066786
Cd 5.2355004510155 3.589283512382478 9.799830944492287
Cd 8.191942380332359 4.335799570796971 9.519327676094408
Cd 7.579066596403159 9.980557938772726 8.639519496532937
Cd 8.888271648699961 7.392796620242557 9.91588702424161
Cd 4.108295300382154 6.439205587577033 9.622668076118957
Cd 6.478597174616775 5.85722822631515 11.373012139432168
Cd 6.356078729693166 8.723271884196759 11.04464365303868
