35
Energy = -13.98164046 eV
Cd 8.78839925905485 9.350410284687053 14.469791946900056
Cd 6.67811798392741 9.916676903294153 12.51469582766999
Cd 10.952142445389569 7.5976336247838825 13.411480090060149
Cd 6.070704071948328 7.315379350892884 11.26167871231157
Cd 8.108052293530575 6.551278080775664 13.452681271325421
Cd 10.83960420952617 10.225034720047674 12.025236423997406
Cd 4.95526958771953 11.360015365368724 10.564340834791027
Cd 11.054789259014592 5.010725177442792 11.923276103681236
Cd 12.834804431132843 10.208956567618028 9.510911425468745
Cd 11.109504243522954 12.567196653406075 10.200980157165358
Cd 8.994167075259371 8.093538181190896 10.648013811886269
Cd 6.865242846306597 12.530853897042537 8.367732372767964
Cd 4.350179540408388 8.221036290863912 9.031201228363798
Cd 11.940393644244892 7.56506680022817 10.571655874145854
Cd 4.080677593060687 10.884544320818657 7.794985793005583
Cd 8.23158542740287 4.9524038312694065 10.898165296692328
Cd 8.401269054753557 11.059503601967245 10.386928351137074
Cd 11.330791154561831 9.947245754974753 5.006750923416202
Cd 8.55615128618213 8.825792957044456 5.5186805429836685
Cd 11.405211366941488 6.952970317933924 4.965444402620565
Cd 7.059541020734665 6.166344935113661 5.478014408081755
Cd 9.492788705311188 4.715954276499558 4.584781433677055
Cd 11.886143965951863 12.566401040376837 7.160202066757247
Cd 6.3808281582848805 11.122810922655145 5.793677742938208
Cd 12.344461596780599 7.840234848923549 7.637833034575532
Cd 13.784201825246075 10.34861681886269 6.620023127949167
Cd 9.472314576265665 14.008910325076487 8.245988482532168
Cd 9.472790916843215 6.863989213687924 7.853263254702241
Cd 9.170467204864723 11.88013269573413 5.992372014475938
Cd 4.286683991956344 5.984432569940814 6.868389271322256
Cd 10.063560833358492 9.92859999693456 8.162030872540013
Cd 5.132187613953597 8.541305130363492 5.7136942538272
Cd 6.670363025455524 6.009324639547714 8.609358677440607
Cd 7.17866805183082 9.124232435764366 8.336774569383069
Cd 10.648303792479888 4.352809522074666 9.00932745261465
