36
Energy = -13.19762086 eV
Cd 5.34235892601661 11.927019720048127 6.077759195975041
Cd 4.196251341730601 5.072468865995042 10.455281092886866
Cd 7.067471585542339 12.218306335890185 3.703460131858144
Cd 6.248352319891944 6.042484825017337 3.7315509820739985
Cd 3.114877033720698 9.460002573542546 10.032928984535765
Cd 11.390252595495308 5.586446590786952 5.8875955934878474
Cd 9.56637300937252 6.647569129322606 7.966017152910754
Cd 5.645375292226481 2.936040705551094 8.75219077848393
Cd 6.046689506773533 8.133275062324905 11.158028378849549
Cd 3.4044546849739294 7.3061948942216395 12.205766771885619
Cd 9.991815578938807 9.796550953731165 7.310421453688551
Cd 2.742225684630999 5.669958789006601 1.5065413042947906
Cd 6.07492299064277 0.46162509328211065 6.801409206023592
Cd 4.602764797094356 3.6607168747398235 2.749783517820053
Cd 3.715915314754526 8.026398864883792 3.0063430819227315
Cd 9.007501195170825 1.0743521758123862 6.1517376423609385
Cd 7.064996317147671 7.595627516649117 6.438862768478286
Cd 3.3546557008255258 4.646567702968158 7.637529830936794
Cd 9.047478450776872 6.906956932194749 4.174192070101471
Cd 8.0304846564494 0.9783500345598017 9.014710270866376
Cd 6.841330859358624 2.2585266989342605 4.188429057569251
Cd 8.99495933442813 3.65971427565892 8.035326899730466
Cd 6.388778993786361 9.181849758511134 3.703693274423471
Cd 9.203462600529676 3.8798037403375227 4.902277260436127
Cd 11.390193665819359 8.339017184257866 9.940940479979679
Cd 7.079366090843042 5.667277013244165 9.433104956997854
Cd 4.084967599579772 8.974048605363407 5.86706806323372
Cd 5.7813880369896635 10.132079665190146 8.426910559703492
Cd 3.24024317034493 5.608598185051083 4.871320759631431
Cd 4.3277613621108335 2.6421528661786464 5.749433615875862
Cd 3.947406197944224 13.538583292033316 3.670151692612899
Cd 4.572288167774634 7.277465744029402 8.254826055333805
Cd 9.214703704144398 10.065965107888859 4.418961530469728
Cd 8.29782084782171 8.854826954179764 9.544458255493355
Cd 6.6140193923443675 4.620835364359397 6.4024135005016545
Cd 11.707343231784211 8.493592142032877 5.169824066344788
