37
Energy = -14.45700911 eV
Cd 11.42101021540113 9.11222852713982 6.917035237917385
Cd 12.73471449093062 8.188935210124189 9.383490336037466
Cd 10.496899826362197 6.012841548503076 7.583102594590318
Cd 8.870602274758053 10.24476229636698 5.656446550889071
Cd 8.682617290036402 8.565523567485313 11.434755635367354
Cd 8.048655907498194 5.527441278958828 12.072905661517344
Cd 7.24279503811426 11.406842354143551 8.139759821701862
Cd 9.949380797186262 7.499687722126657 4.8552857405440415
Cd 6.3837156589787005 10.264474999845529 10.727487874349363
Cd 10.07901313853762 3.0414032903460213 6.866530790235906
Cd 6.900943204550097 6.477126852980548 9.2693212071936
Cd 6.335281993669568 3.605622445131409 10.400417755270547
Cd 9.59113130532719 4.464648227869264 4.206619431446966
Cd 8.745407477781672 8.702104016366214 8.435176554712228
Cd 9.015237048137847 4.096835658426106 9.376050528583036
Cd 6.525386110725722 12.198168009063851 5.356177413723627
Cd 5.8074963890976266 7.828517012817122 12.311828459744541
Cd 6.384038759437717 9.245972436194695 4.263597700265578
Cd 7.604796496471852 6.1111439562530805 6.3812344699155465
Cd 4.731852083712171 5.147221254143227 12.415675201291117
Cd 3.8632409579007607 10.985134544323463 5.6938394267719765
Cd 4.238809526491889 10.581873620124428 8.615452429747306
Cd 7.590470841129612 6.673750298600668 3.253537202458643
Cd 5.928782066410833 8.474611263377405 7.132686498150274
Cd 7.456884081008753 2.621822334094476 5.540249986802872
Cd 5.925598061686696 4.855107389787966 1.4190448565195841
Cd 7.4765211271273495 2.70892388287433 2.573098135935676
Cd 3.4039729880928604 8.176953924272729 5.012738302173091
Cd 4.236521386078614 7.831042335524071 9.792239680848146
Cd 3.705170554739201 6.327713981156913 7.2790592494680375
Cd 5.66609422251295 3.8739959624145675 7.484178071768923
Cd 3.558172764753656 4.629115263096939 9.696693224291776
Cd 5.450136122349331 7.2483673312175885 12.415675201291116
Cd 4.5559432237984465 7.386702506683549 2.4297844917062807
Cd 2.99292743656081 5.405059624659385 0.5372037346355049
Cd 5.107579544597531 5.2670490600064666 4.780271151027455
Cd 10.59284663948851 6.511923064940271 10.564312754377314
