30
Energy = -11.56600823 eV
Cd 7.78228538850598 5.432485021761524 1.8604403498225068
Cd 6.36105701016035 7.88191947355103 1.1941240482468056
Cd 4.064715958894758 6.818801745057655 2.7272584497652286
Cd 7.167236426874135 3.955001823926817 4.38421611083197
Cd 6.971888028959504 9.944807224575877 3.137693724050167
Cd 9.525975452479168 6.07474913248569 4.258639433510434
Cd 2.344886666415743 7.058912275721892 5.225361114606841
Cd 6.53608846334133 7.051932976327013 4.8823670661512475
Cd 4.322408024482737 4.58031760994523 4.687965205651871
Cd 6.76974089726781 2.45748297397431 6.89413234932631
Cd 9.213467530582186 4.216400304090814 6.6548875736362865
Cd 9.304694599357472 9.000870378053097 4.840539175241621
Cd 6.564396437903753 10.972230708877673 5.874363537134356
Cd 4.270694762219413 9.247419149480994 4.771358781025416
Cd 11.693472345500547 5.927038326715215 6.348888058273611
Cd 8.202113794453693 7.235164267632954 7.3710481216751464
Cd 8.88375438115538 10.35377966028207 7.548745475757187
Cd 7.876384894969643 4.525258754735002 9.284697578178916
Cd 2.575797574692725 4.464189749107178 7.143670965004768
Cd 5.397609972577411 8.69911587339848 7.552683996990398
Cd 5.5892775425775785 5.592770286786082 7.390133846795227
Cd 10.648712816287201 6.319380759908396 9.169747258544453
Cd 4.1220143455401805 2.13172528974891 8.079993863662896
Cd 2.8519287078783293 7.280165559812721 8.156572503465346
Cd 11.371472446672996 8.756588220777425 7.472912603602411
Cd 7.2344449988135215 9.382361462505981 9.794045993435876
Cd 8.28654003785927 6.966451905832182 10.914855122477162
Cd 5.096678732927191 3.9840769075296967 10.20647907218604
Cd 5.123865436839969 7.0758128819960975 10.4514886928315
Cd 2.373511549076816 5.139904520667836 10.24780515338528
