34
Energy = -11.33568546 eV
Cd 8.49342387822146 7.260491425718111 1.4237751032630128
Cd 7.01701859684404 9.716816050385155 2.5663055125081224
Cd 4.820460422318787 11.89993772643454 2.3866769278535083
Cd 6.041238132543211 6.793258712780683 3.2509956058827623
Cd 9.719780816252108 6.432555369278536 4.025503391428878
Cd 8.692154044549483 10.415348273267396 5.065324216355336
Cd 4.338496808051969 9.189348997068125 4.327775974737562
Cd 9.267065696629748 4.28761854616072 6.013851705039822
Cd 11.155189866628177 8.706324021188863 5.269847556885047
Cd 6.795794030027354 5.8135246776604115 5.9700449738887995
Cd 5.806049114801873 11.72589952656387 5.315074429212097
Cd 11.911207270582889 7.817877873022322 7.95783800908424
Cd 10.504964532973704 5.219851634973074 8.434708085009751
Cd 4.181348410530286 9.759778175066483 7.277801813856348
Cd 8.81483154514013 8.045487528511487 7.1923867453667
Cd 6.017791778532859 7.472271864640457 8.282864151144725
Cd 8.275317206538634 13.161406400925546 6.509113584594569
Cd 7.041983137983419 10.773170522997157 7.956728733284605
Cd 11.73410121589986 9.701491605329853 10.310481062873105
Cd 2.710452443618624 9.489803949802303 9.94510006214408
Cd 4.485037741612111 7.198651772640831 10.975460368117831
Cd 5.718321756237077 9.945494713743745 10.718886028334051
Cd 12.21704510908419 4.271816674344071 10.733613924369413
Cd 8.755355115752888 9.732233206318819 10.222299771103811
Cd 8.423745703333458 6.53518031504814 10.07381167920011
Cd 13.484843719045363 7.045961654373425 10.465902412030507
Cd 10.199209759741594 11.477118573626715 12.470423631239603
Cd 7.350966218047369 10.705370477754625 13.16839025262812
Cd 14.68677755100554 9.447735294952981 11.956936645739232
Cd 10.899735384702028 6.506875020194618 12.23256959484275
Cd 6.331010824164911 5.497815468457536 12.640560906505623
Cd 12.054264319871802 9.288513743903279 13.418444226597252
Cd 8.283462046306141 7.8067646516186375 12.91789022887355
Cd 10.410073667640974 7.496723416462389 15.16113055121998
