32
Energy = -11.63080048 eV
Cd 3.2596602362595033 8.865524632388404 7.363858025831714
Cd 8.3567760843875 4.430940660841315 7.569868000360707
Cd 1.1709557532910069 1.9723651199401775 4.389204233318396
Cd 4.948848787681406 3.456000895467153 0.9165915792713856
Cd 5.3357361719551095 7.393752389790323 9.163733503381863
Cd 1.3944954554575675 6.581961448594785 7.636373992835508
Cd 4.165770818364871 2.732336118157791 3.6966667793075767
Cd 3.175649155394969 4.595683644481067 9.12538049754408
Cd 7.334185671431699 1.9213819068614144 8.80897591480501
Cd 4.156847266326719 8.584731900805325 1.9716489648029913
Cd 4.421163096924477 1.7013774853433237 9.104686926174812
Cd 5.210769069325012 5.327846867110126 6.836879999853558
Cd 3.1978083811250064 5.581496383200349 2.2692316469806584
Cd 3.287306564413123 2.732452913828929 6.603575297636991
Cd 6.1261667270476154 6.6186753571396775 0.9394093832593996
Cd 3.7505951001343774 7.155703113450487 4.873736430469593
Cd 4.733986550453994 10.024498493441772 4.647003884404762
Cd 10.260556953521208 6.680108320856304 8.319945374428443
Cd 4.1626921980958285 5.90881294236077 11.734695261078638
Cd 10.293476166815493 5.82992041105683 5.410042411614444
Cd 7.925138214701514 3.8856424966638112 1.6449640887333987
Cd 6.101428858939475 9.68123967381616 7.359136047476553
Cd 1.776853425962116 4.8968313359074624 5.113841855441027
Cd 8.867433159092206 9.28627060752341 8.38205147199151
Cd 8.825094127925478 3.4244317361781307 4.3891187066438775
Cd 6.361497026805098 2.619426136395647 5.88214223638797
Cd 8.420086247203338 9.912080102145364 5.378485183121421
Cd 7.078543195411839 8.335092770037567 3.1622297057141786
Cd 7.511631466914942 7.036272806651991 5.91812172633515
Cd 6.084542914952794 5.183769442804057 3.858484049533619
Cd 6.363224826615854 4.624329571130875 9.90265691050737
Cd 6.86001923256698 4.650562204501182 11.734695261078638
