32
Energy = -11.13262391 eV
Cd 5.081116033964365 5.342572002302792 7.336166372747747
Cd 11.569361012555639 5.6071784964669735 6.350070536628957
Cd 4.683570263642083 2.8451140183467087 9.024762822468034
Cd 7.489716924493207 11.383411184022652 5.599234407304472
Cd 6.268763683025817 2.813646105602592 4.663047115549294
Cd 5.942393318167401 9.046079971756244 3.4913981641830736
Cd 6.52785800569322 3.9033447076536243 1.9715765963503749
Cd 9.052267666453453 9.388209299720666 4.205691066909616
Cd 2.84470043500614 5.85205520371398 5.403801856585322
Cd 3.873381804751643 8.103915509810507 7.30284090314598
Cd 9.093007473245203 6.3726019802933065 4.78732983791546
Cd 11.732687188801487 6.639490488171592 9.486120526742253
Cd 9.064272116226924 7.629122554712712 1.8508825363374435
Cd 6.984871827429794 5.229339209078394 9.873718568471695
Cd 6.379619812664537 6.767332510688317 1.2490658421772292
Cd 6.057666212221818 5.85933283698803 4.547780123371978
Cd 2.617588218476637 7.429913500183877 9.92101688890374
Cd 12.579167436389213 3.810445274046898 8.580759961510624
Cd 4.180481892548124 5.157941643740354 10.897860722771243
Cd 6.821248082700219 8.329392059688624 9.3962373386977
Cd 6.302925909942136 1.2092108406140838 7.1120218273485545
Cd 2.585265496338017 9.01482615729799 4.5583444233867025
Cd 4.548622105625162 10.699759559548337 5.855953186558119
Cd 6.289345208978738 11.251754302365043 8.331358211882147
Cd 9.730692795437802 3.9969813824385687 9.540367683303003
Cd 0.6658905461724594 6.889765501900591 3.5201091278254695
Cd 6.945397417646852 8.255952619113344 6.363715673877058
Cd 8.984166757709435 6.699607306653008 7.914978775577914
Cd 7.546980541467879 2.004877824234594 9.752657261001515
Cd 7.962029131180346 4.099274591280788 6.825628792471267
Cd 4.292754724932558 9.889665644363564 10.086983120722582
Cd 3.802728109872792 6.978423866962876 2.69905788103294
