37
Energy = -13.95131153 eV
Cd 8.254644604102536 3.635220214831627 10.434373021266364
Cd 11.5022979022995 1.6402674881107322 6.243699988396365
Cd 5.253063128608512 4.270817648465361 9.952699198772173
Cd 6.660463422999672 2.9728499684140446 7.60541998947394
Cd 7.2299781052265555 5.672223252975736 12.401233115430964
Cd 9.595491021728236 3.2440466947373556 7.884217334378266
Cd 3.218525148152974 7.238480500968225 5.757784741341762
Cd 2.2358727056008894 4.427450424808758 10.72377708080044
Cd 4.09215226815391 6.349368870921637 12.194567521191377
Cd 12.759448025307815 4.098196141677074 7.771091719840566
Cd 8.82431511105464 6.670237327522076 9.997764830417227
Cd 11.274696641505209 4.415019652606758 5.032927101110531
Cd 3.16677990539473 6.337939128235423 8.464740521686497
Cd 6.067783895933515 8.128620558215196 13.570924701941516
Cd 4.741729694958501 4.712847998851169 6.061668919201445
Cd 7.328820416418409 5.980279210378838 7.3032395418768115
Cd 5.793857121305822 10.061901011987343 11.339755301321686
Cd 4.383572425011625 9.555760320198408 4.255391014728633
Cd 5.782548703929402 7.342610287378273 9.73752261315508
Cd 7.875079711164169 9.488212914011838 9.283818520175016
Cd 5.567059221932338 8.990176606796686 7.281433839598147
Cd 10.37323402356664 6.25223795488795 7.47859905487094
Cd 11.24305024076553 7.122883608363037 4.013765625803054
Cd 4.8906265741829476 11.872263446588097 9.037744332576832
Cd 7.23018212715492 12.711555376990619 10.801661290795343
Cd 5.087454732382046 11.760196101198991 6.0829012869586725
Cd 8.654088466449997 7.931100464366759 2.850191543459351
Cd 8.689593753507864 8.604423379731822 6.237918676299463
Cd 9.687014881404696 11.886236724000627 9.57503277912487
Cd 7.132821562131093 10.450886259542735 4.0458164585128396
Cd 10.690121755935413 8.970658345777801 8.689449158116059
Cd 11.830777780240444 9.232337398952776 5.973256984432706
Cd 11.192735041398636 9.726385297579988 2.4049634966461477
Cd 7.916598580229145 11.629061003904136 6.919537208483751
Cd 11.292889696007329 11.907360398101405 7.132029245647412
Cd 9.941040848724898 11.301136407120278 4.620087946422992
Cd 6.392721382424122 7.26188223809548 4.692124923039218
