34
Energy = -11.8098087 eV
Cd 7.9872889131425255 8.294109554243374 4.551402428943792
Cd 0.8377849549383583 8.3656906699804 6.659357250800366
Cd 5.773172768254264 6.176060966536448 5.407664210582878
Cd 10.833986589603594 2.288883794140402 7.077650672226004
Cd 6.659671867645285 2.693240581008226 5.502965393048173
Cd 10.193040609822159 3.0315171464878095 4.233745543759416
Cd 7.011155638261089 11.609999307492378 8.765337103159936
Cd 11.596533515457558 5.124879925903436 6.568423930266876
Cd 7.598084320306345 8.255783852022375 7.5734264768287805
Cd 6.659730816757043 2.286842636056489 10.845022926296654
Cd 8.682219358918365 5.859097515749037 9.465574135958143
Cd 5.37317511512483 4.254641624567252 8.042027601149329
Cd 6.613519879558102 5.122258131211875 11.649275915706486
Cd 8.215273360834468 2.8326360926735092 8.27673984597632
Cd 6.318392569360611 10.609974443712114 5.816318274201826
Cd 7.5520239682066945 3.3069469552481454 2.723553038724945
Cd 10.620619114532058 7.6355720842392305 7.813173179568802
Cd 1.7593942598192323 8.324079193778134 3.7245328404140836
Cd 4.911543121861213 9.521815485621621 8.554284288526476
Cd 5.673374358743111 6.854028388455988 9.519504744626294
Cd 9.871732302369548 10.503855911958661 8.082745540797806
Cd 9.105045991352558 5.85012234389814 3.307017100680438
Cd 3.5183512098013283 6.828027581860879 7.379687414657156
Cd 4.17400768755857 1.0503180344367093 5.828407692957598
Cd 8.78879623507309 12.576852316037481 6.124453178212686
Cd 3.6483122448106813 3.941081277728955 5.447771929841242
Cd 3.5600262834546297 5.891683198213684 3.075141970210401
Cd 5.083178524239166 1.1721039294113997 8.630209758804622
Cd 9.238232581083729 13.707774842044063 8.992050126334272
Cd 5.008500277511155 8.529939756557216 3.5763230461541746
Cd 8.307725032064258 11.152044145577095 3.493574272364281
Cd 3.454123943746385 9.723054518099087 5.925911856123738
Cd 8.48982505733436 5.346010316159622 6.39332321727332
Cd 1.2752588447243791 5.672174795159149 5.366504411092882
