30
Energy = -11.13036987 eV
Cd 5.02665187370215 7.594054475906649 2.0565903170462234
Cd 7.2984807789045805 5.597658863215811 2.240983872334703
Cd 4.433631998556745 4.482217330001796 2.024187502416279
Cd 7.480490516900787 8.205518683447432 3.828401151991613
Cd 3.1604528269132284 9.351978825113372 3.539703387551888
Cd 10.211066611698289 5.269422220364722 3.231444303322229
Cd 8.133101817503045 3.0689864219023066 3.700407986833001
Cd 2.2217753952825627 7.179444693158412 5.205495465254583
Cd 5.278825224950852 2.4344968175658996 4.191897088907419
Cd 10.135629678918297 7.677227974843018 5.054717746018118
Cd 5.397151829266436 6.201957257459199 4.968579644933365
Cd 5.674630813252518 10.534091002784987 4.48007658671506
Cd 8.34540308149661 5.209399448627886 5.840740196325026
Cd 4.719210455985543 3.6979699567872664 6.95257687165769
Cd 2.8919635940273016 4.3228105059734165 4.499058718553164
Cd 7.716229861087871 9.463457595190716 6.523524515967759
Cd 1.967159824671593 4.83505795723249 7.2974523199790235
Cd 7.316188817104402 2.123788619603936 6.566085341018801
Cd 4.737560972847601 8.915731581597855 6.818480824211122
Cd 12.063977119785921 8.996270297772819 7.2595846655439855
Cd 6.264380652512307 6.416176030745492 7.736731170073974
Cd 9.419780711095886 7.32014105965307 7.937438019332219
Cd 2.5601850387835707 7.574374423174865 8.172054419427248
Cd 9.33691096876571 3.6511268130031254 8.18059128763226
Cd 4.061624412644687 5.243556880227937 9.585876178556257
Cd 6.521737346560582 3.4175107401387406 9.436443163610324
Cd 7.29604959896357 9.062957022213757 9.500415229133333
Cd 4.430441049066404 8.617287701381949 10.191905750949738
Cd 6.115911064197982 6.596720899009295 11.540060038784837
Cd 8.572490396740458 5.727702234089278 10.227590568104281
