35
Energy = -12.82296625 eV
Cd 9.242459893357873 3.184270819454023 6.242153528556852
Cd 9.421073072965545 10.456545741038955 5.485937679271816
Cd 12.050185057134751 6.593773134484346 8.155906123372548
Cd 5.606431121265779 6.520193154998392 5.398703837266383
Cd 4.993835577231348 7.395203626516911 2.471391176045725
Cd 6.60452998706493 4.688828885754929 2.7703901643728353
Cd 2.2082612758873137 3.527051893809537 4.868612761250015
Cd 6.717148566993992 11.514449161292807 5.959995984170581
Cd 9.757134627748348 8.721517848158562 8.19463781357916
Cd 8.44251484620725 3.872045106053315 11.260916712592117
Cd 11.019298541446712 7.950013180929646 5.468282473432448
Cd 4.029925910801739 9.610976256615468 4.393537274071612
Cd 6.356884704176836 3.5788536892123624 5.5955687169274135
Cd 4.600291425099884 2.1694273739587615 3.6582305330405798
Cd 0.8452060137867828 8.750972194970252 5.713253387847019
Cd 7.003825139875282 8.668056957034347 6.947589544673864
Cd 3.5030492038804515 4.83801927206453 2.4885391816034637
Cd 6.98433921074929 9.168178475569764 3.852338269377276
Cd 8.13923105597032 5.957067213664207 7.566520595110997
Cd 12.050185057134751 1.6027118200140686 5.631445430479188
Cd 8.374524180602211 1.781725253531454 8.79269245156719
Cd 9.607727947544147 8.273272207136984 2.756989953783687
Cd 6.024195554270053 4.039864663395672 8.661731849289655
Cd 1.0800804643226176 11.605308410265614 6.314831664074511
Cd 5.066335620802406 7.04576914130523 8.665122933010466
Cd 8.668466903124076 6.0466918407667585 4.585580719963268
Cd 10.403011541569589 4.1596912204238405 8.921298377659292
Cd 11.598795116560849 4.907303679161216 5.631917195378343
Cd 6.556545447432877 6.195336554134987 11.011394947574333
Cd 2.565690614530382 6.622028953909553 4.793925947974205
Cd 9.549529952939565 6.664784053087652 10.422923097832324
Cd 3.9704462082541467 12.193313493405583 6.409145381018701
Cd 3.6259658270759316 9.177089846793084 7.337598254811436
Cd 6.039702557405301 2.020468231443878 10.83983373151605
Cd 3.6812193056635643 4.803694240413423 7.035559902275112
