37
Energy = -15.18205795 eV
Cd 7.0446408791348425 8.311721667369993 2.634507389426153
Cd 4.860414004735979 9.940796482294322 3.623780009359671
Cd 10.28070367645542 3.8194542649599748 2.984014594520339
Cd 6.856056112621978 4.9226628307984415 3.2489787557984062
Cd 9.35132677415046 6.582216229250088 2.5900383440472905
Cd 9.81017523589145 9.71482159104725 3.2147329213416027
Cd 3.699052742709599 4.1831053909002485 4.452982211544951
Cd 2.6133649037262145 8.949824073943537 5.385935868351664
Cd 4.687191317084885 6.967077603383965 4.115545713445178
Cd 5.995740798339457 2.1517550850465024 3.9598977559287594
Cd 7.49243471070156 10.817924064467771 4.7607204067186695
Cd 9.842624746181343 3.4492579651329702 8.073843877259172
Cd 4.903419101537156 11.114857103592307 6.321740238953072
Cd 1.5783698259605303 6.15616801768332 5.406318160585649
Cd 7.476857248414798 7.817255741168438 5.616318246147836
Cd 10.259290429106986 2.1812113305298526 5.380229910002142
Cd 8.804671573772833 5.147352343502892 5.667366556010721
Cd 10.720746951083923 7.513336834491961 5.048101090135699
Cd 4.917983479544858 7.889637013264584 7.090514396497956
Cd 4.384152790663053 1.8168549086047745 6.565364692366971
Cd 7.381049554259871 2.2393830507550136 6.59490143925039
Cd 3.2181290762346153 4.487664563628196 7.550109832823594
Cd 2.5141055603332756 10.702753154311651 7.9496864104963905
Cd 9.868356061382997 9.881457021164936 6.657351298868477
Cd 2.0863337603199006 7.371937933660004 8.141673286432072
Cd 10.231003846070251 6.611568099395523 7.860890428813774
Cd 7.356073733151402 6.667698617302555 8.499131983692003
Cd 7.064193446964997 9.858513252985421 7.90580040369403
Cd 5.925608784227198 5.079193327978524 6.403702647781057
Cd 3.7228384635016782 9.318616638697158 10.1761889770955
Cd 6.739197108062233 3.7112656785889198 9.11807654765039
Cd 4.443356547615084 6.1912432083151705 9.665085428158246
Cd 9.311560816559215 4.888107871012284 10.503751352507823
Cd 9.512956744354486 8.967636363913769 9.549464267255908
Cd 8.99461355422641 7.399184103210813 11.987393748573458
Cd 6.489584585332672 8.615103093442558 10.726884840403358
Cd 6.563732808112552 5.563295232731623 11.570887720588106
