36
Energy = -13.14783771 eV
Cd 7.077824924611806 7.949418640804221 4.144088436495541
Cd 10.025720370454113 8.410813197526938 3.9345176941533415
Cd 10.352009523374035 11.086140311722492 5.047602335042248
Cd 8.043047565278263 12.99818407961982 5.4239900272697
Cd 6.338218346308771 10.736969278886784 4.525118226926165
Cd 11.494506387085828 6.458114799220232 5.548343382511014
Cd 7.212261227912116 4.968797928860762 4.128899202939919
Cd 9.745687874159687 4.061191986570857 5.187197294293443
Cd 5.271218874976708 9.419598192689266 6.977569489157059
Cd 8.324422607415498 10.708667253372033 7.450944890435244
Cd 8.82459121087075 7.793757804068047 6.826658871336877
Cd 11.325982261289111 10.222375030559336 7.879744439435664
Cd 7.688890182058524 13.781979603628493 8.451016322489476
Cd 6.0323630544308005 6.163672306908285 6.571927396939293
Cd 12.568716929894347 7.547589353236265 8.097295172409163
Cd 3.838994486805881 7.208544786831126 8.279010979729053
Cd 5.230158149684467 13.027347869673093 6.654557239507122
Cd 10.329474518042344 4.664564535091424 8.042754805884506
Cd 12.567277597463002 5.068310502149308 9.90700072303722
Cd 9.037365373332353 14.968492907344022 11.075767479213118
Cd 7.7248416488770735 5.932688218467087 9.02603412201745
Cd 7.202642907073644 4.297029048812268 11.550767651623573
Cd 15.102117157840045 8.051383191843877 9.741891072388764
Cd 9.683287417109433 11.875758150244671 9.981189867248931
Cd 5.233196352106083 11.590346263816116 9.27926768202838
Cd 6.95293695085342 8.974322720861837 9.483965109777404
Cd 4.657513058466852 5.568239299056942 10.590783501792849
Cd 9.946050080462767 5.386445592098932 11.38142680711266
Cd 9.922761790695953 8.112893895590158 9.76496529453828
Cd 6.9403117022644105 12.771919129823704 11.472581550863836
Cd 6.773958391005398 7.3154874522609115 12.034602647388441
Cd 12.692190352743058 7.550551376250528 11.61317650704865
Cd 8.204488834122563 10.110072551285649 12.04773333913062
Cd 11.600957216756509 10.284940286610516 11.59568728394861
Cd 10.084704455350263 7.874711412168235 13.14937583879449
Cd 7.508663578352932 8.61803440157488 14.691900674620364
