32
Energy = -11.79110481 eV
Cd 10.887049215611949 7.443990427305305 5.372210710725668
Cd 2.4425364814177235 7.676910478271029 7.666132585141235
Cd 7.7020343662476725 5.721429285257193 8.673304124927654
Cd 4.1736038268171525 5.148273436677512 4.414121875628207
Cd 5.79990695117555 3.4776136117446272 9.206225673274053
Cd 3.937983249115968 7.428077611387867 2.5479198629846476
Cd 7.307278888271694 8.488444620975837 7.176528861925144
Cd 9.343770027471107 11.994802828010187 8.84659588519222
Cd 5.050162296947796 8.044023854812538 10.015561745227924
Cd 4.667000749663117 3.0538615987061926 6.493470254466573
Cd 7.755328300738659 7.203904870524607 11.250406158380578
Cd 7.843611969942432 2.7260643252492844 7.124744552034799
Cd 6.0647436276120334 8.613004154900134 4.20722226911773
Cd 10.250880651100054 9.467318330572084 7.403663314909906
Cd 9.757691152999099 9.176030625103143 10.307625912672634
Cd 6.947912622892894 10.321392596149733 9.554580604693653
Cd 9.760320955097225 4.983805802586844 6.584413305046883
Cd 1.5374286378628308 3.4356793460605908 4.680326570900193
Cd 11.006914469014971 4.896889312402887 3.757669181859862
Cd 6.189623076306972 5.5895429967602555 1.9172530775536882
Cd 7.107603975456843 5.992974048769867 5.58832803542447
Cd 4.830850238210622 5.985108028282496 7.56103259411452
Cd 8.698825775059426 3.9502463377744883 2.1261273423584393
Cd 2.768298408217245 6.142538722957497 10.274240000892016
Cd 9.650449236689772 2.321210965927841 4.633974756873742
Cd 3.128875730037321 9.140101961900978 5.098361551639503
Cd 8.770599862360207 9.643056231006149 4.72486341918398
Cd 1.4021700431733772 6.540511700789473 5.015835619610086
Cd 6.715639715923531 3.3373838257131756 4.264572299879334
Cd 4.662762661366947 10.037397390129124 7.5402348927783365
Cd 8.632094883530968 6.956863470334559 3.201490554849844
Cd 3.4678850351938317 3.3233842844838284 11.032799487259325
