32
Energy = -11.63309989 eV
Cd 10.194655012316089 6.7374622858670525 7.587480801467905
Cd 7.280885640065017 6.807052593894853 6.235707413668806
Cd 2.6073651462540917 4.6921831732909 8.25362780699829
Cd 3.5819897227100803 8.446494238319206 2.2541533861956795
Cd 9.7962782142562 8.834395976363714 9.740319375304457
Cd 5.23236267321058 5.752722604074033 2.352305074353723
Cd 8.948437975795697 10.10842204873419 3.8670389330165182
Cd 7.102955866658386 7.837682800351466 10.714036597746958
Cd 5.729568180533364 8.658075840694659 8.043962075665295
Cd 10.499969426809738 4.518856474443222 5.455778396078308
Cd 5.618165048229221 3.291451985315144 4.037865135140784
Cd 9.892937057718397 7.409485463370029 4.610030885592994
Cd 5.479830853902067 6.018665126726022 12.763208388861758
Cd 6.213756001653848 10.422445551432027 5.300724844651785
Cd 7.963461051509873 5.334084700198228 3.6367304635921927
Cd 4.499240082837177 6.432580863971051 9.751074064866197
Cd 9.703506697428454 5.981386062569376 10.658936269839044
Cd 0.57944904866492 5.591770489692928 6.206708045509262
Cd 6.749851957540229 8.30977414235549 2.9399045256850043
Cd 6.2346303273662596 12.612090458846117 7.398772714718208
Cd 12.097705911915105 4.253042112768351 10.477863715328915
Cd 3.1919751760580715 5.013535590263251 4.535219512636261
Cd 12.849039712432095 4.792606427476752 7.625931530633455
Cd 7.837845763803399 3.333057796058917 6.177011291079737
Cd 4.652281071944337 7.782211432974349 5.289005200226821
Cd 9.897355000771292 3.475677534681119 8.39651479235941
Cd 7.53278023784606 10.704857927904582 9.323357866461336
Cd 7.383231051067746 5.352479896799901 8.834812799704556
Cd 8.834864748817726 9.482684479729691 6.847663731082161
Cd 1.6465346850764815 7.855432211446763 4.55909360840172
Cd 5.196542502227322 4.577420274681239 6.872993580487766
Cd 2.6232881343368692 7.857323765073874 7.667915514198897
