34
Energy = -13.25477083 eV
Cd 7.287617158454605 10.134274244452332 8.278105669599524
Cd 8.418339759116014 6.002516237352163 7.045868757066689
Cd 5.5321938059726055 7.466362787159413 1.9356174707711487
Cd 9.242392369036946 8.839532155455785 6.223588708401915
Cd 2.9980582109576455 7.74456310814279 6.292750979851508
Cd 13.336382293660787 7.267818751864552 8.641398126449236
Cd 10.860497763055672 5.5663441282955 9.194000532327188
Cd 9.752061344074816 5.130457606524805 4.424739819915239
Cd 8.033233126872013 5.838916241924434 10.135536674713723
Cd 4.01804311512216 2.4833075371807625 7.714984849054467
Cd 11.628997366197298 6.992294453102846 6.04355167670669
Cd 2.963498949826365 8.20152151540781 9.350902602338568
Cd 6.999680949673194 3.8355148091433797 4.116681353515195
Cd 8.382190000384771 6.325929097537791 2.134956867474199
Cd 1.966719984096651 5.196558203441143 5.10406826588447
Cd 9.60368585054543 8.407126183526604 9.249357981487206
Cd 4.583196885985434 2.057775137759035 4.617427215336663
Cd 6.960664302583408 10.83803961287326 5.366507655293535
Cd 8.424225009223063 9.166040086847218 3.321505418350793
Cd 5.899297022606841 7.513054190883951 7.741094620057417
Cd 6.483798276930354 3.8851233740386992 8.456450483163728
Cd 8.564384821157407 2.9244882215460857 6.538880437500407
Cd 1.7764874354404394 2.422097452979255 5.828488429097747
Cd 2.6805771096096205 5.267495188908167 8.41792243039995
Cd 4.612140249782743 9.408561154172896 4.166982098937708
Cd 6.982275006594035 8.502811249694908 10.940393829309203
Cd 4.815789123101324 10.376122129241477 10.194122265731444
Cd 4.377654142868255 10.367631294505589 7.173519722793876
Cd 4.906765358249771 5.104844455332602 6.100341460524398
Cd 11.393318761187748 3.9096359684098774 6.775587036277947
Cd 4.415245165433512 4.806156227359362 3.041140430878271
Cd 2.7196965658878813 7.3238511660120675 3.199063367151679
Cd 6.603280366022913 7.1994006912587345 4.899220074598083
Cd 5.018664851370642 6.017214909916639 10.208877577646405
