35
Energy = -12.66853782 eV
Cd 8.583696341006645 10.211340103986178 2.262499086165237
Cd 5.878141426076395 11.124660513371893 3.4474844448752906
Cd 9.521023728908053 7.613832849571645 3.50631493290435
Cd 6.555898067381036 8.00648646827652 3.3108748612981556
Cd 8.344862961737176 12.80756182342809 3.933412842691336
Cd 12.275114896265885 6.7905205727759785 4.37867528891154
Cd 5.0267201313113 9.202345423235165 5.595998397760028
Cd 9.96069303445895 10.480872634361555 5.032444625904604
Cd 7.141527441719202 11.376725891295234 6.391652232120995
Cd 11.883651089810225 7.885605699365146 7.261357232183119
Cd 7.975677131284693 8.377247208605562 6.195697659380585
Cd 5.708102159943861 8.279265491565766 8.484667025429362
Cd 12.869599463519108 9.778922085545968 4.959696813955255
Cd 7.423262888138133 12.194102307441314 9.203148306418761
Cd 9.783978019173583 5.762802120664091 6.032640956939328
Cd 2.645170926512313 9.676869691945148 7.348724230692497
Cd 7.262709723254335 5.7484149818918775 7.755674751278865
Cd 13.435166661529756 10.412138498372869 7.88829609639147
Cd 9.96121822600295 10.159361921051026 7.993082832467697
Cd 10.392711574744077 5.9937847667435 9.016964877590297
Cd 12.258936628673942 10.21889071732253 10.57735321303153
Cd 9.358622702327656 10.92350162091989 10.947846905739384
Cd 4.697228525281797 11.278052394502417 8.8619624653781
Cd 8.34471226397081 8.357406733771194 9.800402435912522
Cd 6.763574445198444 4.302978148712639 10.249175315927584
Cd 8.891998486607608 6.006692328800563 11.591841798050798
Cd 7.553637811238186 9.419614380205147 12.83584785735307
Cd 6.627605183950375 2.659455378540438 12.835937738977789
Cd 11.681096576533259 7.3879150203915325 11.347053178627093
Cd 5.005060899256173 6.616759481261077 11.161047339999241
Cd 5.074984972129617 9.552332353056086 11.292508996261923
Cd 10.820521442304738 9.57706194518261 13.283623757441436
Cd 11.213562017569151 5.2821301051479255 13.69213076935694
Cd 9.027172844657958 7.396837338929563 14.37322607641498
Cd 6.535143258900671 5.620294951139626 13.633518607546293
