36
Energy = -12.67663887 eV
Cd 6.954814366525973 5.11910411000161 3.2653813428563945
Cd 6.672188184643179 8.137668239014493 3.7716317140633753
Cd 4.718667135566366 6.124160712063442 5.133829133215243
Cd 4.167786666685709 9.075497838821077 5.666579546422477
Cd 8.669238237716451 3.0171917956130283 4.665939240163369
Cd 9.50525632237572 8.300748997096552 5.098736575875918
Cd 7.0554661344053065 9.763280997340091 6.296006971793806
Cd 10.515692563713621 5.362592324160299 4.641612702333064
Cd 11.97153340273407 9.217654383765128 6.591661952412347
Cd 7.800115925869277 5.922352693162622 6.314192962859893
Cd 7.839694882918189 12.591275615907476 6.704868155583785
Cd 5.3661534369336925 4.224479343065296 7.331862732047535
Cd 14.436237342115366 8.772578212811187 8.549433223929666
Cd 10.075309977103935 11.077281084644202 8.112355254610664
Cd 6.868614403452574 1.7426347041875905 6.605992596259555
Cd 5.60983460786302 7.46733873215655 7.914560046820108
Cd 8.689118891070871 8.20137587649526 8.323374463775261
Cd 11.711271649851199 7.637145000252428 9.272832217583455
Cd 12.985919981096272 11.273710818213447 9.311883072221313
Cd 7.129564615324356 10.971234596966134 9.340020385980377
Cd 10.537352512779359 5.405683417183944 7.61249257695247
Cd 4.2233122584982095 2.5069238245421066 9.757377157336911
Cd 6.140905453682519 4.975052317741849 10.15318642530898
Cd 9.075152233875533 5.816820952922224 10.36696870536056
Cd 8.805785517778343 13.770246901222686 9.355946112178636
Cd 8.356243246791996 3.52451267327458 8.534458645002703
Cd 10.591423522305 10.247596097320017 11.054688227640723
Cd 13.18576251879135 11.01938634037336 12.704347541444038
Cd 10.710735895005012 7.523872569039846 12.21670715164886
Cd 7.854975217544598 9.991072040200304 12.217135853813796
Cd 9.873050561468807 15.72432796159356 11.958614087228502
Cd 11.465867517851626 13.244610664865794 11.015372504607203
Cd 6.708117781310322 15.874833391702916 11.981937479944891
Cd 8.302575594895728 12.933895216524222 12.289058796326204
Cd 6.604684891915283 7.8148993480370095 10.743981566505038
Cd 8.357978788151735 15.16336244832809 14.661375118502582
