30
Energy = -10.36676169 eV
Cd 6.032659713432735 4.658864396320412 3.423868915030547
Cd 4.407394877080205 2.519749619059441 8.10177643111472
Cd 3.8152360559683145 4.1383831828604825 5.345985207064211
Cd 9.049516495501384 11.940964542322966 7.960880893537627
Cd 4.197839953428317 5.62078767714066 8.383065128647962
Cd 9.488057843072138 3.0997783227447266 8.643680472867386
Cd 8.963251567973323 10.127909471525145 5.3043284343498645
Cd 3.419481239508458 10.119392895140995 6.750302095537621
Cd 6.29830372293055 8.347131167488028 5.475732261811217
Cd 8.113471488544574 7.025494583015382 3.547647752442163
Cd 6.493829556170357 2.6205351123196152 5.932201829345018
Cd 3.7121215115023687 9.32963561582916 3.8439009561335387
Cd 8.064151141323395 2.304148769189483 3.3239236758767445
Cd 6.65082243388857 4.162784329374943 9.377841299920588
Cd 3.551301515446224 7.036584325786485 5.814256248781773
Cd 6.496718666691332 10.376219356548718 7.594923200704016
Cd 5.361334971532848 7.432671573824884 2.23455388219653
Cd 6.622564995999305 7.395677377031348 8.638512120600462
Cd 2.1248561846879888 7.860742141429392 8.56912117388055
Cd 8.965597009088247 4.409720423033039 11.385450070436573
Cd 7.161428681439697 5.538612799525593 6.302673484811022
Cd 1.8469519992334837 11.128740954313974 9.56566084960322
Cd 10.974500839982923 8.557913374604036 3.5730201881247274
Cd 10.083001972337884 6.605636848952074 5.943546221070997
Cd 4.536658059815882 9.34882357016545 9.636963153277266
Cd 1.8864723596377977 1.944999192900885 6.288316181095377
Cd 9.531363551293593 8.9345351286377 8.07378179480547
Cd 9.681316925086119 3.359775931779487 5.7528109523737925
Cd 9.440634225282983 6.1944315014777835 8.992562599215697
Cd 9.875773231647235 4.705968605186437 3.065325314871878
