39
Energy = -16.4790124 eV
Cd 10.258060547938515 9.090641464122074 3.147537840753071
Cd 7.663838271862431 7.130344698262053 3.4798835017112504
Cd 10.188312101208414 10.88061915329825 5.50546601577904
Cd 7.508634786861944 9.893635936728696 4.41422368548024
Cd 10.51652008412976 6.235123013208398 3.8053399278871507
Cd 11.58056251091255 13.432976918719882 6.359221170457326
Cd 6.767244090043916 11.522055554120547 6.682241000451154
Cd 11.531185041539642 8.261222298216584 6.601658013300599
Cd 5.565887006870089 5.862703918186214 4.928975976593257
Cd 8.749226217318897 13.610467330772902 6.8677220957637966
Cd 10.293861868962544 5.241587371861489 6.480224510622245
Cd 8.546696219527794 7.895238080973112 6.68702149063994
Cd 9.168064723370371 10.384985379488823 8.32129628311425
Cd 4.495511214547423 6.100512321435014 7.657471047281843
Cd 12.427222162059675 5.738239078867364 8.43466032826651
Cd 5.549461043567519 8.7232539360374 6.653022636178191
Cd 10.160710608020992 7.737441257442472 9.407659582040948
Cd 12.340088318929295 10.999181685730177 7.830039335019697
Cd 9.399868680991487 4.5745806874434605 9.22557112692742
Cd 4.116140222044471 7.342849552658112 10.221586673518049
Cd 7.525442088090585 12.935495921713558 9.495369054062307
Cd 5.850881944970051 10.306355235012848 9.249068245579549
Cd 11.185652883108661 10.42249645553117 10.744744830817721
Cd 13.287248311471833 8.663650306337047 9.19876826884768
Cd 13.941458215712705 6.510745912491982 11.024931570389272
Cd 7.362846392560024 4.964723057589319 7.122091712086192
Cd 10.627503994383186 13.129167200027902 9.260910192056333
Cd 7.197830999952199 7.115165416777986 9.343859979774436
Cd 8.27285406012707 9.613455659813278 11.04771216662853
Cd 11.530768770709633 4.926711466859323 11.229638654264233
Cd 6.571360756185288 12.052674628891603 12.078668867962213
Cd 11.467879720208279 7.8740926331546515 12.293340523974448
Cd 9.704055890945757 12.871470919970129 11.97608220890732
Cd 4.437532837512146 9.799047635805207 11.835167360076706
Cd 6.247385851254143 9.921938120390967 14.179661579093713
Cd 8.90348775605347 6.124218813351992 11.861600674714866
Cd 6.353403111711262 7.471819867371993 12.340323770833423
Cd 8.848993205910027 11.358124991168586 14.229019833933966
Cd 8.971338818106808 8.396007449848458 13.89323959389069
