32
Energy = -11.01466611 eV
Cd 5.176240091438235 3.520419287985211 6.581339695004283
Cd 3.2616598686688802 5.754003776459932 11.630057276718619
Cd 3.802391985855956 4.975722844783907 8.766347729757474
Cd 6.62809421002242 6.634764963720833 0.845273599334664
Cd 5.659187599167988 9.504691472858955 1.4754995377352422
Cd 6.443379053490135 11.174818202070929 5.663534877425475
Cd 2.0516636110545265 4.426530168257307 6.362802606432796
Cd 8.497187305483443 10.077111289919284 7.641833778717061
Cd 10.255434438711443 8.299085614781218 9.220938872123872
Cd 11.93131512714952 5.498375090631941 10.221543217007582
Cd 3.522966660160932 3.952503310765786 3.7250146686092687
Cd 7.383880567684544 4.975178191606891 7.965719073828838
Cd 2.602744481901648 6.8755581532779315 4.719848253172278
Cd 3.6918992585372843 7.98494936168937 9.587770905244563
Cd 9.241783866641176 3.5147025915545083 2.466160577263884
Cd 3.483523604230535 0.9606941950212737 6.129983093305073
Cd 5.574531148653869 6.1660624550181105 3.7379299987190264
Cd 10.495973774662666 5.679174317976618 7.569530656243058
Cd 5.2933294975791165 6.9694459418723165 6.695233854740644
Cd 8.40904316166559 7.352311054565919 6.118150618866734
Cd 6.993797457637547 8.285697236369504 9.96460477002735
Cd 7.6123786393302195 9.094565142111248 3.815684468327232
Cd 2.4355905633771155 9.141542151904765 6.901315479978692
Cd 8.822017991637074 10.706546922477491 10.775370127297053
Cd 8.975829074617884 5.863908630329148 10.502826246597351
Cd 4.439370278367145 9.237117835293132 4.323681635086447
Cd 6.104363808552628 5.438057951857808 10.801878523763701
Cd 8.09931995228455 0.6068020811049593 3.2594241078107125
Cd 6.5842821957884174 3.24246745582279 4.012908264588356
Cd 8.706113686641256 6.350628277334911 3.2207061383446685
Cd 5.2436097283445795 9.950520205431934 8.050937634543999
Cd 9.224145644120114 3.979986887768168 5.510688422473482
