36
Energy = -13.17509378 eV
Cd 7.550160379402671 8.861376912678736 3.8803702286319623
Cd 5.357561202790495 10.752699231052668 4.585299811268938
Cd 9.932125390461936 8.953622402868389 5.951283603489171
Cd 8.812294542496637 6.302131842459066 4.641544530642395
Cd 5.847341907681147 13.766891851033105 6.317969383832374
Cd 8.279332902193204 11.497927384133083 5.30848929735198
Cd 5.8211911400040615 6.4251327282742485 4.790449912996824
Cd 10.552191853060124 5.040765669847411 6.574745496604616
Cd 4.081226606548281 8.487162666721055 6.109884449621167
Cd 12.636628876813669 10.005259287834818 6.549859183895588
Cd 8.690734468358826 10.4471919341259 8.468087160118957
Cd 8.770378298090533 14.160792031220913 6.844300792219066
Cd 12.007183513202778 7.340842720146593 7.8522603579370935
Cd 7.116637900363479 8.034771291355396 7.127669428125949
Cd 10.944896195492475 12.226378042645779 7.742860457403825
Cd 5.7997454602148135 4.599104320026957 7.052201550348664
Cd 5.835446053212343 10.989023385870231 7.54821760815846
Cd 8.28663047816454 4.859913530791354 8.51814830957918
Cd 9.301958271023894 7.711892379206245 9.20448956840978
Cd 8.315251614488526 13.288634993895613 9.693534028025214
Cd 3.8840327982716074 5.843785428549428 8.969809879814457
Cd 4.388158395709405 8.78064906438045 9.081194569778468
Cd 11.251128294535672 4.587049691330811 9.500483252169895
Cd 6.568135578069213 6.869586630290716 10.037858746639746
Cd 12.750787538945245 10.449800083462314 9.526181541361403
Cd 14.15745850198749 3.4285632888172195 9.972663132744332
Cd 11.760312183836975 7.8657431544829155 10.92309533934165
Cd 7.702166818909791 8.987455863963595 11.754432707858667
Cd 2.70307147122236 11.031734663214397 10.283569311358509
Cd 6.116873479388932 11.168244467826222 10.520657835200481
Cd 10.309606646260736 10.598241264524695 11.205682349248136
Cd 8.462217743307576 12.52151937416815 12.645046156503268
Cd 11.906479645171318 3.024816798949214 12.202147781766419
Cd 9.4755002453064 5.850801630823055 11.883625260823969
Cd 13.452059317846778 5.630305784553135 11.974541792361718
Cd 10.024898922634758 8.461992839943713 13.609149819836004
