34
Energy = -12.42761794 eV
Cd 1.3997932468114491 4.639153247507942 3.8812005315562894
Cd 8.978497087850334 6.11440054461422 2.8640223365116424
Cd 4.036662850306242 3.1510306602949454 9.0833959454483
Cd 5.8779986069083625 8.164155409247956 7.585040209681402
Cd 7.643739405794948 11.603331090530533 7.006493435295688
Cd 6.746748984289582 3.873278482152331 2.3926157533853027
Cd 5.653337539080611 6.827170717174133 10.625541410338679
Cd 8.581119037615306 5.847923892879138 5.9170898032709545
Cd 2.4357664198690157 3.8563135193437192 6.617712908238172
Cd 4.825133833381052 5.4948223782954395 5.232296085931003
Cd 4.218107579338002 2.6920804659368573 4.02353576639653
Cd 9.363614782260585 4.387424111146876 8.632501721785456
Cd 3.0959499820319545 9.930270649279088 7.640771372551287
Cd 8.180483244653155 8.911032833375167 1.8071740499502766
Cd 9.728484518946166 2.1455711178611576 6.737839972332859
Cd 2.0984761964102114 2.3622839003554867 1.8892225378882048
Cd 6.035279200314147 6.762898195022652 1.9168243015919892
Cd 3.6105544805463814 5.116317389606618 1.8441991920071683
Cd 6.5101265003268125 7.838333973324694 4.655394630874547
Cd 5.597352060680368 10.851153703987306 9.251933761161572
Cd 6.874356391165018 3.091409989398845 5.483321063210241
Cd 7.789031136900074 10.690060391941923 4.182442927211454
Cd 8.512780915069959 10.039790990335328 9.398224718405997
Cd 10.489588124977114 8.542235092894733 3.849091909809019
Cd 9.417515238032744 3.3725076782754444 3.9573487468532313
Cd 3.519980868841937 8.816475060779242 10.370879703577259
Cd 9.070243000316173 8.738017312239037 6.4807964980440635
Cd 6.957672286005067 2.0851410334222678 8.615621910202584
Cd 8.346455281050861 7.082290749295202 9.095883160041609
Cd 4.649037536410991 1.432892483184855 6.707049101646921
Cd 5.120908436416245 10.467478643460476 5.550271294945901
Cd 3.4913273691439812 6.298673450223681 7.9689641407987475
Cd 6.303968830067605 5.035036180508697 7.9260063430562635
Cd 5.550770040738945 3.9994302931407626 11.500445092192509
