30
Energy = -11.58788258 eV
Cd 9.644004278989605 5.610922872459727 9.83226504445731
Cd 7.136690943582743 8.926850307873124 7.167637177066743
Cd 11.414918467926306 6.563449694086185 4.616902988619612
Cd 11.136205645016735 7.2660925591263075 11.874823181966066
Cd 5.352925253339031 12.550575526661621 7.075383397600736
Cd 7.094127938647318 4.005102946441216 10.99503166216892
Cd 6.128266057494053 9.32263959627361 4.084166092087712
Cd 9.33907187079782 4.9412559509117635 3.2855242924107197
Cd 4.461810258922406 10.414240915494732 9.13566536336882
Cd 7.398576783256635 11.26162821157935 9.280804095365117
Cd 4.048662423417642 10.145420801166154 5.990209242212281
Cd 8.418423130418473 7.6172560624377565 4.693272941565675
Cd 7.594049169482791 3.520502563748676 5.211456330812727
Cd 4.280867088625947 7.65829358965269 7.908475652684039
Cd 6.272703919839772 5.6981992258996685 3.582959476677536
Cd 11.353016374990062 9.460153451217563 5.231823126546294
Cd 5.995726493009555 6.252610326174047 12.660898842737074
Cd 9.915725934175295 10.483827988720105 7.640164580464299
Cd 6.622898939009192 6.633412004324128 9.566579368920456
Cd 8.995344856269758 8.68257948414187 9.94519942310241
Cd 9.928221823823414 7.35180973080135 7.364980291926772
Cd 7.929738589466701 3.6814845777570584 8.182499183375155
Cd 4.080576946471552 7.234821342202061 4.884496049011004
Cd 9.082839620834525 5.158177963035062 12.881845263826975
Cd 6.337161982372691 5.8934093135816426 6.664178229699781
Cd 6.097429813355109 9.127337653539502 11.253731615641822
Cd 8.212806908910942 12.85644474935212 6.597263259970971
Cd 8.407505381040213 8.129798821942272 12.931429231726112
Cd 10.271688431514706 4.490732721599312 6.506070756601473
Cd 8.713026679642908 10.725981052444856 4.619275842030569
