30
Energy = -10.77335108 eV
Cd 5.530681295509394 3.407998665509215 2.829967437989805
Cd 5.605319685279947 6.026677225565132 1.4164188615691424
Cd 8.190994063241646 4.907999394340096 2.545979038928029
Cd 6.274801770395861 10.388071709765011 2.8828227143515286
Cd 7.973649838327704 8.064121287179269 2.1402733987884703
Cd 3.8978090478487664 4.995806039013888 4.886869061100007
Cd 9.875703499062947 5.2739859778721545 5.002332341181035
Cd 6.967949064138178 4.308652899211122 5.4415210073907945
Cd 4.703484232471557 10.137338266249362 5.513227156582834
Cd 4.110192639952486 1.494364130750003 4.608476108159823
Cd 4.899073889556283 7.689342186480862 3.7122960333143284
Cd 1.1412761407144218 5.145936000477465 6.505362626489974
Cd 3.223056424984574 7.651329156836428 6.26916938440384
Cd 7.836347922637675 11.255022293374651 5.238787298359635
Cd 7.583337503553182 7.319986072234704 5.073805882497705
Cd 6.833195879801288 9.293026389374996 7.51795881346071
Cd 9.693384798471858 9.097043851782807 6.335019035820306
Cd 2.605385256674051 2.4659380074379444 7.186485878412169
Cd 5.740629846068661 2.1784038542185375 7.160977806985359
Cd 11.12372489384804 6.659453353122892 7.260021524479867
Cd 3.8992170548971457 5.095202088667979 8.090047794686681
Cd 6.574993692589576 6.315911275718234 7.690932938001064
Cd 4.273140619013889 8.140123986000892 8.973594549952232
Cd 11.24491875261924 9.790844766917596 9.203117371851393
Cd 9.037290508976733 4.530538129947256 8.158430128548462
Cd 6.263255389005181 3.5660191093512563 9.725638268466152
Cd 6.602565627794453 8.779669147657714 10.82604014783152
Cd 8.96689577784438 7.7213303955240695 9.181772299523763
Cd 4.858609684644885 6.0130712276983775 11.016187333335047
Cd 7.85911409305451 5.676792004698227 10.99646665051593
