38
Energy = -15.27388019 eV
Cd 6.8454523758555155 2.045266308506585 9.104403265952058
Cd 7.934309906739857 5.525081290039211 1.6958332254424502
Cd 2.5598094319303417 6.786832268357421 0.9702972787765393
Cd 5.841680983092584 9.3077131602734 4.644550991961149
Cd 5.375265966049728 1.2458208775166018 2.7759166519575325
Cd 9.211636617815278 2.094361695229078 7.425446019586468
Cd 10.774751039051985 4.476185551457194 2.339168826156277
Cd 2.8276682423968653 2.5508157969665737 3.7475697193516737
Cd 0.3256517151299075 7.839029912544987 2.6941342142847047
Cd 5.495148125569913 4.288922233901142 3.48476359012081
Cd 5.2492376401859495 6.407721089047396 5.630096728950567
Cd 3.118953537932364 3.8199121753679126 6.394513331192511
Cd 3.9943901019278027 1.1429432098584509 8.766845370458258
Cd 2.8097351942589968 5.725604712483234 4.052905490839765
Cd 1.1897118002334324 7.584249601431515 5.765365362349824
Cd 7.973183962121473 7.647346802217758 6.5604025385193
Cd 8.596058180009543 5.03906127340194 8.024959302457972
Cd 3.1930263075487946 6.572366711988408 7.872349879109343
Cd 6.124662415741707 3.6117051230760646 6.496063664407395
Cd 8.128129514034221 2.474852672124364 2.2281808714524822
Cd 9.993842906157766 2.617784848988394 4.620519955948418
Cd 5.45231685453024 5.522532718425825 0.07569783260037935
Cd 3.554253867143758 9.226783765874377 6.451315807719542
Cd 0.36280617069106696 5.127168309556121 7.395576216856183
Cd 6.151273174005018 6.715526726101751 8.754910352797909
Cd 4.381454773324855 0.9819624216988531 5.8357570773337075
Cd 0.20258805095818186 3.326199457443801 4.958025000740397
Cd 1.6449694509085695 3.0244477980645037 9.024798808687006
Cd 4.613916809333543 4.178133549508808 9.253525302752507
Cd 5.209964251377003 7.223481817245767 2.4941803820294695
Cd 2.9468979714999817 9.08402511547694 3.480003398654807
Cd 0.48943337713364526 4.723609700532312 2.193976367247322
Cd 10.774751039051985 5.999697572641001 4.617802834868936
Cd 5.997440609383066 2.5647399476724484 0.10337703158661807
Cd 8.151943460852763 5.064959633012436 4.80221355446326
Cd 7.3567829068092285 1.1861950212017434 5.0726234070768745
Cd 8.192322595224384 7.915709714914554 3.529560030319012
Cd 3.2943414307804457 3.7901466860007615 1.1212675851396554
