37
Energy = -15.67748893 eV
Cd 10.674989567416144 8.342938742364025 4.4210271500873555
Cd 3.113233875655424 6.334885443608552 8.718703390619298
Cd 5.980059660900801 5.1476707143424045 4.304126270253417
Cd 4.414480364598475 9.092449488231322 3.4599761137592617
Cd 6.094060827480057 2.4412301409738477 5.751900040435644
Cd 10.085871883201946 5.698068357853424 6.065194043977102
Cd 7.418463874958456 7.170627753579606 5.926783440884388
Cd 6.932229537300988 2.3319574280199857 2.5712132612837992
Cd 3.3622486690680122 3.489803426631819 7.566045162284114
Cd 7.580178198452153 9.132338831582894 3.467844401586767
Cd 5.961240333058789 6.944304420624761 9.874280065291403
Cd 4.402168025581194 9.046427865739306 8.27649391703719
Cd 4.619518992152646 4.126196201354325 1.6004911259100594
Cd 1.8723356279146834 5.773860651315528 5.937001152197979
Cd 8.670590133706881 3.575609353551619 4.579710321581384
Cd 3.229394124127223 10.536441097354622 4.8233791998954505
Cd 5.898341774588371 5.110615372112005 7.365685141879771
Cd 7.5222627179469574 4.199535905257414 10.61404329423308
Cd 5.979949746525321 7.067102044662345 1.9076010707420301
Cd 3.3403881504749195 3.5730588170880355 4.490776420075664
Cd 1.4256611327947486 8.488206465591702 7.395234689132277
Cd 8.930878267399665 10.223831597510571 5.94272684820433
Cd 10.58148875357612 8.33617861669833 7.567573935927571
Cd 8.645106594220627 6.257209726207294 8.714801853737601
Cd 4.5115686388296865 4.2657636788788045 10.391783507108576
Cd 4.4808681605719896 7.215419635125855 5.846955175857619
Cd 4.225565799178768 0.4823137200882546 7.402060605553625
Cd 8.765426627174646 6.330417389008671 3.212779818872666
Cd 3.111304125503947 6.314299047380819 3.0318691457790283
Cd 8.40266129247567 3.4475861321109385 7.617307022634145
Cd 2.947960088719263 10.536441097354622 5.826602954178971
Cd 4.199628938126945 1.2920432327319697 2.6109414970355505
Cd 1.4277506605871242 8.431160217396341 4.350882087932
Cd 7.561071850389042 9.12111458474789 8.434173533916695
Cd 5.947489398828904 10.058413158508664 5.914550517843197
Cd 6.044392288158807 2.095555190889698 9.024200132940509
Cd 7.559860040038603 4.702388315409764 0.8997863373001204
