30
Energy = -11.77091679 eV
Cd 3.577704116841132 6.28744625667605 3.072806832974068
Cd 5.25625931163396 7.708024699044653 11.015321664798762
Cd 8.977485564858265 7.7976977682780735 4.528191148733428
Cd 6.178387778066958 6.584245417107353 7.949668473078738
Cd 6.284907892673814 9.838960507002016 8.285871017358392
Cd 4.593382671459586 2.8262947674360723 7.9157487520386045
Cd 7.417182432300781 6.046214952205986 2.6257607338922395
Cd 10.343932993194034 3.6141992278766413 5.352160498605312
Cd 3.4920692993157996 8.475671205155093 8.752330833088058
Cd 5.721237984029142 4.4331133993051015 10.105851326969484
Cd 2.9536560867190556 9.2364422761667 3.4941613240355847
Cd 4.114745642806884 9.967309816734756 6.215278091455834
Cd 8.146584751778523 8.603119251884694 10.400905871550401
Cd 5.585474840223723 10.876957842998017 3.6424832636981987
Cd 8.156004571141494 3.225599310073188 3.281173017743717
Cd 5.667677879064935 8.361910694630765 2.060066174748253
Cd 7.793217638927345 10.486751394543473 5.4874304403590575
Cd 8.685261549072283 1.1575203388024524 5.5897973765552464
Cd 5.939337376358713 2.3238990680894047 5.362578308282179
Cd 5.911694772582067 7.6664066512355475 5.203644206347436
Cd 10.65224722154632 6.224722870256066 6.515406676509189
Cd 7.674198528136845 2.9431283663643546 7.942887823005296
Cd 4.338578711179853 4.960230034958379 5.652407213080921
Cd 5.218804146880144 3.7924244011705457 2.794573904252976
Cd 8.97655947138732 5.481954461167495 8.892203650993554
Cd 3.322937975000526 5.534541840848345 8.421543979087307
Cd 2.4010966720322724 7.378389089292216 5.962574772400136
Cd 7.519341560275895 5.195099887837284 5.732090563053867
Cd 7.6688692546182375 5.986012372857114 11.641162361685382
Cd 8.821872354593449 8.376422878701351 7.494630748317255
