34
Energy = -13.49349823 eV
Cd 7.798773373751293 10.777076074911497 3.2065305771623436
Cd 4.379952550716191 6.357608861288038 4.670047391184773
Cd 8.28343267804125 8.068702623843015 4.145898115955861
Cd 7.112720762859946 5.8907372541614 5.859014209117068
Cd 6.104648605687052 11.737652159512988 5.630041697139909
Cd 5.361705167650609 8.886456018396947 6.23054774964227
Cd 8.769370716957427 12.954094008130257 5.052899628200227
Cd 4.439120082633893 4.793714298819132 7.357306693416487
Cd 11.02158887907145 8.590439171746478 5.510940967741494
Cd 11.001752180517308 11.473316259378263 6.173964086967182
Cd 8.365490351596852 9.514983601389678 6.833563707720968
Cd 7.197813387811985 7.343448668958048 8.53719609230805
Cd 10.075622775316972 5.804428371136717 5.210629734957716
Cd 12.558596662335171 5.799288128983991 7.032502844946553
Cd 5.853352201460345 11.045856086498631 8.506470501729174
Cd 8.655678357032679 12.248950834965639 8.096808471696303
Cd 10.19197086145862 7.759489421684308 8.395233688985055
Cd 2.66497176613323 7.3103448191286775 7.080346777090482
Cd 8.264029245725087 9.747810140327424 10.246808141622283
Cd 10.975613948368741 11.045642496833764 9.518778361658327
Cd 12.66100883455987 6.05266628849088 10.08270836701184
Cd 12.922635059671574 9.764006629261905 7.691002008995605
Cd 14.658835286088689 7.58714747193555 8.53189744574843
Cd 9.287160356912947 4.887878339914858 7.9020949682259705
Cd 4.411176718268872 8.337555552725973 9.302172272139167
Cd 5.405583559485096 10.443045560403366 11.311004978476937
Cd 6.836509554328981 3.4194046565456757 8.60698427957823
Cd 11.276986878695839 8.552865034135408 11.054143431634557
Cd 9.849468935913004 5.3868591105555055 10.774006757563772
Cd 6.581768842370577 9.537123383408037 13.820369659811508
Cd 5.274520542899418 5.409390122193987 10.266980088776288
Cd 4.6591248016324505 7.589950791147884 12.323828036100759
Cd 7.5252918414176175 6.887791812131433 11.593536469230227
Cd 9.32372574000344 8.744277454429117 13.193743304838044
