35
Energy = -13.04078171 eV
Cd 4.952505618478652 9.024315018892512 6.493079681526867
Cd 7.5133081269598305 4.5331323356265845 3.5905471266233406
Cd 7.447879977711716 10.695733414880834 5.988195929068664
Cd 3.310302660552583 10.883866355335917 4.227959365178643
Cd 10.762554703679001 5.550412057935696 6.352696684199677
Cd 4.881502940492438 5.956011437651217 6.512165333905844
Cd 4.581005404066425 4.618179822415374 3.7435498586690645
Cd 9.225173586893115 7.781002868992819 9.31599573011453
Cd 9.716950019069287 8.939468873007815 6.671753445855262
Cd 3.374957531310983 8.203192365998444 9.005089248638013
Cd 2.6158273725508123 2.418102121531236 4.1045409511595
Cd 7.806147010756923 6.701352006181277 5.837593246967904
Cd 5.547055855829565 2.116087073295459 5.298408100174825
Cd 10.26381120253982 3.129275173819625 4.056190769492978
Cd 3.6326711895104045 7.407026333384396 3.9922326114774904
Cd 7.99185867030224 1.1514980476817305 3.8423864964897656
Cd 9.972502714804337 5.524665826813273 1.9376465379805294
Cd 4.108152870049162 1.566963915909504 9.729086388573647
Cd 3.1293434187596367 4.801557707067241 8.788243377814927
Cd 5.884519868334474 3.3979490048879177 8.057025384558557
Cd 0.8832403152371154 6.769846444892441 8.212261674616785
Cd 10.463074244467318 7.731155459817667 4.116458220546763
Cd 8.31983266907132 4.83783554626874 9.178412126510551
Cd 12.347083452355754 5.255155502144834 3.795148873425749
Cd 7.482707049384607 10.155538282563596 9.809864254724252
Cd 5.524163989959047 11.637869519640683 8.196941735147833
Cd 1.871912505432544 8.716231277122656 6.0998238066351265
Cd 6.016898442042072 9.516611517783964 3.5348383079764756
Cd 3.4191455081004576 10.911214291867413 10.40220801894442
Cd 1.950032174406696 5.249388195903018 5.74579827153645
Cd 6.298401741271441 7.303086023663779 8.740924078691894
Cd 8.447815173400318 3.6303936199723386 6.387506993547097
Cd 2.8570475179460093 2.363713989741268 7.037774040732042
Cd 11.37900875809156 5.744017131243038 9.249130502077133
Cd 7.723621819348846 7.349718945588682 2.80482145648779
