39
Energy = -16.01964545 eV
Cd 9.327551289164388 9.071828628548232 2.3646607821340484
Cd 7.631366106400423 10.966177482324232 3.761909675334777
Cd 10.373577636339927 6.68879355324593 4.069534861076235
Cd 5.744147619753455 9.647861586365392 5.63034571892962
Cd 6.828434579501774 7.663882522300375 3.5057421223433236
Cd 11.88940081163307 9.339115632072662 3.8256500944942426
Cd 7.76461074986652 12.109124292248609 6.5642861101335335
Cd 8.548652009070508 8.13656498897593 6.116083611255305
Cd 7.869021226607133 4.944870402338559 4.084289896609572
Cd 3.364874773014322 9.749827038802913 7.714790735240047
Cd 10.373229924348394 10.78836273171608 5.893670511843812
Cd 12.676106951027645 7.523238098422485 6.048976200340907
Cd 10.566571666569262 5.626077282598582 7.03058239755774
Cd 4.901052208466529 12.308103202504592 6.9500336406028715
Cd 6.959556230518536 5.144228647656267 7.134204321823837
Cd 5.047328436016429 7.3159795247700465 7.272463935368844
Cd 8.95433753171132 3.084420836519882 6.245780354779593
Cd 7.188097730942525 9.582077155745955 8.265109648087474
Cd 10.636542390035626 9.044623330327926 8.296522321415003
Cd 5.704873367329223 5.7848329842332955 9.915814640368072
Cd 13.031783956134383 7.180209412382208 8.925439508394458
Cd 9.794255129961051 3.652558596563286 9.124682544209943
Cd 8.513051397570953 6.931030359923202 9.086798203510693
Cd 4.442255386857268 11.646611877057483 9.778337019224011
Cd 7.361272537163199 12.308259859759126 9.68042809587854
Cd 8.778272882468961 9.464861420258972 10.70948976170665
Cd 5.075050880995477 8.693598334945982 10.202268370237306
Cd 10.140461219834831 12.056116512023014 8.59994718759032
Cd 7.002627614119609 3.1461287769709148 9.768249992108558
Cd 10.953637321897727 5.897887554445491 10.650930005600168
Cd 6.042617079955924 10.888465738888252 12.154971262687233
Cd 11.800900980371093 8.73397974576074 11.173616189998484
Cd 9.722672049647546 7.391518552212215 13.086265909680158
Cd 6.62005204690194 7.503665279443725 12.480487642885334
Cd 11.571318026957082 11.851388482675107 11.170640580210085
Cd 7.996590585910228 9.740890728706544 13.999694174529411
Cd 8.304335552586116 5.004754790559992 11.863584743342415
Cd 10.873355226978855 10.216341512492079 13.588072119478639
Cd 8.829766375548056 12.375352033392122 12.469254599166046
