34
Energy = -11.39350495 eV
Cd 4.345904662957835 9.413631802208203 3.1696296116499623
Cd 3.893432439733328 4.482212486749149 6.413220984336497
Cd 8.362644364536992 2.2794575180004326 9.8702797748761
Cd 8.617405147084586 6.731475527312404 8.447515421374053
Cd 7.21391886856614 4.177904429397134 2.4877334817345402
Cd 8.822579131493402 8.08728637491224 4.137019915655958
Cd 8.464198447090142 6.037591519538057 12.596844392237896
Cd 9.796006419706725 2.476902409912482 1.9509105888380665
Cd 6.075433567494249 6.985449227830016 3.270454382517503
Cd 10.07253163057172 5.381236407115547 3.0343066295843935
Cd 11.255049752967144 10.495136938694438 9.349841619045765
Cd 3.420508516288803 3.255232095879643 9.609006007136111
Cd 3.2716939393127173 6.8104930334841125 4.677679245120133
Cd 5.092253906812354 9.474599541404636 8.897725299996406
Cd 6.046443148199743 2.668705602664254 7.837585558545945
Cd 4.890083417728224 7.066725547925058 11.00888845417454
Cd 3.0185901733466323 7.366779524518748 7.958318980808735
Cd 10.052170136541207 9.213555940732325 6.659905127449186
Cd 10.522714053924226 6.240894483296607 5.946311912727316
Cd 7.227188785010705 5.618781159948556 5.647024631856586
Cd 1.303316079696765 4.77901105221862 8.019642602182783
Cd 3.8170056897122806 4.593122048977775 12.596844392237893
Cd 2.0437905745628977 6.233693594253363 10.59570506345342
Cd 6.777499795641043 8.68057680689895 6.365374459436657
Cd 3.6532713678803006 10.54945198409734 0.3848461209964668
Cd 5.749183720511255 6.029847856630144 8.322026703759336
Cd 8.944738419558469 3.9215070996415777 7.456725227083749
Cd 6.703137294907529 9.298005814907508 11.758856581538112
Cd 6.142671150181 4.148856931146737 10.701220465576409
Cd 8.973656258080407 4.967978582768479 0.1363742758016085
Cd 8.191952869402456 9.618317910886041 9.181661464441909
Cd 9.044853425332212 12.147316519837096 7.681851230205794
Cd 3.932837765263471 9.599248867325295 6.083575444456869
Cd 6.005283383073806 2.9129616620572043 4.8723454690520285
