38
Energy = -15.77964192 eV
Cd 9.540999422836524 7.814942862337655 1.736973301948469
Cd 6.646337038507277 6.671331044552227 1.305300567916082
Cd 8.725745152861915 5.235774623555283 3.063760047451097
Cd 7.278491999431327 9.731962041280363 1.6879207075328866
Cd 3.846361828186642 5.6775803437534575 2.6111680062359954
Cd 6.082382031959081 3.7709689569214073 2.6589152127436524
Cd 4.859676785731015 8.51847651036323 3.0104496642012246
Cd 8.744154839865608 2.222819701529157 3.313614047385572
Cd 1.8731441499667087 8.038812018875339 3.244795253348946
Cd 10.288346029100728 7.208841022915083 4.783514633720971
Cd 6.0598981702247725 1.1454747175506432 4.227286305227408
Cd 3.8603654326558696 3.471186432770854 4.988387893632894
Cd 7.166583411851271 7.338372924978471 4.573841818209651
Cd 9.509340000576401 10.081732709529655 3.8029683526723668
Cd 4.440550935087224 6.50763649303548 5.492839425497573
Cd 1.257279200757887 5.233375692942548 4.201523376358208
Cd 6.54082414299501 10.393888449099451 4.729204755147925
Cd 9.850552866595889 4.1943176384061465 5.653590832189185
Cd 3.646342409104723 9.505286478394172 5.579546933747016
Cd 6.592824968313351 6.710894261133754 7.495065195067127
Cd 2.163233696297552 5.025049047627591 7.111003860370377
Cd 6.775761816795298 4.519509689072612 5.527770844151475
Cd 8.611593106810364 9.060628251846163 6.6463027606114835
Cd 4.788632311266934 4.534419361896426 8.401774677463967
Cd 1.1471462688149994 7.690809412566048 6.099459718796451
Cd 8.463925570267689 1.4394180124005107 6.166215565189106
Cd 8.20329825207129 3.7256911081065183 8.226214215471254
Cd 5.83835004890944 9.72504324558768 7.703251303416928
Cd 5.637309833264649 2.020843150290638 7.098033292314429
Cd 9.673681390903116 6.413189105521047 7.73481991416475
Cd 8.5054972330746 8.990631829367295 9.697067751494522
Cd 3.702853206643825 3.331846918446889 11.513385915826726
Cd 7.931361778900285 6.005854562645474 10.345052233045749
Cd 3.4402812391911577 7.843421355825694 8.166191766210108
Cd 6.4959376285308315 3.1406933271622828 10.579217796875902
Cd 5.650483325204657 7.94528179809803 10.347779869319913
Cd 5.560138455247807 5.555440374855679 12.460824163698689
Cd 3.0597630907845796 6.01800359434767 10.474417090932892
