34
Energy = -12.59952184 eV
Cd 5.041564598878986 6.538110575088301 5.547828230912912
Cd 6.266920083175642 8.659592809342012 3.8260698595851683
Cd 9.110562668683917 8.955209942404712 4.367062409582944
Cd 12.079438368073236 8.89920591886201 4.460826975057003
Cd 7.895641021732025 7.467808673622561 6.640003485147013
Cd 4.497673120446322 10.284163965439053 5.538639696174219
Cd 7.624340806055038 10.657235055754956 6.528312106562969
Cd 10.616719991346102 10.794506967991692 6.525236847534077
Cd 5.2356371582694745 8.504974599082875 7.997099944182268
Cd 10.890434447940132 6.942586225007466 6.673503018122948
Cd 8.032579081378662 4.364697749468735 10.292461047567924
Cd 10.830627451339357 13.566793349566732 8.118219663171294
Cd 13.005808625522487 8.887727026049987 7.38033476750008
Cd 5.264099468054063 11.590925611075939 8.089805264445083
Cd 13.259921781033599 11.757470650691127 8.706504065736972
Cd 9.119421700612476 4.748197447298068 7.548637997140599
Cd 6.017723574889102 5.685597647881133 8.445486974027949
Cd 12.805639217294823 6.329050055904821 9.42188647246202
Cd 14.41312704009878 11.659334941302626 11.804323737906792
Cd 11.608899755808123 13.002829270212716 11.07918244281944
Cd 11.084994963237357 3.9154881631385567 9.851246146976875
Cd 7.272704462382285 9.856119412932815 9.835857993054981
Cd 10.129267794382521 10.642070693638301 9.451705843648925
Cd 5.78777425958004 12.510678881197398 10.861525895298378
Cd 9.56340706532494 7.749471337785068 9.22549605696179
Cd 13.978870151739168 9.108735385328638 10.127047407020164
Cd 7.530312860657523 13.098638281670205 13.229489743648179
Cd 9.6264366378249 11.100174527700238 12.385404397304145
Cd 10.30805836468767 6.066838585650562 11.784932777502945
Cd 7.245249245581099 7.130304856085656 11.139549404047221
Cd 6.920779649176496 9.608263282478783 12.841928489052298
Cd 11.50983957996412 8.854384733960677 11.605623731985451
Cd 9.35178046313933 8.205719947012605 13.671035195889266
Cd 4.8101360598393805 11.593484947522603 13.734123430119821
