35
Energy = -12.94522649 eV
Cd 8.341617360758613 7.149249719544556 2.8968596600586016
Cd 11.210858566424317 11.683074704276834 3.210815965824752
Cd 8.587158208274229 10.077872757431503 3.4591461273098205
Cd 11.164033886229696 8.423894614413669 3.5416543819089146
Cd 8.104967350369584 5.839862537637768 5.463478377467144
Cd 12.170035301849008 7.36483244954096 6.148428483598028
Cd 7.2658177590093835 10.756990562431092 6.076046295761346
Cd 4.550693694193812 10.209138069567583 7.118674391919169
Cd 10.255204224742867 11.671950001892279 6.09845293075155
Cd 8.25926628778994 2.955688344537257 6.814711309118769
Cd 10.336289459322838 5.431424324088115 7.374788133625525
Cd 6.184463319154204 7.773054143113054 7.007598909787653
Cd 9.28229495991482 8.513843556180516 6.800106246472235
Cd 8.254868255891942 13.098358197941558 7.824305458718694
Cd 5.816081478368811 4.70399566206069 7.053476304712864
Cd 12.374293649084603 10.081699984742395 7.3984129424692044
Cd 10.804601773429486 12.213158176484102 9.44758449893257
Cd 11.192519216199969 9.19126116301719 9.948846362630638
Cd 9.321505114872624 15.59939119134077 9.477857737595821
Cd 8.294517597377865 10.317614566607118 9.08433261584379
Cd 9.035112211960561 3.723338510101542 9.582945763385592
Cd 5.199113777731388 11.26318250297629 9.77689263230729
Cd 7.983772618274958 7.01713795107313 9.333582690905699
Cd 10.764603008402922 6.338870516239563 10.21300479062981
Cd 6.640159403313329 13.875503562690028 10.185475574338732
Cd 9.266855835583982 13.677491513430038 11.852613712110982
Cd 9.563070036061962 10.7523975185809 12.022950136284695
Cd 6.849928697407311 9.207265811119838 11.446664124140048
Cd 6.074799409787311 4.558939521118552 9.939541453596593
Cd 7.5406154417287 3.2289238805275766 12.205626008253148
Cd 6.649325870746949 12.005371957361069 12.508720437444616
Cd 10.552069306038574 4.205876544655547 12.241628844090139
Cd 6.563968524475923 6.420973019810298 12.147907913763179
Cd 9.508421733250529 7.848436518031537 12.653842409685184
Cd 8.584138595258755 5.36697787871602 14.19006830783847
