31
Energy = -10.89938927 eV
Cd 3.440022395352248 8.863645395678258 3.6127919909383497
Cd 8.938159183047103 4.363697877842307 6.751044726571691
Cd 2.713240368498272 10.86513505763151 8.728234716192862
Cd 5.630685588927748 6.711016007551229 3.6017221632348257
Cd 3.0144772785331053 2.98225113617038 5.656795075916837
Cd 5.3262652192103275 2.630154479579486 11.011463354509443
Cd 5.318564716898177 8.82345805923191 1.2148779498141598
Cd 6.5640103679139346 2.707818519660765 8.03111435960468
Cd 8.014943748975163 4.870732907579416 9.662483153324532
Cd 10.22391861233931 5.568741428571947 4.113822503890864
Cd 5.562148414810003 3.908198499128195 2.2490566879393885
Cd 5.212279357298147 7.424787656948967 6.761861755902049
Cd 4.154028326210192 10.199839949246783 6.21958951784714
Cd 8.176725560359934 3.343475992368001 4.068905585197923
Cd 7.998989822412361 7.194168471891353 5.57033304518899
Cd 7.165115681394308 10.076674971704504 6.82043826307845
Cd 7.23504214746071 7.777536517829057 9.161802474318481
Cd 6.488962336809759 9.80448438188516 3.864058258860593
Cd 5.562346464584041 1.8415155274430075 4.3781288115436485
Cd 8.127543771920694 5.777397456219218 2.009113942265827
Cd 5.625105747452217 10.314910901567675 9.670135103009562
Cd 5.820320085267383 4.642974989497068 5.809162891343852
Cd 5.060003214176911 5.263928850460786 9.184651723454216
Cd 9.840717176207807 9.65928771058611 8.025635579854248
Cd 3.1383828853141478 2.6796201558408197 8.86417353296163
Cd 5.7774181556505235 6.077037000617069 0.08471230112869078
Cd 11.250654523583831 7.778276624730625 5.8233270256304985
Cd 3.4637455278624407 7.965742574518904 9.391606707170023
Cd 2.752529346708558 5.542933032793725 7.1751583352527355
Cd 10.055100045377069 6.717236289706398 8.431902888130418
Cd 4.646009163111495 0.6364138303731699 7.0052115784715445
