32
Energy = -12.67354777 eV
Cd 10.537026841851782 3.1534418249008542 7.294306300132507
Cd 2.2760667079599606 8.57935786369969 7.848024294006918
Cd 9.74766505935845 6.849544291840341 6.578050345770083
Cd 5.453491738764504 10.585361459171443 4.85024583124623
Cd 7.237303384160151 7.080665820634484 1.9538709877671727
Cd 4.8842711128333285 8.832218196707418 2.4889534809756553
Cd 4.4616764413254835 7.618163014544897 9.811487984930825
Cd 3.3787653131170594 8.078295598742187 5.051779049704564
Cd 7.285974890249972 4.200627926945408 6.270407667845585
Cd 9.753755703072216 7.877562173057275 3.719700452502901
Cd 7.086938084499884 6.357997450131432 8.550711015867149
Cd 8.346264030094144 9.263262104606172 8.567519669403856
Cd 9.822981789921215 4.48138798860867 4.714131955893043
Cd 2.025396130950101 4.637941638325444 3.9199330256155016
Cd 7.124054412330234 4.236850716543822 3.194621273581827
Cd 8.302610000944961 9.756906607803137 5.675059556664501
Cd 4.542614168272339 5.913935442481149 3.1966038546872313
Cd 7.6244676613279525 10.040960573166823 2.7091059412393697
Cd 4.725734885814848 3.2257966860542044 4.735610241974655
Cd 4.56584400867667 2.9139501731399746 7.816733032718606
Cd 2.5332251006597293 5.393459751007507 8.652861690472362
Cd 4.970745873169721 4.706374810943634 10.260171373433806
Cd 10.014814370945944 7.088657661183799 9.552324016504299
Cd 9.757347362903666 5.420453955692021 1.9193487653059775
Cd 3.1967478394391793 0.7874564815275285 5.863280791139995
Cd 4.685874553696612 5.823060630668112 6.596198089036535
Cd 6.92543969070506 7.045947584719756 5.0465597433771725
Cd 5.62310397224778 8.822698281533244 7.268216235770921
Cd 7.339465056254123 3.187186333385523 9.090462397507785
Cd 9.960608431609579 4.23097947652807 9.97993314043562
Cd 1.6878890385317207 3.3682486518172094 6.6172666947222245
Cd 1.025176123943852 6.361686474079566 6.162299239064442
