34
Energy = -13.585931 eV
Cd 9.032544507237573 8.91821771827147 5.070808431007759
Cd 6.458954767221948 10.227028216306145 4.356590486415105
Cd 11.950516392765625 9.751556159984387 5.229683778034861
Cd 8.113033263401096 6.22685215624179 6.237129892989758
Cd 8.436820619763802 11.692461109979936 6.250403199788277
Cd 10.881583443374646 7.333452236259829 6.824380816481794
Cd 7.6195097530473 8.808865047874342 7.814673396765767
Cd 12.928439858422024 5.4620033299422515 8.57687107220459
Cd 5.560530454040965 7.336657192749463 5.158972570454569
Cd 4.650374900566177 9.765541806284872 6.71784482446539
Cd 10.747061710865783 13.396632419167975 7.320305642516577
Cd 9.927235282223739 4.73091694840039 8.178571067493314
Cd 7.456589028353666 5.913427363439587 9.52263781922506
Cd 13.179959513756698 12.164507974949553 6.161171852191278
Cd 9.974917092631253 7.631548632613782 9.731063575086896
Cd 8.63783543497086 12.959775958769672 9.368022501425868
Cd 5.042776965452795 7.189549456103193 8.295508348298727
Cd 10.281766177576575 10.263125235018368 8.384868831079908
Cd 12.3706772743433 6.779788313024598 11.442052061404059
Cd 4.32293106035255 9.773149185193414 9.836392618872631
Cd 12.936471936004034 8.525010200741272 8.600630841603623
Cd 8.088472967949622 9.804638645857874 10.565298470268699
Cd 12.987040264096612 11.628878201012917 9.07816001806825
Cd 6.280922425727557 11.523712617445332 8.449339287590439
Cd 5.8855021382947665 7.782400897147114 11.406312389423999
Cd 8.527452050299111 13.084190372854108 12.654613255812517
Cd 11.40427099043199 4.030560754420279 10.711105013101069
Cd 10.69832851256894 11.6752343348548 11.206364135311778
Cd 5.977560784368797 11.634037292655481 11.701384250884974
Cd 9.259224988834422 5.6198287693851325 11.995141633523167
Cd 7.758310512629642 10.56388772200086 14.034648925459333
Cd 12.91524736191434 9.719938924798946 11.327236280414947
Cd 10.293908980585561 8.891863488231559 12.597092428272262
Cd 7.83090622648684 7.60843895857997 13.612397924623453
