33
Energy = -12.69027845 eV
Cd 7.508869571508935 3.6418365586125794 6.323730471391618
Cd 3.5216563050033285 5.346998774168324 9.53688617524872
Cd 6.241670377743528 4.920372744915475 10.851399301193897
Cd 8.488074336128468 5.550414047184112 4.189680980141993
Cd 8.580687004606991 6.882243615839336 10.693587729016413
Cd 8.758717345637908 10.72470020217543 4.401146907788699
Cd 10.706091116314767 4.805805467827073 6.0370976097832125
Cd 8.338072407760352 3.4564298130264173 9.47399181295028
Cd 10.657904146762371 2.5238484434472137 7.960243755506699
Cd 5.632831220997838 7.566292876681848 9.513463420327609
Cd 6.148686231132603 11.913711385434349 4.953047339191662
Cd 10.52765750647249 11.881787568607763 6.531648381425869
Cd 2.8826384929893734 8.54717689853065 8.280269513603576
Cd 3.663565189232556 7.689888465760541 5.09164948626299
Cd 10.909794462804163 5.4198525409394875 9.22819923470787
Cd 9.488806082833188 8.01864897858103 5.577073166101203
Cd 5.1552210000188845 10.517117718674639 8.803471043710015
Cd 10.027165248166325 8.901494601521957 8.519656532804058
Cd 5.5349498340201615 2.9795165605522884 8.48724872138265
Cd 2.9071919511842137 3.181342716192814 7.25543307617937
Cd 12.237758985117459 7.108090448500351 7.1031868613090365
Cd 7.880994471367224 11.488035289992153 7.735418670940941
Cd 5.36027464011847 5.850495086506616 6.840284397896651
Cd 1.8879085568202434 6.0761262164941945 7.050466188985704
Cd 12.671298828467394 9.97039164393537 7.036023940597841
Cd 6.615011333016978 7.839194532937061 3.861993720809856
Cd 5.5896552994464255 4.915657992263756 3.8580234774764195
Cd 7.779202549392584 9.731806466365219 10.234758353952774
Cd 2.7434042240953067 4.623210485973352 4.578790666087968
Cd 6.650649545116238 8.704737528838985 6.683169376251481
Cd 4.409906442988892 4.137418288250561 1.0426023786748009
Cd 3.9004153505374997 10.451667764894827 6.084389893900758
Cd 8.125255668596097 6.288602764652669 7.763350375048844
