39
Energy = -16.5312746 eV
Cd 9.839667989097707 8.631978114228973 3.9863833102241504
Cd 7.159891656080892 10.404205431105991 4.6348120743658665
Cd 6.934447325949164 7.566877814451246 4.396519496709081
Cd 12.275991777877355 10.042235134035288 4.705130025906796
Cd 9.344095636218483 6.563398529902282 6.038350364953412
Cd 7.903036085392023 12.671154414013346 6.332314102631917
Cd 11.592329165969334 8.375890191060998 7.17642549641156
Cd 9.874746560949765 11.697145261623367 4.307263846907038
Cd 5.764208280430278 12.23083755961357 8.275220386908002
Cd 12.481259788711162 7.6916634724953905 10.011219115537152
Cd 6.005363890814383 5.956632755459812 6.571110988071135
Cd 8.303511493837119 3.9240134632136385 7.07365355564909
Cd 5.696864830572167 9.133500258111347 7.042330551931265
Cd 10.880517539706936 12.396213793473956 7.045370952524368
Cd 13.788971549534718 10.747487508382315 7.032592926112312
Cd 8.014254598447817 7.362428422027733 8.659999121102539
Cd 8.589570182035693 12.862387341180877 9.2790393592196
Cd 8.941374645665203 9.74619322865112 7.13596428569456
Cd 10.61155044317137 5.798533673425511 8.743236291320667
Cd 4.89567923719822 7.085481483674426 9.337744449931522
Cd 10.640667058878439 10.262260219578303 9.52596089230107
Cd 12.80024266299377 12.882372942848132 9.150606383590615
Cd 6.075173185638846 4.3842484387493075 9.108645965704985
Cd 4.245528176115083 9.907424684753675 9.639162343921083
Cd 8.837462770880938 3.773815197965604 10.014975117001894
Cd 13.50238548359366 9.077074302624522 12.470678033845763
Cd 7.53022940428803 10.03893206555462 9.89552160048958
Cd 4.475669721585987 12.648570331807088 10.899707328762203
Cd 5.623965197465201 8.559244590750524 11.939954055363325
Cd 14.288810309496196 10.189720115104095 9.814099380506818
Cd 9.579512787275535 7.988807946983022 11.201517194040555
Cd 9.306773589694048 11.893738702201727 12.049198848502694
Cd 7.1893539011368945 6.072943599627055 11.386759500523508
Cd 9.888048489671514 4.87682537621247 12.491472973886122
Cd 11.899560918715311 6.759249154192956 13.216735171275099
Cd 6.461587308073198 11.504728878261286 12.657592063731686
Cd 10.756713120140803 9.725618027315866 13.49347431770565
Cd 12.303635286255481 11.749976382574388 11.769150004512921
Cd 7.910511895856327 9.029355138180597 13.703272067637524
