32
Energy = -11.11580953 eV
Cd 4.649936539168063 8.362602534139029 9.881729559046041
Cd 9.526962287191461 10.042642812557004 4.238198501229075
Cd 6.4903588392197165 6.608198947243324 8.105862611929455
Cd 9.777040296536018 6.579064870541851 9.786257791980017
Cd 8.832438888053556 11.307228596629965 6.8946846341821315
Cd 3.600526296017953 10.06610209489094 6.15799132053725
Cd 0.787893480802363 8.790004463804483 5.598165142847915
Cd 7.6672261339666 8.6955279209634 10.071107761048287
Cd 11.022058706830169 6.0777916820806785 6.871108202984449
Cd 7.725505559192867 5.938050947409811 5.455019489615026
Cd 7.378341484459194 8.849309574305911 2.2798014499058046
Cd 4.189360686972217 3.16051469361587 6.627550484399776
Cd 8.111358455969832 4.399765909376909 2.677916176805502
Cd 2.5145310684487456 5.7132143269561055 5.7110792552101675
Cd 7.157790291516601 2.988849024977838 6.191160802969098
Cd 6.661605522471706 3.739074395986331 9.143491420992813
Cd 9.027190253591012 8.316577670535693 7.201778797616291
Cd 7.213197930926103 11.876729421603745 10.341186553541482
Cd 5.439308558425579 5.174341137687444 11.513981400084205
Cd 12.137584671685913 4.6393520574794325 9.837637066907181
Cd 4.925861907488315 4.618978137590394 3.9967896965201217
Cd 9.643403431025323 7.093093391859145 3.5186645024941594
Cd 3.8279994690037635 5.18138252068905 8.860795026576147
Cd 2.506834938311796 7.81897222701526 7.920825820889554
Cd 6.08525120111342 10.305413317231926 7.920305702892961
Cd 5.121916077077087 7.382017819790682 5.414385676306222
Cd 10.294276982173532 3.9435154834676847 4.693647179397482
Cd 6.633357028372637 1.7665201499168084 3.4835078111041353
Cd 9.558858879742466 3.729643587652778 8.059148999654507
Cd 6.391896671856876 10.056633625386638 4.899171872963365
Cd 6.326177582711048 7.837856315023164 12.585856447869606
Cd 5.904664512857515 6.334997283195383 1.7568070476003759
