33
Energy = -12.58640938 eV
Cd 9.43038358101787 7.579042315943248 4.017154368815424
Cd 13.334244025042638 11.44167389712281 5.8384845025100685
Cd 10.288765820065741 10.196091415102075 5.429189119685745
Cd 6.629543330518514 6.864857709092135 4.567437174122635
Cd 7.293130219173118 10.009962362851331 5.19618599597314
Cd 5.437678816698087 8.08072315627634 6.917358393930073
Cd 6.546629977362889 13.44658162287107 6.268224320918912
Cd 11.204850174442743 11.716024541582374 8.110523216806145
Cd 12.936788787220065 9.196407360179055 7.880117279553067
Cd 4.165950059791167 8.995677633145652 9.52865072905296
Cd 11.020938007584933 7.469086648966504 6.585059914783138
Cd 8.54209918802822 5.310797756148964 6.276803852110694
Cd 5.5387072156963555 11.010382331315979 7.524548223263932
Cd 10.502233595738916 5.411870035553764 8.669506188552493
Cd 8.312333779965641 11.205629956635857 8.778829374408565
Cd 8.292620928177696 8.117639504583778 7.800094447731043
Cd 9.438408131428526 13.077687707891998 6.101736307315813
Cd 5.722127216536313 11.387587201292227 10.454702620643964
Cd 14.297207413700846 8.72319642168489 10.452574263990886
Cd 7.754013759212739 4.493479032369664 9.304385209189258
Cd 5.601253884147992 6.38776031446285 9.43160076162629
Cd 9.723957986856707 6.632223137030554 11.388005025593944
Cd 10.524177379079141 9.060188610634778 9.700689075772472
Cd 10.41920710942604 12.25669864094295 10.986851172487041
Cd 13.176904579162814 11.363604519270618 11.340675346647952
Cd 7.531400781132353 8.729908126620286 10.584381218539546
Cd 12.643499912752937 6.1751822623360555 10.532048001553674
Cd 7.003747949239635 5.561485056990643 12.152759300091443
Cd 7.861116785345208 11.833631177183047 12.369828382837044
Cd 4.960681468889631 8.239437254881352 12.359438748808024
Cd 7.547345709793624 8.038926659236841 13.867384701726861
Cd 9.810026509515161 9.612768853614142 12.711062362786107
Cd 12.454938066134218 8.320698925065889 12.820622547050279
