31
Energy = -10.54351963 eV
Cd 5.524663740912948 7.490527056440933 3.535736316289833
Cd 7.145613383695516 9.130124426721789 5.810596021125049
Cd 11.656894895495135 9.221018999264459 12.579891979892004
Cd 5.288079848477265 1.7301369863315303 9.940091837045864
Cd 2.5377596576598407 7.593453340899056 3.2842376271775713
Cd 5.182766327834829 10.206389876617571 11.062802789344051
Cd 5.685744257689267 4.71912701488554 4.638674593353512
Cd 4.92076404217052 7.039894124731127 6.647443225655143
Cd 7.814883104354829 5.877924349677508 6.550083129715348
Cd 3.224874308360349 10.54079203796162 3.3299073773262116
Cd 11.1646924933498 6.8727347594870905 8.413225404067934
Cd 8.396787903432232 8.418148795506905 2.7117687331993667
Cd 9.890104995733127 7.6898424194418515 5.210849112042316
Cd 6.062765354682738 7.425480928459473 9.833412750499697
Cd 2.539501156314291 8.956392486472447 5.983015430414704
Cd 11.952358277550207 5.567074678122108 5.779342333347214
Cd 10.186944849538131 3.769205217362363 7.355221947908437
Cd 4.924068487821094 13.180469306915462 3.7113394770935266
Cd 7.420092219116607 2.9787228756447934 7.960086576108224
Cd 7.47455655076097 9.019443682953662 12.585711692621906
Cd 4.978671521710561 4.852661527120528 8.881590508504173
Cd 8.41677044832484 5.31514610507215 9.626215848044765
Cd 9.528611006598862 7.76380548464909 10.92945109256645
Cd 6.290492971541281 10.462376826149452 3.1700117142417894
Cd 4.904754933939932 11.19195400640703 5.978240934633998
Cd 8.58867251955124 8.57963172356988 8.23425257738933
Cd 11.683046622867373 5.7322028590459 11.766098186332252
Cd 8.430551978375073 5.497909251316165 3.478279363607567
Cd 4.266803793800225 9.584820596746706 8.35444544900877
Cd 4.694478453947849 2.792280922111434 6.671011161237994
Cd 12.535572901596677 4.1126503411187105 9.299307817409519
