33
Energy = -10.36076872 eV
Cd 7.514243794128856 10.725832029714137 7.0712801175338
Cd 8.831770200638871 7.0175199577293546 9.846841540119035
Cd 8.093625121996277 6.151204805878536 0.968762625267137
Cd 2.138428998938352 3.6522084074982 6.553504529537195
Cd 4.335579023109349 11.45396980001632 4.101820755328508
Cd 10.013473715216515 4.416599226670298 5.114569083133053
Cd 6.836287724601507 2.594992173417433 8.146744462966344
Cd 8.967727521873623 4.602318149702969 7.88058210199938
Cd 11.262751318107934 7.277470511047139 5.352034993686847
Cd 4.673356867234375 3.3737405512286536 3.897733510280137
Cd 2.915584531307921 12.737407754245899 6.473468967363227
Cd 11.51648993175214 6.320436232269011 8.307962850740902
Cd 5.904878398855076 4.824425101691847 6.356035816412272
Cd 4.8027562470477285 8.070966430723232 7.525329272929524
Cd 3.8654334107851875 5.328716747484136 8.579501410381313
Cd 7.61000611612688 7.280071739087488 7.010588505760222
Cd 0.9387859918585724 3.6456270153576864 2.599087339625078
Cd 3.918133558896982 10.728522263374428 8.519017352782722
Cd 2.4397281435986695 6.594402889170389 6.059322388824856
Cd 4.341568097123239 1.701000907795196 6.8314499681368455
Cd 8.56432535090351 7.571688463045509 4.0944825963949185
Cd 10.06036591760481 9.040123200038822 7.749129720232013
Cd 8.59311856283279 1.1217114632862268 10.086719538270682
Cd 7.270403318268135 4.794852887600155 3.5719360362848938
Cd 4.607826965480989 6.387921413574822 3.929178976352286
Cd 7.077324291272742 1.1725874822951923 5.534605265307448
Cd 2.8472471043410437 9.305705858252585 2.4522738610359753
Cd 1.6928067550040602 6.500192390464072 3.0892564272386105
Cd 1.17220663812929 12.737407754245899 2.9154587608775593
Cd 2.4078744045810505 1.6440439748927604 4.350631443040626
Cd 8.805192209115472 2.185506385637928 3.357597574242046
Cd 1.9007748321681797 8.067903897537386 8.797222267429284
Cd 5.864662470192248 9.027022891321826 4.868888518491978
