34
Energy = -14.09682538 eV
Cd 5.388559185826891 7.567780305116103 6.7048237216954405
Cd 5.5927413961421 8.562698316713137 9.610771549206168
Cd 8.800835734727963 3.1867131621510514 5.179572956830442
Cd 6.5747201276164775 5.074266413190525 0.7002540208319792
Cd 8.064242216550943 3.421252156889065 8.124443656480464
Cd 2.1413687512060844 7.745194571176095 8.99280379275707
Cd 5.548306990679933 4.643856813900262 7.0182761193726835
Cd 7.429717566998169 9.34764467111292 5.101162076211177
Cd 10.98754355210364 3.652944231792235 7.23569490903375
Cd 6.228225366547311 1.8806908284594923 5.841091839642635
Cd 4.663689821604308 8.649648566907999 3.6688367254947836
Cd 6.378473671926376 10.89939853965915 7.683540774518466
Cd 2.626276882635444 6.119174382008985 3.7530517437428466
Cd 8.541677839007948 5.1544507909943755 3.043717142209644
Cd 4.825073126378137 1.2052903313919825 8.278490652459148
Cd 5.776036652655828 5.857416548081872 4.243591762118573
Cd 10.0800133995458 6.146166870364035 8.629953543690903
Cd 4.295283384456006 6.993816124395025 1.2292741471722837
Cd 9.706748038861694 7.778868208234985 4.028946651081244
Cd 6.368329833784876 3.0087565582602602 3.0701029317914488
Cd 5.876788303534242 3.1323104812966176 10.315663898427438
Cd 3.858737208693436 3.4791981922883726 4.760899694496829
Cd 7.30800844934562 5.935783880587327 9.779349698281623
Cd 8.226139930970339 8.458543905929897 8.019322287675921
Cd 4.33201968757031 5.826744573476159 9.496141377406449
Cd 3.8564358909142293 4.073003546442582 1.6775602843138004
Cd 2.8139710128470585 3.1900837109509728 9.109479696355619
Cd 2.4598886019270556 5.2807800294426865 6.869865466901487
Cd 7.227574818611759 7.770761881847988 2.2246130791950542
Cd 2.591245576084974 8.209212113830452 5.9586769859388085
Cd 3.4436890915108007 10.258496807316494 8.179516671367853
Cd 11.451660718046883 6.303334742857607 5.852817886424476
Cd 8.07407245376298 6.104640262032866 6.124050230008721
Cd 4.354741242387862 10.9739140063647 5.386478552328721
