36
Energy = -14.61156559 eV
Cd 8.889802736402661 8.468005324195019 5.047973178299308
Cd 9.816349041678333 11.232572392734298 5.138307248406361
Cd 7.479250272690767 13.104543465293975 4.822389935967449
Cd 8.27720024981154 5.7132888664248345 5.8583191252474895
Cd 11.608324020525018 8.93068319680589 6.366756435340203
Cd 11.89254104695424 11.955818497616335 7.411244525833191
Cd 6.279445112249961 11.216085112956545 6.634758751236911
Cd 8.963580578976876 10.49600137897799 7.938352652236367
Cd 12.899140782615696 4.058712960732193 9.231663351116225
Cd 13.95333426599008 9.93801230950796 8.18197115182317
Cd 6.17302806914482 8.202345227499407 6.24429649130235
Cd 10.967640136868077 5.936220337650964 7.027120598864882
Cd 6.959442943745505 14.380280115292981 7.608137197700255
Cd 13.59342586222725 6.914575291455218 8.011807893056021
Cd 9.84630852941673 13.973545040262373 6.584837569179027
Cd 4.717424780142027 6.513192497039886 8.332554874576537
Cd 6.09263605607221 4.26730115064378 7.025886353219843
Cd 10.852445285111422 8.513411065723838 9.292801693906096
Cd 8.203788904855422 7.564446498498483 8.39505978293655
Cd 6.862371742205058 12.092157832456868 9.601468683506413
Cd 5.995954740366228 7.491257397569497 10.974064069074881
Cd 5.365766192924898 9.519797425841096 8.894234925968838
Cd 9.633820420824415 13.255114318349907 9.463893749089113
Cd 10.27206684930991 5.39878425406754 9.941172485350577
Cd 13.908176124871382 8.306472744019409 10.731255469862338
Cd 7.3108835936541405 4.934949726421754 9.687259681074911
Cd 11.946936776472178 11.192111135617779 10.263751015939514
Cd 8.510687233364507 6.515884830974513 12.161546161333664
Cd 5.583253860582252 10.56441563100593 11.830155298752938
Cd 8.45260247333388 9.466039312731755 10.72356379672863
Cd 7.439713258828384 11.267883105263682 14.037547731513309
Cd 9.651335038970993 11.92094807494292 12.139112051240929
Cd 11.447641468393591 7.198721507913576 12.00881946903178
Cd 9.467979465228309 9.042983362310785 13.585491483083782
Cd 12.220643292630724 9.982684516545508 12.906177117118535
Cd 6.416082341820428 8.42177764391509 13.847271550339933
