30
Energy = -10.88288036 eV
Cd 5.399307754284457 2.6183849167302378 1.339803755800986
Cd 4.801974282282539 5.57820585173691 1.5630891061197691
Cd 4.686888173083652 8.603440058548141 2.5972300015580423
Cd 2.9285586579057012 3.6248407567236622 3.046690531595892
Cd 9.652495717672425 6.161882028048133 2.7859480738609097
Cd 2.475212264257072 6.8223357996266145 3.651958461106122
Cd 5.821514198097894 2.0916937089526004 4.240076974364175
Cd 2.7023445133855506 9.741321340786934 4.600197947446902
Cd 6.825110946100866 6.610912573558494 3.54831483213538
Cd 1.3082513613506983 4.720675450913709 5.408198239642269
Cd 11.129905822659227 5.439073029595895 5.23062447186202
Cd 4.934187617544678 7.940931404756697 5.790008393235978
Cd 9.200760996498204 8.358788863874805 4.784801576762241
Cd 4.800170370281155 4.928404050870286 5.110305844936773
Cd 8.279995067014521 3.8531518052373666 4.371059254949067
Cd 9.690621063992902 3.865394432874849 7.223023094878982
Cd 7.605382494768925 1.8001323911291103 6.670159544174769
Cd 4.80146821749948 5.559021965401837 8.456880256907736
Cd 10.033818520670991 7.099501219926297 7.636730702555914
Cd 4.665668746764954 8.621192620318938 8.903926615222334
Cd 2.47238897880604 10.138026742132611 7.5471819211718545
Cd 7.55958161645016 8.886482262189505 7.1957290023772025
Cd 7.264632876905306 5.830626803754812 6.550616038081101
Cd 4.725520887611812 2.7201770239941343 7.167444527228621
Cd 2.2449180530337505 7.089580758934124 7.239724089859109
Cd 7.137569116308502 3.7076640115877537 8.993952115391318
Cd 2.1987423783493725 4.054672014403019 8.183401720881884
Cd 9.639996499360862 5.281136231007831 10.03847996221559
Cd 7.226250169025602 7.007402307066222 9.73721500278589
Cd 7.0949631388042915 10.553148076091079 9.695428441664463
