35
Energy = -12.42226975 eV
Cd 8.554932049777712 10.832101928487997 4.706204655860022
Cd 5.703412469892815 11.737830440067462 4.73740463339564
Cd 6.951740023855648 8.305542175075384 5.694565379394269
Cd 7.409427957292418 5.386681430944781 6.910487984239332
Cd 9.75496740736433 8.084149607094881 4.263557308530093
Cd 9.034168222389033 5.210007460236215 4.36765822632892
Cd 11.589242950771009 10.371183194937903 4.895109551841168
Cd 3.725223762809927 11.321091789089493 6.918980534090151
Cd 4.034763465457816 8.392114129922684 6.353755095296002
Cd 12.045155084798207 5.475689154704746 4.481198120155002
Cd 9.157058080784843 7.853342349669965 7.5982774151153825
Cd 7.441788444429066 10.859618355129719 7.5971299548220825
Cd 12.072912770952628 7.843395636993213 6.412528113406979
Cd 8.129334374585977 2.729926892637111 8.139488513191555
Cd 10.278943973891966 11.847717931614744 7.075101939872538
Cd 10.548189246263851 4.410788824923712 6.939989963358017
Cd 2.0443652402157677 12.249762954455122 9.543532448429781
Cd 11.61116254656409 6.340817549070162 9.010283200520451
Cd 5.103650478673492 11.50224648922941 9.591984672246724
Cd 2.7718762755040385 9.27707639656314 9.28818095859265
Cd 7.837161288791116 5.972427017764086 9.925241207311915
Cd 11.267102651567768 9.630199893695178 8.8073951554628
Cd 10.994324839440273 2.792139848795116 9.58993979262781
Cd 1.8040843519406204 6.820677748544219 7.657705991489433
Cd 10.754235669093264 12.836889171750492 9.832517455912987
Cd 7.236565814660776 9.25656014965658 10.198782243063413
Cd 8.302680799405259 3.0219993447118134 11.130279303110386
Cd 13.516494354967424 5.940432231321272 11.732873816572877
Cd 9.850202108582357 8.073623057160958 11.065620429430394
Cd 5.2417555284918445 7.166972899933118 8.874424397036597
Cd 7.778719518688616 12.71725059661111 10.107630948746356
Cd 10.447656455700237 5.180307108778445 11.54163997542023
Cd 12.745740029634113 10.68086882577026 11.305585714763275
Cd 9.540232440433734 10.95042534665669 11.843339973738349
Cd 4.621920916390804 8.8293336620674 11.7627965206899
