39
Energy = -15.16313648 eV
Cd 11.109713033912184 5.364506422721425 10.031454612187488
Cd 9.166069821848557 3.981106036983264 8.219104923827976
Cd 11.179673521050903 6.814610585686697 12.596681165191763
Cd 8.459006506705226 5.892983250825433 11.77984376570356
Cd 11.075335926793427 3.5030323867613986 5.449259894880946
Cd 10.982925285402844 9.640076839796045 13.241483772231552
Cd 14.495560469548295 5.937608471014242 8.759330665870445
Cd 13.226829949051163 7.858405991876473 10.63416546630876
Cd 6.756449371654607 4.131774907996364 10.168264648640973
Cd 8.99498302968359 7.378999731744515 9.154620126506542
Cd 13.614368095704792 5.259910051444113 6.009347499488537
Cd 12.442142994137345 3.48325318987452 8.176388542119899
Cd 8.341221971257056 8.99612616547913 11.616309000256786
Cd 11.539472609644216 12.48794788763437 12.176656061860651
Cd 8.808377746089592 5.548762475004603 5.615366195634355
Cd 6.450631594622491 5.578432599832106 7.608845531642874
Cd 11.674385501854394 7.663045452071694 7.8285996397633575
Cd 10.989274278985112 9.725262182734951 10.09625304779415
Cd 9.32573027882448 11.870842365358081 14.257755790961225
Cd 5.6115897069058835 12.04922725831564 5.681847682708849
Cd 4.743264404049648 9.32226915906679 6.428583034663727
Cd 4.662598478117623 12.769483384254622 8.462140614613128
Cd 3.4457843603558844 10.384247638920153 9.855954333035708
Cd 6.726105563722305 9.581294224604216 4.098802044278358
Cd 6.873117492504725 14.221122853243385 9.880092287562361
Cd 8.50387843208147 12.02214370302174 4.645950536910908
Cd 7.999790441870649 13.152902954983354 7.31410321479056
Cd 2.9700282219493648 7.96801236081843 8.340702492805756
Cd 6.987013115609015 10.487781189584267 8.494100579412397
Cd 9.882839214846982 9.355165385241778 4.745725293248445
Cd 7.748142211129123 8.275737210566188 6.692291767839796
Cd 5.855600049623696 7.752221549607179 9.785735650879257
Cd 7.326666258157657 12.90847841073306 12.442213528008123
Cd 6.230989070438014 6.620277272656376 4.351056524736198
Cd 3.8909807822017717 6.125409580787053 6.170050257462352
Cd 9.821990191259292 10.58814850078972 7.4505418361701174
Cd 9.286408240056959 12.317427219250826 10.050866331884087
Cd 5.937795259114498 10.600860500690152 11.302892712434327
Cd 11.42951159070495 6.947347719494635 4.952863997153326
