30
Energy = -10.8345893 eV
Cd 2.9807368127214504 8.494470900434246 7.763323569158605
Cd 10.249827408135122 4.9817940135947865 9.114767970199356
Cd 6.584375665262359 8.987286505628965 3.899301022349648
Cd 7.53333779987058 6.2358090742768 2.767014237640984
Cd 8.32557995898219 2.644259404166361 9.179469205038648
Cd 9.948606933804388 9.654558574086424 5.860774675883957
Cd 4.673984652769312 6.548458505091534 3.785811060558355
Cd 8.995717013297911 3.907546677004733 4.552857626127605
Cd 3.488726027379208 2.494951788130553 4.769422091515096
Cd 11.435706007066134 5.199275386254471 6.035505490124036
Cd 5.707138490787588 8.800654814100769 9.35778247146007
Cd 8.42252415849992 7.348151442617141 8.995811092807486
Cd 4.138645870622938 6.133454252612521 9.142570585149631
Cd 8.262237341197732 10.359143499114394 8.391157733555085
Cd 6.097771699129258 3.80029776445315 4.000143578746543
Cd 1.0344326759389764 3.9100584242917993 5.78026897662125
Cd 11.407984544805322 7.4781360386969595 8.010474558447898
Cd 2.0798859975844635 6.626633869873128 5.546325629887248
Cd 10.257764915545263 2.561733479520245 6.949279707335628
Cd 5.5818440466135435 3.581363687450524 9.496676681255769
Cd 5.878051695283096 12.259140239460613 9.153556134151373
Cd 5.130504357755207 10.487251091489238 6.7396964701435955
Cd 7.600789699117934 4.906886419933197 7.1934131893240645
Cd 9.048384332441392 6.907535570049595 5.24086355233786
Cd 2.919883872007828 3.2196532951597177 8.039383605091281
Cd 11.414494986003524 10.448445094617306 8.522455575243212
Cd 3.414589781294536 9.198604879801108 4.7442575655969925
Cd 4.778048326808026 5.146608070523619 6.372962322489562
Cd 6.425368475506526 7.631656102112892 6.616870932475179
Cd 7.607485764972255 11.47061044665787 5.402232000487295
