34
Energy = -11.50546439 eV
Cd 4.136425141575333 9.734608884637595 4.918107750695329
Cd 8.814740858893416 8.538758676548301 3.72505146727261
Cd 5.847338834259683 7.455096124614118 3.599527299387473
Cd 8.042794281999727 6.248058300394476 5.465567048894535
Cd 6.927709116929658 10.819170943631066 4.4249842763317435
Cd 11.11244520715771 10.25180081216477 4.494907002104831
Cd 3.9077555985135324 5.233087376236294 4.566186155764242
Cd 8.941954722466365 3.410232620424548 5.849068104844384
Cd 11.125043405479808 12.892079410151542 6.076182465528123
Cd 5.834935464832576 3.6568922746339863 6.3053171867207
Cd 8.384431555999925 12.014824186216265 6.913283604503214
Cd 5.758363817288583 10.434546426233103 7.427653039570731
Cd 8.38840129499115 8.816553130521958 6.919556929750794
Cd 5.039794298137749 7.28289556426123 6.586483565628092
Cd 11.118581884375995 10.213096278462048 7.598410231542192
Cd 7.792919212014162 4.961178580394416 8.299333783995804
Cd 13.126019973228708 12.898133654872144 8.31218441629443
Cd 9.660516806455915 8.740734569535611 9.842840812242704
Cd 12.857583772832083 10.527252401969454 10.177492131467261
Cd 6.561621394173141 7.689502083951634 9.129880037519673
Cd 8.105966020982741 6.156121134629337 11.105889737625231
Cd 3.5466793775445717 9.077166365323446 9.500661709138626
Cd 8.691451462938359 12.738721465208078 9.776847111207255
Cd 10.651817994307763 5.586955815217101 9.36263519853786
Cd 6.653053524939592 10.450261868989104 10.359449805926625
Cd 12.506924586866518 7.633996040315181 10.62184246627858
Cd 11.452246656589491 13.260946139224881 10.813494376244638
Cd 7.00816619154077 5.411725904663942 13.835350331275965
Cd 10.993179883818561 5.731775833030664 12.459801651436155
Cd 9.027833685133514 10.673018983158311 12.170299287828275
Cd 11.858241297977582 9.590700736607024 13.013386081415547
Cd 11.020798646032734 12.480378496402778 13.658612719535263
Cd 9.07610889383093 7.934149726864689 13.452867070578918
Cd 11.82833294956306 7.255757004183899 15.037022956584881
