35
Energy = -12.61256074 eV
Cd 3.9972565566296008 3.494326845942756 11.133658874154927
Cd 4.775383660270171 6.292474957742261 1.0646663193552444
Cd 12.666451386681398 8.216182235880032 7.935842040635581
Cd 9.920563075820574 5.7570237029425275 4.983233492922756
Cd 7.187037422541469 8.763062291830469 8.4540015873483
Cd 4.495131484954868 5.4402834890568 4.105276678926502
Cd 4.72128971397961 2.5800422406779546 5.31194241449419
Cd 5.034628990866026 2.760920479208261 8.45682982944477
Cd 5.51652931007804 9.227084746997125 1.0421228094426453
Cd 9.0071018330907 4.708614870141785 2.23346655687689
Cd 3.5079307242419997 6.532550504991071 11.151054319511427
Cd 8.731819718200953 9.715813564830047 10.96667519780705
Cd 9.938202488340986 7.569015883127946 2.3313916263624934
Cd 4.29443358820433 8.03820580519605 8.668590014074505
Cd 7.304790693765541 4.0673008507722335 4.5403708720249485
Cd 8.457098719372048 9.178406683532431 5.19527913019106
Cd 2.597836304191325 7.766143457185079 6.007825256359679
Cd 6.995891279403083 7.049865586214232 3.2584592445062146
Cd 9.76627236260174 7.5381596106838185 7.295619311736601
Cd 8.180879269576984 9.928935335647454 2.236224664362967
Cd 7.329669402890904 2.063223835492325 6.761043629541435
Cd 11.414899325383754 8.239271945753783 10.740806670698836
Cd 8.728549933919053 6.513624393712094 10.19117923885071
Cd 9.2151850690959 3.7800717541693287 13.091961466984138
Cd 8.4315145464602 4.700568978557238 7.693599630548047
Cd 1.5687737183732695 6.479043447212426 8.545613449390883
Cd 9.438419862182633 7.496588771575968 13.09196146698414
Cd 5.741514894171334 11.145277106807354 3.5643336470638136
Cd 5.3046301474503865 9.405038344060955 6.033802462840607
Cd 1.1729028532006394 4.35632754873581 10.688811732089787
Cd 1.813821054805231 2.997190516714077 8.017033666488532
Cd 3.841416504105155 8.44568242852712 3.4557419041969113
Cd 6.443469341387282 6.554932152475917 6.320774700117179
Cd 5.979814837569661 5.45749909476045 9.505956387528036
Cd 3.8353331805643025 5.097689793216547 7.042262693481346
