30
Energy = -10.79655588 eV
Cd 7.640003473710872 7.2146104461962235 2.705956441462298
Cd 6.026112942628522 2.214743323289447 6.523465817553587
Cd 7.491612788235788 2.8839272024485814 9.223401552483981
Cd 8.82243009839461 2.5674144090940496 5.184687055910104
Cd 2.372929135374183 7.942670787973948 4.033326164899531
Cd 5.034229531248708 6.440337605607063 6.495110473940621
Cd 10.487983688203537 11.167938276225819 5.705927158925991
Cd 10.41053540836969 7.796213496175347 6.1528281456365095
Cd 10.08117544246608 7.392517244360865 9.153036978840651
Cd 5.4471722046970195 10.43162676390153 9.24115799140297
Cd 9.149431930557304 5.5004958412955025 4.76904275576366
Cd 5.852488920340787 3.848663665777357 11.627282566247903
Cd 6.39909308838528 4.1217630321053775 4.235528091284253
Cd 11.07427490712603 5.050795415426475 7.449921572842225
Cd 5.112883624393245 6.662756889215549 10.701117347359922
Cd 10.033405543078665 2.3542224011479362 7.8987569382380345
Cd 2.689946266945192 9.250416167669869 8.820098344159483
Cd 1.2239575597198273 7.4581354415558705 6.641729737854472
Cd 8.160119727965634 5.572659011240178 10.495552446544357
Cd 7.28213938561203 10.443056869689979 2.2257945313057492
Cd 4.465928821215871 9.732540274449645 6.413047840043928
Cd 8.95685829431104 10.035637774227638 8.011745836903676
Cd 7.310472801969751 8.392833133264439 5.7226143918195
Cd 7.005256560552552 7.962878458892571 8.843065126312611
Cd 4.824030560622708 9.550845481246899 3.4899044967610786
Cd 9.712715639358837 9.29717914175415 3.526372323627868
Cd 4.86547975572705 6.423108164682913 3.45772447549971
Cd 7.674519332417971 5.376429174115708 7.367335943781718
Cd 4.839349820670074 4.031083571513796 8.545311966840808
Cd 2.9297067512946087 6.258744541050575 8.715399491347107
