39
Energy = -15.14165581 eV
Cd 10.412825846090955 8.334916718322829 4.523405672703626
Cd 8.219569221812367 10.336072156707612 4.639696180380374
Cd 11.221025875178054 11.3038403679868 5.325027447755234
Cd 14.011479165129344 11.598820916419744 6.569670158600003
Cd 9.0212536403606 13.117251528830263 6.060691981265554
Cd 12.40424112607591 8.859648674871787 6.647048144792542
Cd 6.235216751018562 12.511479169430562 4.747624448996677
Cd 5.4100542426102995 10.47521577239294 6.758206330312432
Cd 8.097496551658178 7.51087546087488 6.064522148287106
Cd 11.201713284958903 11.21028805763722 8.382352682756142
Cd 8.74156147323839 13.711905459521779 8.9918726544502
Cd 6.4448695757542085 4.925168117120229 6.307501829116518
Cd 8.457415942697843 10.373355972757285 7.68837671139422
Cd 14.071086862300394 12.39758862603934 9.480152634442845
Cd 14.630026807397249 6.892507735382329 7.239940827060439
Cd 6.176866087910645 13.555368257767078 7.555966682647027
Cd 14.923116735265861 9.616677124652458 8.67303936560195
Cd 10.09189883987267 7.948077589200064 8.411278378526005
Cd 5.753091144175237 7.899932565707391 8.055771069171296
Cd 7.684268575517051 5.783675043815692 9.021740024001177
Cd 7.8420680165036 8.666868271132683 10.247956633756251
Cd 6.406827595086615 11.47600754689151 9.700389994955618
Cd 6.556906659582584 10.332039826107316 12.426728519097058
Cd 12.800369228188638 7.2327282301256215 9.62444568555406
Cd 8.995720702991957 14.491119044951548 11.946528208087157
Cd 12.669660644278947 9.98136012189704 10.786263031830918
Cd 11.444960803282342 13.892422028234611 10.17671348767633
Cd 10.555603626740266 5.439628958588607 10.51585740400856
Cd 7.9429076012474225 4.607677350632622 11.645127758742008
Cd 10.483701499467657 8.182959318500563 11.833669848375411
Cd 9.439790728473403 11.167494485510591 10.791356253386748
Cd 8.801326808968605 9.213764599497296 14.326842058795611
Cd 11.13511804855405 10.863407722292669 13.301387761132183
Cd 7.8868551912204214 3.1232441432248366 14.256975371280143
Cd 7.011019505601527 7.3084160523915545 12.765842870598375
Cd 13.123993736821024 12.86791455227626 12.39953023468073
Cd 6.758700264619611 5.74293967398674 15.401526916036488
Cd 9.633058644258 5.96586156106689 14.131652352730283
Cd 8.427953505090814 12.2071017572518 13.702940797014072
