37
Energy = -15.27939431 eV
Cd 6.985365900731783 8.797280848767594 1.2394807154620384
Cd 8.762368479274363 6.148338353623209 1.4819463168854863
Cd 6.005129522484243 6.1385941473147545 0.19480593435017846
Cd 4.119790806372563 4.897333757167883 2.017159584300576
Cd 8.147568803387848 3.721925675299668 3.3434718354649116
Cd 5.295447358180154 3.007053814604947 4.048591827331173
Cd 9.048033095734066 8.19318114002055 3.796625635567909
Cd 5.6820224965999175 9.4713300327023 3.865344107586595
Cd 3.607065612683075 7.215222751200622 4.067019626898834
Cd 8.138557130334606 10.702949121177868 5.246955715898481
Cd 2.5650445048228 4.2374829317550775 4.591291263281272
Cd 6.417726708482759 6.347535091443553 3.6435054761189165
Cd 7.234014489178621 2.9965196192476844 6.312798359429388
Cd 10.730162896366679 5.37123985518681 3.6840765853014057
Cd 5.414747759572346 11.518284031168314 6.267657312252408
Cd 11.188046657253885 5.920022174552509 6.616766473782198
Cd 1.70643713657541 6.674399094209756 6.365284594458517
Cd 5.037164374704839 5.4887652406534775 6.256661314303225
Cd 8.253860181009586 5.756526910550631 5.923418481735813
Cd 3.355667267733665 9.358804265785967 6.167507217347472
Cd 6.395224462780343 8.133052084380983 6.6271343875694875
Cd 4.351926586166646 2.639220650805717 7.049098231377629
Cd 1.6666464819736855 3.885548074983799 7.470160168984587
Cd 9.29863252636926 3.9274074236025673 8.28668644994864
Cd 7.750481152659392 11.384438818771276 8.133799382548947
Cd 9.421940455272125 8.472189995920234 6.889410093680062
Cd 10.094314466567749 6.58248210549737 9.401483018738663
Cd 3.7711455383327115 7.315213537688327 8.393621423357263
Cd 6.827920892753793 5.900624316442032 8.651315324290572
Cd 6.531082673240914 2.8309075848329996 9.329424108878795
Cd 3.977335928866462 4.568647493739978 9.422475557418448
Cd 5.11016230437807 9.946294215394177 9.031681790015895
Cd 7.913713011500719 8.726490317242236 9.47737245325828
Cd 8.866517291850794 3.8922265003872756 11.217202837814424
Cd 8.147138694759201 6.730085022566017 11.772996504487876
Cd 5.3149403590468545 7.534391749855376 11.005790485846353
Cd 5.942750688739038 4.6440859481970636 11.78607410076913
