33
Energy = -12.25735396 eV
Cd 8.575195248798433 9.498168479951339 4.322560359505831
Cd 3.701706096530409 4.924290249909547 6.837553556390934
Cd 4.916994377046163 11.476965583621224 7.401142133781824
Cd 4.031332425702105 8.030143904549568 8.454030596222262
Cd 5.033100557178289 7.6461588483071115 5.48644154318228
Cd 3.611041753494144 1.9123354344854124 6.378285741459014
Cd 6.189619163734377 0.7474987585149442 7.728942223722457
Cd 2.138526198008536 10.391030110193716 7.952797286930254
Cd 3.8038092702624913 7.079373377906548 1.321581953102858
Cd 6.4382745791952685 8.08138878769535 2.546319384337535
Cd 6.8384224730090875 6.062733984873677 7.601148595365914
Cd 12.372163845138894 2.867991316848656 7.0711084752849445
Cd 2.0167381137314893 8.100118704592663 5.997504120813624
Cd 8.0976567865142 2.936299131664395 3.3839018543722688
Cd 5.711132380380803 5.273251351008804 3.821374929922216
Cd 3.267631512617137 9.0787479115856 3.329560974349677
Cd 7.3815597766934395 0.08481643204768717 4.968685862530628
Cd 8.38877179853359 6.3814466344591425 4.509961812839131
Cd 3.900187040682057 2.2169717088872325 9.334676272762827
Cd 10.975295001380774 5.739589062509822 7.849340866737797
Cd 4.447335572503529 5.351967997769921 9.64892565924882
Cd 5.209381391223176 2.1176330646363413 3.5686166098049648
Cd 10.14597171951854 4.028278647433564 5.200174059676807
Cd 6.6930517667431415 9.173138351925783 7.478568196668656
Cd 6.420754605242053 3.4167285440192217 6.131218604717699
Cd 2.8726988666513926 11.387011052555476 5.153512660962426
Cd 5.810264497118762 10.5160725773186 4.562820453087203
Cd 9.334943911988804 8.013483192849089 6.864568985495046
Cd 2.1337325865025036 2.313972763225028 3.847338023722744
Cd 3.567881866477422 4.237581079138622 2.077031948351438
Cd 6.6624212001059515 3.325026023353554 9.713278717575035
Cd 8.920447523543329 3.5543859264037883 7.887427200813732
Cd 2.302449613948787 5.707515376048431 4.315836404121819
