39
Energy = -15.33074356 eV
Cd 5.31821051283401 9.906121205988265 2.8212077063687007
Cd 8.222136377393719 10.902721896919102 3.3908971290511625
Cd 10.106083438193519 8.674895466539219 3.981443133141663
Cd 7.246532880746521 7.742122637913537 3.4444330377514283
Cd 3.8652032838819808 10.531980003116473 5.344402024488753
Cd 7.360828070073896 9.368300153337314 6.183513865066059
Cd 6.032233052978169 12.652528166706672 4.351629812372331
Cd 9.154121923521286 5.876166137599866 4.917380800704978
Cd 10.068199491107594 11.110066429251695 5.856963426457164
Cd 11.116082581727776 7.909854551146841 6.57975936539601
Cd 9.599738991806205 12.730746193938167 8.26287408617466
Cd 10.725508125015578 4.908625984360798 7.22295755608534
Cd 6.804642791583269 12.26589615683602 7.131494697071968
Cd 4.925266668643195 10.007001774239395 7.991033493902427
Cd 12.373915031809306 7.05579440893954 9.11431405198087
Cd 8.412124416357692 7.192000867704557 7.8883352414810055
Cd 6.3130442314823165 6.327569636580722 5.850072914594209
Cd 7.896927142372409 10.144619195845241 9.151767555152013
Cd 11.216605668462938 10.186216806436468 8.499777967192433
Cd 7.21331697368322 6.725284068797244 10.60723665696146
Cd 9.852122051447102 5.097439549840472 9.969161886813623
Cd 5.000980278211712 8.811124248394178 10.650583047849961
Cd 8.867486470552105 10.81498176372778 12.022027691877193
Cd 5.062665078838538 7.005806003171803 8.33466827974417
Cd 9.84460712292727 8.30867725763272 10.463875828221942
Cd 14.807709001903794 7.317332734689885 10.978979753572096
Cd 13.469374132103779 10.000558840362856 10.43603922497793
Cd 6.245782905723918 13.394256848017816 9.77125599170314
Cd 5.858583103319961 11.39346973510406 11.82965649400722
Cd 8.891583575213689 13.714261156370952 11.01042951962503
Cd 7.639865092003891 5.934345932832507 13.538318655487847
Cd 10.02493227774512 4.471982512711524 12.827654601864456
Cd 15.15727206466215 9.703158223505177 13.202185109219434
Cd 9.703597094735713 8.143854487841194 13.82781868368273
Cd 11.472862269786082 12.1555710790296 11.001260277578835
Cd 11.892190976833584 6.7074825505213616 12.18571421565303
Cd 6.80132938333344 8.790318436505839 13.041365510664692
Cd 14.313350072676178 6.913379368673775 14.100261837050368
Cd 11.880923539384712 9.861425673946547 12.975187014089476
