30
Energy = -10.64502329 eV
Cd 2.3576425319794234 4.110107140843629 9.07337876328647
Cd 5.862372950459006 8.280681843049665 8.710881840661028
Cd 7.461058512205958 5.817008189035982 11.892359509266864
Cd 5.126977068321263 5.5536331428148324 10.114666860159925
Cd 3.9074474077064654 3.193886501256914 6.586672752859779
Cd 5.991591250300103 4.558682704043523 4.860095026830929
Cd 9.94696338771367 11.665632982956 2.8345243858937086
Cd 6.88369794381622 2.1986505396307434 7.146346743598192
Cd 8.725196456849766 6.061835291954261 4.353292547503259
Cd 7.561960464594199 3.3585877609628056 9.902740285802636
Cd 6.944089810100067 5.453317787888926 7.626289685266393
Cd 8.980719967812918 11.15250210034634 11.498779084062726
Cd 1.9546750742661407 8.85412398801869 3.697495882560473
Cd 8.722149971622212 3.135012388376957 5.000124456783052
Cd 4.752427935517901 2.335047133383406 9.462247254774157
Cd 4.811608194562943 8.7414339202153 2.6278839048375326
Cd 3.8316149597832982 6.245577290902138 7.5336132399832625
Cd 6.422826419536064 7.705985910051566 5.312636051084954
Cd 6.10106582144699 10.54308507214638 6.370317619657996
Cd 3.599892755631922 8.913914981750034 6.247675232237725
Cd 11.985934284257695 6.31080733445985 5.13871240044814
Cd 8.13255157874077 10.653359407205572 8.558006567841515
Cd 10.202343812112986 4.696890582780376 7.03832467218434
Cd 3.5690930966536016 6.294368441404859 4.38834300924322
Cd 10.060847967842708 8.766750900597504 4.693569919112282
Cd 8.309617216736155 8.278127291732943 10.512862355348958
Cd 7.55395790406703 9.725098087742216 3.163214555578797
Cd 8.940104990721084 7.728296892995539 7.4440572091685135
Cd 8.983276784567886 11.311273899077646 5.765403264580237
Cd 9.595502724903328 5.635529737205197 9.72469416421523
