37
Energy = -14.59188325 eV
Cd 5.6206722981320105 7.7569671893706245 11.53004968158847
Cd 8.359226868084733 10.549225021393113 8.616782637891069
Cd 7.2785232709766206 10.570158224439439 5.646714049461819
Cd 5.89666995847671 10.36696758215436 10.438548891463272
Cd 5.66069200325666 11.857251377691059 7.914665650409142
Cd 10.912106037169961 9.813678173156815 7.260574789197946
Cd 6.80406110094604 5.127579358197676 12.40361460743152
Cd 9.676339731146134 7.816269941927582 9.174492350623515
Cd 3.6980276443337945 5.5228233597895 12.057577103079597
Cd 7.348461778627852 5.9929550694427585 9.476190983636789
Cd 6.346064423833514 7.694054037439579 4.766750162304462
Cd 9.673617382726457 8.85711446615326 4.727271610070278
Cd 7.92788924729532 10.299594924283829 2.683224377659841
Cd 11.313693266979897 6.821374101812983 6.59835680607079
Cd 3.9927593971182587 10.367065940203686 5.923158235638219
Cd 6.135783560139139 8.442339253336199 7.866187633881401
Cd 4.389130981948418 6.085817927809215 8.905023895544769
Cd 8.278400511602907 6.395690519804556 6.5501330518865295
Cd 5.0008204641541285 10.620515192344163 3.2219457897428248
Cd 8.267092605623652 3.494399622624127 7.56990801431247
Cd 2.6084966613627434 3.7279147835569213 9.82854906493878
Cd 10.352749427742923 6.003264875518615 3.8636135083332794
Cd 7.7510254672178505 2.9944757307349152 10.499346148043031
Cd 4.927826999983275 2.660477364961307 11.528496772671065
Cd 3.632832999999142 7.449698360536624 6.393796630685602
Cd 8.857594152504834 7.539686121461569 1.900211951258562
Cd 7.522332935895834 5.172986403910715 3.315065307899284
Cd 6.001909722674859 8.24509340782954 1.5022644896492703
Cd 3.3626294651862927 8.129510294881559 3.1038549734043674
Cd 5.630450741050433 4.984331063727835 6.146231992431181
Cd 5.24969316231721 3.001566734459335 8.495512954209481
Cd 4.899658971975013 5.55080701521734 1.8043760173094063
Cd 8.150525720599171 2.481591655866125 4.654585578379671
Cd 3.1453215705206636 5.336085410795218 4.332807513138359
Cd 5.180274957178436 3.154175509559295 3.634427751159214
Cd 5.690988611328384 1.49411089211539 6.056332883215358
Cd 10.625849482335509 3.7925766739381515 5.779549723825188
