39
Energy = -15.63040384 eV
Cd 3.8661131333106376 8.018277430675056 3.8847243408885714
Cd 8.810839621195168 7.645210318188197 3.277531829170354
Cd 6.0029333619083705 5.931196985154924 3.892584296760008
Cd 6.522754629550584 9.109189787783578 4.478767448269558
Cd 8.735620721087015 4.948365782141503 4.786374544369555
Cd 11.270851564361303 5.950130408842804 3.225684231527785
Cd 11.488380018495922 5.238661693164931 6.091755637842617
Cd 11.738775091788877 8.252729670077912 5.033219810321856
Cd 4.2403392068061905 10.085838139076673 6.622996901450254
Cd 9.380852200473356 10.314293922245662 4.704969401335678
Cd 9.86214142703088 12.107751426222077 6.947580219680549
Cd 5.880373148159003 7.423618985020456 6.934208658934554
Cd 3.4312585334733785 5.533870077225709 5.5895516221686945
Cd 11.895877129148708 9.897882989447114 7.4083189345386184
Cd 11.210680496170108 6.957200630203922 8.469744374912894
Cd 1.9816121894499743 8.209508714450608 6.12067395772139
Cd 7.081423065012361 10.857198968560974 6.930824893335271
Cd 6.4803843883922045 4.349910902422039 6.614146621204297
Cd 8.854595038665643 7.634895283754925 6.435931069316467
Cd 9.373260513110704 4.036282497156335 7.813376748220149
Cd 3.983465863770527 4.768080216583753 8.343342605212813
Cd 14.47947459059833 11.855327506549218 7.7767451654349
Cd 3.3387095379484615 7.69791733062984 8.669754747627094
Cd 8.95606551270301 9.530416854387811 8.835214535029984
Cd 8.988312794167612 13.468123584269103 9.454926087796792
Cd 5.835849023993651 9.039456314638853 9.643367348922355
Cd 7.847007043911848 6.664382145333659 9.038491834185507
Cd 11.82703068236483 12.279185087924999 9.251359602098788
Cd 11.653168152186476 9.251198828837637 10.471798189498667
Cd 10.028052514943123 6.614164740762959 11.262071809999066
Cd 2.117138129380594 7.297531009822823 11.632048690111128
Cd 6.58643888895627 3.850392935050499 9.581545040346832
Cd 7.214430226245265 11.421506596831536 10.519481671119728
Cd 9.472607799987292 3.702949742581872 10.737700765422776
Cd 5.0208059826108 6.24040002998731 10.794436662638933
Cd 9.101772267448528 9.776362448717169 12.301222577545275
Cd 11.11014829528393 11.820020165052407 12.020489811639758
Cd 7.234942810336166 7.682085361662842 12.136227194215884
Cd 7.267421410683701 4.710391493671133 12.438717124294472
