36
Energy = -12.19832419 eV
Cd 4.99457124575443 6.5691153467009515 2.147813832181553
Cd 12.198975052401755 10.228699671233908 4.377564842490001
Cd 11.366425986235077 2.233764942121809 5.553761268819025
Cd 0.5241618231993581 6.85984362615838 8.315634161938181
Cd 7.9411000241309715 6.302435389511226 5.113895954509319
Cd 9.107679203342755 6.060946752237423 10.406573407395562
Cd 3.254951113930171 7.785449261529885 7.2053838500774345
Cd 5.042180934886813 2.458228102297289 5.559929399339342
Cd 10.19487769847119 3.0323234428963146 2.7303518007210563
Cd 5.0715999476516025 9.561268482852705 5.413390055540673
Cd 3.9317965817753486 2.562803492450308 2.578496794093788
Cd 6.236595775318594 6.6594294624364805 7.862552594665103
Cd 9.256951794433407 10.488280321948404 3.493192458306755
Cd 8.340731613477875 3.011256292776108 5.179764771237798
Cd 3.4782677483802225 11.14365743068702 7.546774883798343
Cd 8.062107536222323 4.232021289618215 7.951524956095555
Cd 10.263569302293094 8.181118382591468 5.550905060007846
Cd 10.396322028027798 6.282408643768708 7.768693856566549
Cd 5.2442099183107675 9.335612024108704 9.18414137510147
Cd 5.235897619305689 3.455995189309277 8.366093523094106
Cd 10.849461297254974 5.257914767051868 4.782899275790985
Cd 0.90060304820741 9.885808688345724 8.263460703618662
Cd 3.014523752950249 4.624797472733349 6.955667736908063
Cd 6.956350369643178 8.674305901672613 3.230593718156383
Cd 6.298078613172736 4.185272523996369 3.3319216224408947
Cd 7.888685207812874 5.788556872103394 13.12032766239655
Cd 8.380450198727626 8.70833469479279 8.66553374545844
Cd 1.718118122659571 3.0724263732488173 4.501024297478056
Cd 0.04381499618826871 4.318907438961662 6.747122769104542
Cd 4.8429482141638855 6.210120803045277 5.191556285373894
Cd 10.936260317457355 3.262904516285225 8.390497163807378
Cd 3.844504204350105 9.320385332966405 2.646649001879939
Cd 6.258185186534013 4.542823375977733 10.850151238068845
Cd 9.219805821095713 10.746987010718296 6.594472987296647
Cd 6.515145381859939 11.505914461200458 7.381882669682613
Cd 6.396539362898175 7.656329262192174 11.246247319084665
