39
Energy = -13.89954833 eV
Cd 8.718272568401098 11.936914676286655 3.933845196785099
Cd 10.652781194094274 9.655437647355006 4.377749499008786
Cd 9.430391816798462 8.091182669710763 6.641824792414186
Cd 8.877804242542803 5.224241848231383 5.675316209845165
Cd 6.013297597474305 4.569623970799726 5.4612047408667985
Cd 12.02897211247127 9.742604559880071 7.003676117749733
Cd 5.679860194609455 7.37089050019084 4.841897291332519
Cd 10.721144261809508 12.410293459210418 6.16599115814633
Cd 7.678228674986007 12.515364216458936 6.77509400403437
Cd 7.226510880577284 9.75032585515371 5.301842996054506
Cd 7.114357670876973 6.711011079179358 8.32266344897339
Cd 14.813227585103593 8.338366150811257 7.048834097102047
Cd 10.03847196443732 5.6633991249823445 8.436919257584112
Cd 14.28906019058197 10.753512307998063 8.958755276357946
Cd 12.448232929283161 13.25011691548512 8.446907877666527
Cd 5.393475699321476 3.9050501269515587 8.230927994854305
Cd 12.39104440228388 7.419932131836508 8.883029667034942
Cd 4.306178107079116 7.912322401978225 7.4681874433496285
Cd 10.022235175533531 11.189723246580058 8.857855282866625
Cd 7.346767395807251 9.887121303352155 8.352393029136294
Cd 3.830516672814224 5.82670015382567 9.811504634627864
Cd 6.429471914781845 14.058263361496586 8.967548960441464
Cd 10.42104440333309 3.2102480753583498 10.17405933394699
Cd 9.716350795601661 8.441977267525262 10.239766295349662
Cd 5.382379912965934 8.609454914778173 10.261200925963818
Cd 8.297879483189897 12.807556726407675 11.081300235377771
Cd 13.778051984233032 12.896068692625024 11.106212335895766
Cd 5.594950745818628 11.50356395580898 10.628131885208521
Cd 14.463668000078538 7.257294737830932 11.056068154491362
Cd 7.600592404025809 4.1708024378743875 10.158559339553744
Cd 12.3300277599803 5.245012265263932 11.18823679833206
Cd 10.97764052192434 11.88733748464251 11.678463147141505
Cd 13.396348356198121 9.842694523075407 11.915914344630572
Cd 7.552856491597592 6.7293526346280705 11.636548719478563
Cd 5.721373708474763 14.59362867663985 12.13996242097461
Cd 4.747111761413747 6.740200501517722 12.591954252808284
Cd 3.444651617221229 13.806902604549487 10.043597371126264
Cd 10.229140386015533 6.566927227319477 12.753273130824367
Cd 10.739079297758988 9.352030447899537 13.22623321416384
