36
Energy = -14.11091649 eV
Cd 4.498843165599738 5.896678565831425 1.5908806522021754
Cd 6.626607067018067 7.726702773205727 3.057922727331038
Cd 6.449011461933125 10.378189651576756 4.258812507072662
Cd 5.761020332893962 7.870641510525693 6.0131834334383765
Cd 6.202258269042309 4.919924332798709 4.203752403056605
Cd 8.886145195846044 6.2175899607188745 4.273196384295424
Cd 11.055981420260952 6.188603494379071 6.23811294857353
Cd 8.731636529732148 11.725448293827476 5.483741615372156
Cd 12.42263876371485 8.689519017259975 6.959156391258408
Cd 8.574806981621535 13.926336279253045 7.479273339773102
Cd 9.621669955074772 8.901318506650869 5.446219895565395
Cd 8.232306161913483 6.698856317530228 7.382155314464949
Cd 5.666194675554681 4.933201482835963 7.018019005259139
Cd 4.68036297582645 9.876459118929814 7.8944675178829415
Cd 11.014708534817402 3.6971061786696273 7.92428414611619
Cd 10.800330096035772 11.116604174919209 7.536060231824887
Cd 5.880290411936892 12.28015297710435 6.642058186366411
Cd 14.518642182863172 8.126842780090952 9.161118275564395
Cd 12.364641032481758 6.146204300271946 9.114332465399068
Cd 4.5301821898021135 7.013367514802239 8.811047549015473
Cd 7.841874758844834 9.850280269991607 7.8936166183550815
Cd 8.377746022525722 12.749887288089257 10.12276048819478
Cd 5.908498941413774 11.116735779058432 10.157563764237036
Cd 9.813449335178511 4.9975336887036965 10.393936303618181
Cd 6.964585671972867 4.895230300344005 9.685554971414467
Cd 7.334941886634312 7.923262918699737 10.077355713465217
Cd 10.175747877957084 8.178140850405896 9.16320719181096
Cd 13.276128361135704 10.811416768504104 9.31253692597077
Cd 10.6292192719369 10.796311638501075 10.578413396466276
Cd 12.528661308333364 8.368472855640226 11.406755558856728
Cd 4.488507369074518 7.6856015718368855 11.639326766328356
Cd 5.163782562316926 10.259304168802123 12.865754699295216
Cd 5.501550865021655 4.943475546942358 12.283633585551128
Cd 9.858487090543283 7.418199922903966 12.24489159861458
Cd 8.194216694460527 10.087538198710861 12.119736099058828
Cd 7.113762637769359 7.27829906077382 13.256599388019442
