33
Energy = -12.0770121 eV
Cd 4.664512915711581 2.103511093363713 6.370475652350797
Cd 5.446617794601009 7.9182853698394675 5.754459921428055
Cd 6.5617526446421035 2.319253346664801 3.89480111528278
Cd 9.234390250429207 7.937063068470953 6.062794925685163
Cd 7.374427178362653 8.540232883151221 3.444256954446285
Cd 2.2933220447250497 2.0822720612991037 8.131781404522494
Cd 4.508261411629969 6.809424152260356 9.695022688757117
Cd 9.677231090578223 5.880980119803286 8.77284070968527
Cd 6.852891445735952 0.8751657522125132 9.871990399070722
Cd 1.9757016472189857 7.348070377481103 4.497665912708417
Cd 5.466817340493921 4.2282885443573335 8.508036518458674
Cd 7.142547486776903 7.334703947581195 8.315053533746555
Cd 2.2637102101550957 4.9933724032552425 8.657618254486685
Cd 7.751092920219118 10.472877535386942 5.838107658474098
Cd 12.020555494525496 7.743873435439852 7.585876204318507
Cd 4.038987959934055 5.309184181296711 5.897117928558741
Cd 3.0400864999325954 5.714178705953508 2.2950770455833225
Cd 3.770401704304985 3.2235554295782163 3.7274051298121793
Cd 6.072736299848693 5.535426283084802 3.251840542975614
Cd 5.125993772146128 9.498212090244674 8.488061969417318
Cd 4.445883632617427 8.243866228768322 2.5977979761979615
Cd 7.247475454451017 5.310488493381006 6.079673043937481
Cd 11.4812286801288 4.153616578426352 2.768229553016003
Cd 7.482778324993204 2.3866037579392034 7.196555795133343
Cd 2.9354652590298276 10.173257690805379 5.588718220439942
Cd 10.270205159793132 3.2683202540514125 7.578331010495388
Cd 2.666694339109748 7.746990734902838 7.35023208323277
Cd 5.2029948407268805 10.907395590471511 3.72839208744962
Cd 9.113376695814567 6.122845344404492 3.456672989578252
Cd 11.18557077717449 5.457634192794445 5.6171726277375145
Cd 5.252132719745433 11.809057257746362 6.721999869997929
Cd 0.8410355418668299 7.99223158206185 9.873319833274484
Cd 9.196783112099668 3.1972415229940205 4.664055183575923
