32
Energy = -11.77162152 eV
Cd 7.896183550217214 9.88910842574926 8.88036580429124
Cd 6.171109149851551 8.49987097667868 6.53765615713477
Cd 5.946182967357909 4.129356073712261 2.1947135175094052
Cd 12.10783779698982 5.761010048353325 6.650792545460418
Cd 5.9881627868661225 2.3960403458187955 4.5288006552385776
Cd 5.427179922571605 2.145480208169237 7.384409829027671
Cd 3.8642216345934073 8.880336615855711 4.090890728266597
Cd 7.010118166814981 6.965732651769978 9.163020444773558
Cd 6.714227948181683 9.96954973535428 3.779871343354122
Cd 6.965266984208352 0.9346590676129859 9.870309430151359
Cd 8.731993003324003 4.84410628231808 3.0103422695242195
Cd 8.492841886300134 6.600855728825755 5.4493344407275774
Cd 9.64077392736491 5.751129503566756 8.429821805642664
Cd 5.7984638749413255 8.980135749362177 11.148536193928125
Cd 2.3615147334170414 6.953513628600851 5.946576956470747
Cd 10.184681428079426 9.620197210828122 3.629196219785573
Cd 4.50470075625666 4.111754832094741 9.487655790433259
Cd 8.721802587094478 7.68343262159808 1.8946395144542665
Cd 7.470851603887865 3.900425498454693 8.963398799879647
Cd 10.378671698973642 8.303773529424802 6.988688542874773
Cd 2.869833007235658 3.604752174278409 6.427461224088598
Cd 8.31770456826799 3.5536242883121703 6.0085823676524255
Cd 2.8535150590043266 9.2050184658267 10.107900605846284
Cd 8.613934514758832 10.4818426175777 6.024558927716973
Cd 11.005534107214174 3.897079529221868 4.620226282253153
Cd 5.797914533830093 5.457520733798756 6.337622734791692
Cd 3.8319903693934707 5.285822656076829 3.998377800842727
Cd 4.091305889499948 7.008420869126614 8.505361383442771
Cd 3.3436916157380145 9.692574970525284 6.9556207174901425
Cd 5.071088468374587 11.15966672866254 8.953463435468352
Cd 1.6191310834739803 5.32449736544686 8.678907084813133
Cd 6.213923319405874 7.015063810488434 3.359249390155918
