33
Energy = -11.30539134 eV
Cd 6.821278260837449 6.557875902094082 1.436047138645529
Cd 6.761283050015588 5.1341471197592785 4.153433867261433
Cd 9.536430549382498 6.819209630018449 3.3705443613204404
Cd 7.103041753138744 8.563544900766946 3.8526353879656936
Cd 9.752026473361271 3.8593502430769826 4.372324195673885
Cd 12.463732938673775 5.39246886174438 3.628303777034803
Cd 5.123891180670661 4.40061932376802 6.769082103165928
Cd 8.992616629587005 8.598679547476667 6.380736770597085
Cd 8.195226861874586 5.128310687443454 6.873070588068787
Cd 10.969605050401503 6.301478791816938 6.231036685515147
Cd 12.500958929209329 9.521036410394297 8.538553282529339
Cd 5.87069463862731 7.361128130778083 6.363099743739136
Cd 6.577551304237023 13.379071431257348 7.025802253053595
Cd 10.071537386676813 11.049005974756003 7.83268350527749
Cd 10.756927877304843 13.158959733441183 10.782264941546698
Cd 8.314024898359081 13.709824980574897 12.492670482667569
Cd 12.310900466395312 6.5653075620543495 8.809882512767583
Cd 9.269843090982997 13.965819444065403 8.273164913197267
Cd 6.855962171169979 10.488493136711572 7.792646668935032
Cd 8.591927846091618 5.606592780721193 9.727027344204698
Cd 6.568140572616837 14.007444786030973 9.966847122938598
Cd 6.475103643875486 7.851512010683892 9.196532319715587
Cd 11.51233021119872 10.329201091317374 11.221506674009111
Cd 9.492771458931179 8.481929071157607 9.714172997295762
Cd 8.198571730983975 11.194337441563484 10.513443537590591
Cd 11.216224275997188 5.322478441594747 11.211984460247354
Cd 8.618683890965873 4.873811410525205 12.74393508091112
Cd 5.614353427491271 12.297976397795281 12.216387026086183
Cd 5.141548570641008 9.495182721844069 11.445312782018839
Cd 11.653413405178467 7.761831103173246 12.75224683861605
Cd 7.08994518857171 7.314545714675185 12.064143704065991
Cd 9.086923867886112 9.317885692135235 12.861723639653041
Cd 7.557285590511283 11.255696716631013 14.451510485531816
