33
Energy = -12.66009651 eV
Cd 5.501052623667317 6.660592901602005 11.261358547345228
Cd 5.661124298785546 5.0943666755946335 8.48990791181345
Cd 6.491906976217529 9.738266910482077 4.495261100923478
Cd 10.150817959248638 3.5910527714017144 3.160309496073191
Cd 10.962123189532404 9.36921377343557 7.139442344147362
Cd 1.8074709541030323 6.0932097177219715 8.562040629866365
Cd 3.789697004428862 4.7774146999618825 4.038397442524986
Cd 6.037870345237993 3.454044452644621 5.8966254122805175
Cd 8.587489502157172 11.005449516370224 6.356534743507069
Cd 1.8269822696318345 2.4794100813920026 3.6484546503594264
Cd 6.977154813741397 7.965029726850722 2.1134994654532293
Cd 8.005360631265832 8.340157829230021 11.616747716552497
Cd 9.470679118610201 6.447702308817347 2.651349734163033
Cd 2.524408837474717 6.928351599315747 5.758349740624577
Cd 7.3792864064497445 7.826683171380253 7.936328220569092
Cd 3.6589069666749596 9.684065281353924 5.586455272631085
Cd 10.204592718037274 6.3676719698568585 7.62883124079653
Cd 5.884345147800158 6.7257541976646955 5.735147441941518
Cd 3.2074126293736778 4.81629752197282 10.817921835598131
Cd 8.264435937507654 5.76282491149744 10.06639530255999
Cd 5.772244206441699 10.528264041847487 7.4545454619266245
Cd 3.1929441314354157 3.894385972859344 6.892467027563443
Cd 5.543949444154744 9.464481758404567 10.295852026671051
Cd 7.505265883878232 2.0096168813459685 3.5977900156542586
Cd 8.555385068443124 5.292758544736568 5.4315065829045714
Cd 4.220810528979878 7.658318003128176 3.224071467419854
Cd 8.35822931406077 3.7032934642392474 7.955771642671628
Cd 10.368572672999539 8.313999685379345 9.881350174822602
Cd 8.973328767373037 8.182172571409707 5.153522927985863
Cd 4.1456207557276405 7.946898266069084 8.217189649507143
Cd 9.6810652841079 2.1088917900245168 5.750660450323382
Cd 8.318901880990085 10.484050750034848 9.284596629619807
Cd 6.624908259843899 4.963029674307308 2.9919357194621017
