32
Energy = -11.08645537 eV
Cd 5.792397147798436 8.71458110594785 9.239096908287607
Cd 5.979580495888071 1.4636846625573852 4.385029922437139
Cd 2.784222347544807 5.754827187158573 3.29820005263008
Cd 6.661258176259853 7.4126701204454095 6.239313116688479
Cd 10.643071539878385 5.255350655895044 3.6143682767276073
Cd 3.667484055418503 2.857321590292198 7.11987915082513
Cd 2.778854478969056 8.52233711031711 9.631478583706242
Cd 6.31955847151126 6.021945183780195 11.395143285716692
Cd 7.835178390841401 4.838032322036729 4.875770520233306
Cd 9.93704621824344 8.260478418132932 3.551194306399875
Cd 4.583338175578743 8.42296386601992 12.090185130653206
Cd 5.295039006970431 4.049950119138112 9.413997557045775
Cd 7.806243646080766 5.5495864798588705 8.4957591598011
Cd 6.769124598946785 2.8786824083637654 6.968788338428896
Cd 7.031300109132161 10.643520089836437 7.282539681536352
Cd 8.9634830389116 7.307275840135999 11.092939527835709
Cd 5.0344166213044526 9.949220459987357 5.25429338656926
Cd 5.275089676026264 6.2398469116424335 14.388140137646975
Cd 8.888002911274606 8.501964884366 8.310831356318635
Cd 8.51348485162732 5.831705982113822 1.5389442344830762
Cd 4.048988361495431 8.428359986860054 2.8157795217939943
Cd 2.858428243162237 7.76158416496537 5.598610001927096
Cd 11.880876416450477 4.092929842958474 6.0569099732194145
Cd 8.994700980718232 8.70864696376475 0.4914323458704676
Cd 4.110024746015606 3.094110744524342 2.7073623909177216
Cd 3.874241793961248 6.279821174305024 8.035887041550403
Cd 9.65982302665039 3.137807360481362 7.727154234741996
Cd 5.7417214598239195 5.827353558142111 2.5796960741654624
Cd 3.1576436846855946 10.520521503401117 7.474982186162138
Cd 4.851493765811598 5.093980583617613 5.464554674663637
Cd 10.170154190567603 6.753170134694369 6.305437193855005
Cd 7.000696714299428 8.68266028359199 3.2639655719273595
