38
Energy = -15.30195008 eV
Cd 6.523075529894377 10.303414224175063 6.52278279464339
Cd 6.6110469637722895 8.924158597967239 9.267374251658003
Cd 7.354953252457739 4.151916779884285 6.622970650716096
Cd 6.795418904328001 5.997931221553342 4.1239319804323635
Cd 11.16123810710667 8.156885371722247 6.851233248836736
Cd 9.318536689138977 5.4430406498715245 1.6188615930785117
Cd 4.475629990603955 4.8581147039683135 5.534350159394718
Cd 5.340893449764208 1.8796680903515428 6.416295350211596
Cd 7.676089640000856 7.293873820212411 6.617310854979561
Cd 3.5226743682990014 3.4395966904422846 8.343120540387778
Cd 4.797757137521729 7.999530808316107 5.528918148318083
Cd 10.011738970800875 6.62956370299349 4.402726944677969
Cd 6.398618795887709 3.441513582274633 9.424801636500774
Cd 9.440273904622822 7.539585441396256 9.372313102015395
Cd 5.35637924465743 6.152397563698506 8.028029628371
Cd 1.3397935873448843 4.757214746256196 6.489327654452232
Cd 9.170581668053483 10.223307411496485 8.078770426101814
Cd 10.131286218237092 5.277925935340846 7.157945997085552
Cd 4.156482528680261 5.306539773778029 2.290805193314934
Cd 9.126285966116383 4.593389024304268 9.897236632554439
Cd 2.3201690722829427 6.200958508503168 9.271062676783854
Cd 4.203979739041694 2.3634783393659227 3.4207031175382374
Cd 6.79275634970933 3.638065810253783 1.8454663367137436
Cd 9.073047683283402 3.7157224080579123 4.1484723919114455
Cd 5.109159180914996 8.219432207412908 2.510520914274235
Cd 8.339031954133018 8.199047020552136 2.2420753905366673
Cd 6.824466967688385 10.451823376978718 3.544237580965012
Cd 9.32065590942832 9.642432786402312 5.024293662906941
Cd 4.303980655249137 7.829944673216937 11.032273804063244
Cd 1.3121272993724773 7.740706530191742 6.887143843362
Cd 7.040105063505411 1.519896942373297 3.9717738225010892
Cd 6.852540505803969 6.267303268596412 10.945790357044032
Cd 3.721850196673604 8.92594383011708 8.220837596083745
Cd 2.311258141090091 6.843932946048407 4.206805334880466
Cd 1.6541146895968106 3.9262642042183846 3.506227554866669
Cd 6.521415468742269 6.319644820152595 0.551458446503716
Cd 2.3183147129337542 2.0004002034157775 5.86945287364505
Cd 4.160463335135281 4.713625826013372 11.100489349562997
