37
Energy = -14.10000151 eV
Cd 6.425314471763184 7.567309287264308 2.5870338780310083
Cd 8.028781007194443 10.734213126163695 6.248144543816346
Cd 9.428865584187474 6.877007428596904 3.9223756554100575
Cd 6.9946880447277024 7.624106317515222 5.626376143928171
Cd 11.178778376573678 5.9036927165152076 6.6094390149194755
Cd 5.846982248368734 10.137835103002136 4.120000467675659
Cd 8.185737620495637 4.901395320712752 6.283588826104966
Cd 3.0261288704265703 10.73687654907815 4.847633176680213
Cd 9.955277208396792 8.576448376276613 6.52444757340853
Cd 4.68640546732553 7.827818413996091 8.79706656962794
Cd 7.775726706723362 7.102749374532123 8.515931515149957
Cd 5.15788667846858 10.287312906852126 7.126054580986205
Cd 8.160956613145244 4.838580434151064 1.9591805265142546
Cd 10.00380367414684 3.7859476873343967 4.151301885219644
Cd 8.522829594484746 4.076862269798238 9.186077326765199
Cd 10.991864915848907 2.9952513442383033 7.213105432528055
Cd 5.275570740102614 4.971410632529002 6.993716283266704
Cd 1.1102758162917272 8.627504697707916 4.463963360582999
Cd 4.746441690187315 2.1704090049961335 2.3781181008969865
Cd 6.066858377786905 4.818478224001216 4.167029388356286
Cd 7.702417297101092 2.0232552950288802 3.222678308944273
Cd 4.964015836571282 5.0834167533953645 1.3544307814181227
Cd 3.288787222097006 7.2071360782265055 2.757199106194135
Cd 0.029200311293276344 2.8698520791175355 4.031098886804332
Cd 2.2537252295734964 4.010558802975226 2.089234776905921
Cd 4.081840645699575 7.649361920817638 5.7418171403645015
Cd 2.9581799084282623 5.1059270436156865 8.956900886459398
Cd 3.231912432627041 4.863514657848894 4.847453802370089
Cd 2.7149563586711913 1.7347893948259279 4.604444156991391
Cd 3.4016289946615004 2.1273740685154037 7.636264886678836
Cd 5.562461444996882 2.0011083999740102 5.442359906881512
Cd 0.21457378568518784 5.835493106267569 4.087571046444043
Cd 6.254828415524666 2.2778471679538987 8.496614028058863
Cd 5.821327796917353 5.246115537495468 10.041509757383377
Cd 8.411693161223948 1.7572328511756776 6.324523102814821
Cd 1.1440297374347375 3.868531366118783 6.784262137268301
Cd 1.483453007159976 6.865481414153805 6.949258470006472
