31
Energy = -10.20116025 eV
Cd 9.474242215776147 10.204982638848834 3.982809711189577
Cd 11.934741701474495 8.1308366601826 3.2531638755583367
Cd 11.211336619207376 13.11968542377635 3.705168329601546
Cd 6.77671098123978 10.8198441046364 5.191080077776467
Cd 7.595855566162272 5.668263511131292 4.874708427808877
Cd 12.640217132375358 10.68397344510425 4.76866731072046
Cd 6.112423058777939 7.981825080932297 5.879521890472509
Cd 9.78884008529353 7.547203907139125 5.412543326974987
Cd 9.080690613869102 12.697052592968756 5.787336459184937
Cd 8.129917596730353 3.2552851403607956 6.422624137954699
Cd 8.99454947575917 9.955519406636851 7.37855558933665
Cd 5.138527327006835 10.02521339497136 7.736666318188997
Cd 11.98973068422702 10.214612979258773 7.604021560819716
Cd 7.8926269526083015 7.058855100623217 8.082253153327384
Cd 11.254389700594407 7.243137480281054 8.003114731912
Cd 10.493020273845802 12.956580854878368 8.361915551074919
Cd 10.063766355989996 4.5680218037832745 8.530857619738569
Cd 12.390567339450214 8.849158978400773 10.273105300640623
Cd 3.1975943963463176 11.95729917684093 9.24422272837279
Cd 10.14117530865756 10.91127644460336 10.461661657894323
Cd 7.071890932377631 3.9974494438189163 9.100815489917217
Cd 1.6377801568371624 9.31797636529781 9.816859692268093
Cd 7.299642633826717 10.026399211283152 9.854804065221373
Cd 9.464155557755353 7.971652319705648 10.529876452675651
Cd 4.60357043107882 8.813739273578603 10.583154123726711
Cd 6.299104909201391 6.464997014112317 10.598757481982181
Cd 10.057912230550032 3.710884594178077 11.502441651639877
Cd 3.129132105455205 10.965717993229767 12.224885862002544
Cd 9.03881522759292 6.303656695093596 12.902200516201049
Cd 7.090263131506248 3.9728774641313 12.401314979325477
Cd 9.287405633706495 3.8866178354925793 14.811488261770808
