36
Energy = -13.45905869 eV
Cd 7.392428993307783 4.8207146314388964 8.148891671383705
Cd 8.85494927563176 2.045271731873038 7.912191580669271
Cd 6.634774733054625 7.557818121401312 6.454054785490082
Cd 4.313890944857543 1.79106517131382 7.626442777824642
Cd 3.550647174751843 7.59987093108092 6.658704972576
Cd 7.214624639973336 10.048690569807283 2.628473935639334
Cd 10.52446408463071 5.05039974176185 3.1131988484078104
Cd 4.8367105400717 11.423504228255641 7.487409395798347
Cd 3.790643294390329 9.18467988178463 9.196873813804727
Cd 8.701600591116414 8.00734025535113 4.075504605988923
Cd 9.755394739295696 6.514717008514654 6.9751798469482935
Cd 7.892599442476833 4.779866934066322 1.8093545978824865
Cd 5.050752058228233 4.926533685763297 5.975792328165779
Cd 8.12158191752709 4.734619803779829 5.171952659571598
Cd 3.2462877301628317 7.133133412075607 3.3420269226261246
Cd 3.000896769819758 6.432230484781062 10.041355919420269
Cd 1.6660292876040985 5.633131780117306 5.2636312163160275
Cd 6.147557141422298 6.674594925800363 3.3747433904060897
Cd 5.0270053123549205 9.818230691946818 5.031027999431745
Cd 2.3110684645922586 2.378457892045257 5.5384796925986155
Cd 6.02136904351204 7.135158293664637 9.571416489612224
Cd 11.603786082363666 7.234808363500839 4.763251832867785
Cd 2.5532867916596285 4.541741063629689 7.809767497119022
Cd 3.116684374126015 3.61799812837493 11.961877440597068
Cd 6.6625422607639955 2.1609168608864806 5.988600916667435
Cd 10.327963014250317 4.309119942009347 9.150853701733608
Cd 3.0322981720847166 4.003220633092549 3.0949650378302005
Cd 7.688314266941173 10.506495478610299 6.479956304050658
Cd 4.316586480872715 9.581052284647084 2.148970169948864
Cd 8.548080074366418 8.627846253672379 8.799330804620435
Cd 4.974149339056889 4.077569457634933 9.567485144910176
Cd 5.827714138679788 3.295469277465585 3.3574040857749976
Cd 10.518631405479796 9.915635600295728 5.798830907092814
Cd 10.871719473381813 7.122955578906764 10.016501205072862
Cd 11.941113824745496 9.370663403082286 8.366008912070093
Cd 6.461085656844682 10.443709031966971 9.798720123481758
