33
Energy = -12.19829799 eV
Cd 11.227784212807952 7.95564064336934 4.374635317821662
Cd 5.856841765577088 8.457144561381329 4.426184029675535
Cd 8.679513208244277 9.406549183007794 4.781918415630215
Cd 8.94852560644999 11.989299493978008 6.0802031853965754
Cd 13.295806136378616 9.23262101266411 6.06715270624048
Cd 4.172085884055337 10.436613450507377 5.796748528098202
Cd 7.287322028555348 6.208088028325421 5.735035455767742
Cd 10.139700041972969 5.551840637036723 5.750754421857153
Cd 11.660798812628874 11.45602529073227 7.055790020611657
Cd 6.04739689119669 12.562803408859914 6.43158177652841
Cd 7.456422699928135 8.945807382284553 7.567330253739566
Cd 12.876728919835626 4.297391446213178 6.243643350647209
Cd 13.873510379840393 6.8150209744608565 7.568606183345335
Cd 4.535013684006239 8.475915241820347 7.972604758957083
Cd 6.713044986230002 6.079894550548532 8.635754407307001
Cd 10.418659258584302 8.43195986597458 7.560215779360277
Cd 12.388362697294754 8.075316340973902 9.921974539329707
Cd 5.3346778400010955 9.875184861703318 10.609505506158452
Cd 10.840276438918522 11.004600550391887 9.799553609095218
Cd 4.3337429531113045 6.878984976541514 10.446602482229846
Cd 9.020857616017615 6.0083796445029165 10.420810347506006
Cd 13.576468220783328 10.6562629735963 11.427686262553848
Cd 7.4584523152399465 11.638269783492836 8.903118966180442
Cd 8.503952527554079 9.03267692160467 10.3213109189575
Cd 11.221924739646512 5.527383252550983 8.62035254493134
Cd 9.102599590260406 13.38164031853728 10.617359813411806
Cd 6.704589379966976 7.043447940168183 12.153950399958417
Cd 6.081403950208661 12.77870035573769 11.466515376298412
Cd 10.876161328083917 8.80006179006768 12.376251169765458
Cd 9.887913847295637 11.59625203361035 12.884045149740526
Cd 7.2172339715932265 10.24023004699789 12.939754275227097
Cd 9.63694077512318 6.2584923396424585 13.332478598906933
Cd 7.755036735306877 8.031250141414791 14.840320891462927
