38
Energy = -15.7006221 eV
Cd 5.706475382873212 6.728178985881043 1.5403807278104416
Cd 8.667745598781735 7.29532714074387 1.2602183781028777
Cd 6.796151383246807 9.554953454488766 1.982033295585349
Cd 5.137447884935111 3.577992729561089 1.8343519261667005
Cd 7.8145577627756175 4.630275489871991 2.4886198031060536
Cd 3.121397547641941 5.725471295518191 2.5888662466890664
Cd 4.157027555297232 8.59297950365998 3.5472789924647246
Cd 9.700303827877217 9.293517853711101 3.1881107873094323
Cd 9.315524674809636 6.296943775861199 4.410960274610698
Cd 3.7828653140619806 2.9680377756110152 4.366159827615942
Cd 6.806240866044327 3.04509354334178 4.870493527796295
Cd 6.988605289659577 9.000316268672423 5.013053205251724
Cd 6.0840546289734565 6.10151819873576 4.636117005368414
Cd 4.465917096847074 10.174429239547779 6.2702603463043225
Cd 8.997895286761622 4.009903268359054 6.680987014957214
Cd 3.1521992501464777 5.77277812652275 5.4569899506493496
Cd 1.9851298294201647 8.531688220732056 5.775244918028831
Cd 11.604125682752121 8.186716691069064 5.28613087116591
Cd 2.7839409057908657 3.3276970182823984 7.167160415930383
Cd 5.016403875624287 7.360799167035599 7.331163982726811
Cd 5.937095777197563 4.624944171358308 7.430737049224641
Cd 11.285643778483664 5.889849176826201 7.146751693440716
Cd 1.8252546709521986 6.309518437631097 8.110509650998855
Cd 9.67332988520393 10.39139083079601 6.004298731470231
Cd 7.720483288222048 1.4403560643925042 7.693020089651843
Cd 4.845753353435397 1.2211609373891463 6.759926968555638
Cd 8.007125347924973 6.9025166701458325 7.001162366659737
Cd 10.363044847633006 8.543025417393045 8.311166026160565
Cd 7.578334152789641 9.831008723202867 8.100540575719169
Cd 2.1632142857401533 9.311502778213644 8.694259508972964
Cd 4.944174064738425 10.090351365179243 9.305802637448656
Cd 8.19247853388752 4.023965428136185 9.667842432653767
Cd 3.408338103078049 4.357023972684965 9.764400245943255
Cd 10.192571756892894 6.124053007438985 10.0299692811308
Cd 5.548843728779659 2.213942870066711 9.646964253477497
Cd 4.038721538387438 7.319303298993939 10.318272062157309
Cd 7.206926983027252 7.165026326204416 9.893460119425644
Cd 5.813130654273102 4.89491717170524 11.254809204234064
