39
Energy = -15.40624253 eV
Cd 8.363101408218588 10.927284864324012 4.011544965366802
Cd 9.898098152042902 8.397429174537509 4.840704656569601
Cd 8.496523766825456 5.601359708749854 4.421582679076677
Cd 6.854164023483517 8.19531467082034 4.553525615722205
Cd 12.563202145280579 8.529529879407287 6.139285393950592
Cd 7.268674559065265 13.42033081098609 5.4498502195813305
Cd 5.4632226373173065 11.019120757457111 5.11641153380706
Cd 5.716853767843365 5.558381528370492 5.5563219327986575
Cd 8.080409437647024 9.819440982637854 7.045558468795907
Cd 6.03343269891248 12.806608464532554 8.131905370827663
Cd 11.154345882940884 5.496409397984907 5.569975499594844
Cd 11.201309871617065 10.29006235856019 8.064169599645087
Cd 8.957822477751069 6.973068646265 7.506942210120725
Cd 13.579444030106155 5.902394586461642 7.282409657281103
Cd 9.31021755318522 12.545964734453728 7.405655949261534
Cd 5.7296803816970066 7.7398792569537225 7.484839015646321
Cd 7.463484130668486 4.318278895071413 7.5736380876153335
Cd 3.9988941169420724 10.300102576905354 7.548128075127381
Cd 10.905530549127784 4.251292414946144 8.211715393574703
Cd 11.498078976847394 7.28963552223019 9.031379081355961
Cd 5.5129452239158265 13.849247504573453 11.090209869399512
Cd 3.5302445064545167 11.89239043201126 9.996003483477232
Cd 11.601092874874452 4.01506515973338 11.285126595364753
Cd 9.128422731558771 8.955540375232738 9.909559798471864
Cd 14.156405458715204 5.054792422516366 10.032485246331433
Cd 8.717558114616056 4.0551186286769685 10.20369912426801
Cd 6.957567493998736 6.603244981843802 9.953662112739888
Cd 6.342998427033647 10.004014435566772 9.640657463542725
Cd 13.029289599476945 9.405965354264069 10.5966078882638
Cd 12.64024195722307 6.741655814517544 12.027099327672905
Cd 11.141588400154307 13.837163082147429 9.352305815287455
Cd 8.302201155107392 12.949184536939297 10.273489530550188
Cd 10.832019105077965 11.390567978450074 11.026064577272697
Cd 9.52646817220102 6.510441081681524 11.724536501308124
Cd 5.05737911421363 11.173738942001803 12.528115132966006
Cd 5.82092891890506 8.324431496999775 12.188313125643612
Cd 10.897864292638962 9.068698081616732 12.960649453576325
Cd 8.065834694820138 10.741142852930551 12.339594403395276
Cd 8.213619184248914 8.056867599395147 13.937437137502002
