31
Energy = -10.47297759 eV
Cd 9.676192657831233 4.760796609313381 4.089496543704195
Cd 3.360786588361316 6.982196257949577 2.5211896946888976
Cd 5.094970729747628 5.993175272381518 9.097495892756513
Cd 10.573777622579515 4.478054309751231 6.99140701853124
Cd 8.158908990817523 9.421963205091089 2.8624864926657794
Cd 2.2143360339640097 4.03579066160654 5.942779620073441
Cd 1.3292411517921265 6.1783479799538386 8.094249046466103
Cd 1.5725535417107503 8.838775594499113 10.08627239548214
Cd 11.611848861049042 7.370332311460327 7.1756014446831715
Cd 10.51140425332029 8.124887759549118 4.487326562952333
Cd 3.040443816753949 1.6665349390740312 4.2508253553675335
Cd 7.6619987613284435 5.244346490341133 7.602920948338152
Cd 5.174628711076509 6.574903204326133 5.958161630773245
Cd 8.708712641472015 8.111917997252487 7.19482898096332
Cd 2.2611100276727427 6.984667142007715 5.264643531465919
Cd 5.2820105889447335 3.6029201753178826 6.784368509171979
Cd 6.458059770523856 9.570955838987825 5.458453208123354
Cd 6.222791933506939 4.310135074013949 3.752123166123368
Cd 7.407288733278823 8.668079982121561 11.635483601555988
Cd 10.327531345167648 6.004629162320735 9.57568344866425
Cd 2.639294815850492 6.059977778766543 10.95494675881186
Cd 6.250079912429272 6.659823124835753 1.8896283631766118
Cd 7.143552896100735 11.98934675354335 7.630595380410223
Cd 6.03431388680289 1.4867684579395068 4.707090160882411
Cd 13.057062087206289 7.45521854935541 10.262892353829633
Cd 3.5058769632427746 8.358475988549724 7.7057190024627955
Cd 8.430051482443863 2.635413677932815 5.955756472728173
Cd 7.6748025016072114 7.137062953940986 10.167251946572835
Cd 7.722203843666524 6.882864359410363 4.533997630111096
Cd 3.0719695571315433 3.630313256933091 8.877795911831102
Cd 6.245796562337542 9.123358698448609 8.423296638562562
