33
Energy = -11.42028335 eV
Cd 6.336386967911399 7.386135556812607 4.642492229920465
Cd 9.323791455936671 7.403452368341926 4.600905098171398
Cd 11.412400201374819 5.4306797970285485 5.732213735588656
Cd 12.713865826300431 10.421610035238398 5.843785411694923
Cd 5.32918865527959 10.002611346764628 5.625022955922531
Cd 5.590810831780382 5.6579747024249905 7.046441391620073
Cd 9.729538950351026 10.052751347335395 5.669975348169582
Cd 9.317387710986972 13.69755696701097 7.893373358671939
Cd 7.5456194117045285 11.544898990586265 6.92602732498006
Cd 8.583848165855294 5.976901304355095 7.158732829656687
Cd 12.180170093030181 12.922516745704883 7.383155082016582
Cd 7.1191853094717965 8.83578131886465 8.0835812741908
Cd 3.2784182908984625 9.04853383725001 7.588592082315994
Cd 11.293397620788124 6.816188552646582 8.411637037537027
Cd 13.38581539127379 8.828125372025234 8.24887644713108
Cd 8.679781387254934 7.09010750362455 10.009061630966615
Cd 7.17448421412601 3.6302073500965273 8.588439009671484
Cd 10.29261796458507 9.740592210338434 8.55980959992094
Cd 2.7114205444369133 6.112646192027234 7.80172929693133
Cd 15.124961247064807 10.726366264039168 9.740394401342789
Cd 6.840707148748861 11.694248722230984 9.944023434640712
Cd 7.844728264714444 14.483201012064484 10.4674289242842
Cd 4.51182909466019 9.970126089162179 10.225799407588765
Cd 8.360733324548523 4.23577944285388 11.232784426727473
Cd 8.345791631851203 9.677567487074507 11.498523448224496
Cd 12.955494454332865 12.723073004754506 10.272863355886862
Cd 11.182809165025066 5.402165248292814 11.071625778801572
Cd 10.011468974219444 12.12171287418653 10.515913556626671
Cd 12.196087481482492 9.782539852065383 10.957444842485424
Cd 5.184389186265004 7.051725374817383 9.708063391305952
Cd 6.431978688345252 6.377254238152112 12.255669377127237
Cd 8.356649758096719 7.838805685205375 13.92802594544789
Cd 11.157790425186818 7.819711044512836 12.871136402321033
