35
Energy = -13.54209362 eV
Cd 5.2563282734590775 6.359295864222273 3.7594591738309466
Cd 6.887736436288101 8.89232024602499 3.4979070303082187
Cd 10.350921189514981 7.777960919303024 4.838190604777053
Cd 8.116518295263154 5.985315362925421 3.617744828975714
Cd 9.511128485097153 10.347189910530396 3.585277741408777
Cd 4.057328598862837 5.505376366660854 6.279540576889061
Cd 6.359307317428865 10.7838029181862 5.815492865400018
Cd 7.60397850915582 7.959508928599676 6.414365976200219
Cd 10.05028844668248 4.818988930319592 5.492585014586498
Cd 9.148270338478563 12.174408073851358 5.923882411198742
Cd 2.3012818228185723 3.1112972030237844 6.896563685458165
Cd 11.244521012268601 6.821383424507767 7.6175958532944
Cd 4.476081383126556 8.502675078069398 5.990444146427519
Cd 7.037946085332548 4.8731269081488 6.448657591785568
Cd 6.718925333043527 13.473416693592084 7.152462766766263
Cd 9.321334225404039 4.52185487618302 8.35645602755745
Cd 10.264881494396805 11.63697360317591 9.540471609901836
Cd 10.270826953240064 9.701285400281128 7.167276411835017
Cd 9.574601721942624 14.158172671497335 8.101133721967734
Cd 7.500868644240704 10.116776911412535 8.597193210333055
Cd 5.581012127042265 6.718132733159361 8.539798617532801
Cd 10.942664155968913 8.905468245286865 10.284186977950128
Cd 4.9715097802475725 11.924788109933138 9.03961576574703
Cd 8.596159899277716 7.302707863089224 9.098144076641695
Cd 12.064395690808311 4.372207036343484 9.59247499167021
Cd 7.6032429334608445 12.898088573178354 10.111103326796208
Cd 3.8291649033935657 9.286073236680819 8.788110448707592
Cd 8.656623109807917 7.837772432682723 12.052648762155089
Cd 5.760363687143704 5.3079071039067705 11.248218985310489
Cd 5.77786627673229 8.500365315348521 11.013834734092663
Cd 13.383211009051381 7.1287266804203515 9.823717329399484
Cd 8.655454855858506 4.737800711424328 11.266774528310796
Cd 7.695655826797981 10.612383151077067 11.9622239391327
Cd 10.975418400421342 2.569122612561795 11.944986535915513
Cd 11.256646672734263 6.179789799183467 11.943923626526388
