31
Energy = -10.51012744 eV
Cd 3.389443614821613 10.12517218294127 7.5293994254976395
Cd 10.84247585963062 4.337375541807273 5.390112327957879
Cd 1.3242890605453832 4.328192629512026 3.600064350081557
Cd 4.6070246293627966 1.199206793614204 6.388467332571088
Cd 3.1330015358816237 8.339320861716137 10.027855307681579
Cd 9.258361330287723 6.320743407548098 3.668580246339607
Cd 3.5442670133640886 9.793761051034329 4.179216856569151
Cd 5.3038472790676 2.8004376915355853 9.012677066553184
Cd 7.526950170880413 3.8191442642871753 4.124564702501598
Cd 7.859891552589616 6.593336246162867 6.532050166265786
Cd 3.0831532941764315 5.801769993967094 8.28537375994668
Cd 1.1808851776214029 6.141125530642923 6.055846009055454
Cd 2.8994215186050107 4.007424596411527 10.729559989040958
Cd 4.3885629492215745 3.935134547906088 3.4313069953612994
Cd 2.596374136914585 3.377296903268615 6.3062158808929425
Cd 6.1030345444870955 8.257620791361964 8.550239549844854
Cd 5.854375488610391 6.594522661179464 3.3554521446355388
Cd 2.8421209471823676 6.885811322383429 3.5513597676204705
Cd 10.53009283225274 2.1258994626665526 7.521029207196776
Cd 6.872942267833116 0.9219963809274715 4.417483211895199
Cd 10.218717212044988 3.651388561934187 2.415753256357435
Cd 10.279069231990556 5.1119911403759195 8.357045103930606
Cd 6.353987826838556 10.497778513990895 6.4743168594613305
Cd 5.630633904667655 5.636709764949283 10.026985917046765
Cd 9.018809275081898 11.563879450889479 4.88301853349105
Cd 7.763066990122829 8.802832926385836 4.16131121480114
Cd 7.808250465938101 3.3370039760588672 7.317337818194997
Cd 5.343555579205929 4.661750314802328 6.2869859137362205
Cd 6.091407167324257 11.098295646961361 3.3638886516567865
Cd 7.356825604214348 5.323992533232133 0.9348983252353236
Cd 4.509432085365566 7.529256344256071 6.0323733399726
