31
Energy = -12.14144976 eV
Cd 6.944270790175175 7.824738529320173 8.732465455610798
Cd 2.67901663297456 4.41300912736294 4.612139242744587
Cd 9.888056425035433 5.2935950860469445 4.1306531554411166
Cd 8.088629846284642 9.815240774275585 11.305780229327883
Cd 3.3873713318700487 6.232305608259584 9.041967334427275
Cd 6.68360918487218 5.551964676976139 3.8244580809363398
Cd 7.783551005758929 10.135016255219266 5.414353618786446
Cd 6.419001267557526 8.094799311969611 13.04006934368978
Cd 7.80839234727494 4.623373649608372 9.571530679287289
Cd 3.2981389116861406 9.197405745771691 8.214482810734863
Cd 7.07097655760836 2.7304629070995237 7.440368876200566
Cd 11.983591585507 7.6044539955683526 4.289901109245588
Cd 8.077074071917808 2.907973125409325 4.537982621242761
Cd 5.151657863421124 3.064338306143829 5.155835191075855
Cd 8.664051576999398 6.758827902074809 11.448360521185384
Cd 10.158403908893211 6.976184303847635 8.904245705997077
Cd 2.700746964893084 6.892558756577755 6.283549515956567
Cd 5.977642800219085 10.735887979010204 8.09297124311669
Cd 8.087405630884533 6.861715613131235 6.206185015014942
Cd 3.8989148232012445 6.906727655516496 3.4458621549808193
Cd 10.456945519197204 8.8959337975919 6.469074379929149
Cd 5.541578273217919 6.219866607406419 10.93323738565381
Cd 5.335077333624304 8.446813474372894 6.033287376762692
Cd 5.62418222915921 5.430088429028351 7.139829215286137
Cd 4.981919951503737 9.381424871841048 10.686098894704237
Cd 9.123687141131576 10.2961568818558 8.681976419791368
Cd 9.197329690801608 8.204207334881028 3.4229432966610602
Cd 12.045510718266707 5.976693180877914 6.742494259061493
Cd 8.127448136507276 12.706145467919315 7.042211176029088
Cd 9.59385516240163 4.31079144918895 7.099461030516419
Cd 6.312582958538495 8.60191983723185 3.146845301986351
