33
Energy = -12.01496878 eV
Cd 8.564642945578877 7.163138860610057 4.362984415213256
Cd 9.612288029196119 9.899962594074001 4.309767662903405
Cd 12.064999471546532 11.907788362081357 3.8370276083637442
Cd 11.294992487346967 6.933768560750146 5.726766190836874
Cd 14.256994152686014 6.659159939728662 4.6155881695192
Cd 12.636238118712606 9.663868455989206 5.747204909716472
Cd 6.648018825986933 8.14789641895967 6.46897245709309
Cd 9.555732604055036 8.82898254935981 7.6976382317806955
Cd 10.454117990717414 11.721875069444625 6.559112622157033
Cd 7.583382745431367 11.116409528399345 7.1463926460124885
Cd 6.22162709692804 5.73378607498692 8.291870370737847
Cd 3.6618110202292113 8.70637759866168 7.125726414981783
Cd 8.892913610679546 5.669509124750105 7.148178043568684
Cd 13.470268632430486 7.83239982089549 7.871838005183425
Cd 9.821145170758516 12.485957672008672 9.30111785604439
Cd 4.699085612266476 11.479612741302995 7.492495302436474
Cd 7.035136441459691 9.186386763831234 9.440142297593512
Cd 14.954955443772928 5.6921309193840095 9.495421417934283
Cd 4.366258467658918 7.584568397324444 9.779330016203842
Cd 9.253671469586978 6.962938216963283 10.130406902764188
Cd 11.949580403258954 10.204141761368259 9.041581499654113
Cd 4.102691796704683 10.524310433788846 10.44221858452832
Cd 4.37073277491176 13.478217277692066 9.811677815509519
Cd 6.629167987318103 6.166619750932918 11.289036537221024
Cd 11.471357792565994 5.614923132778683 8.63801007349561
Cd 9.603196334331246 9.931857883737793 10.958718387067085
Cd 12.451875567446752 7.633041932149188 10.74697692979511
Cd 7.076730310408039 12.18207603155601 10.344895267048205
Cd 4.544176916374487 5.744751869183584 13.558649414109915
Cd 5.303329861688607 8.707086677270981 12.545386146545777
Cd 8.317166624253568 7.8540719190019495 13.154275853997817
Cd 11.274458539399221 7.383301501605384 13.479952068830878
Cd 7.408909850865497 10.750737255985156 12.99229497770846
