35
Energy = -12.22180455 eV
Cd 4.511980693929524 1.1196540907986599 5.232626818156793
Cd 1.610243851739857 8.464878335448141 7.732551208633654
Cd 10.322848312289247 8.1330329125526 5.198986247477731
Cd 3.7836614305867697 6.218647802350064 1.6335100986553492
Cd 3.732765084890426 10.564846301439578 8.449400439362178
Cd 6.5189367440243835 10.102730287627224 7.60711010089504
Cd 9.130393803560338 5.203845757045424 9.94055637569617
Cd 7.862789751728006 9.613430060793945 10.315185334610085
Cd 10.949256295110905 6.476564481819841 7.950938298293141
Cd 10.451227680932215 6.261827337935234 2.567930954554649
Cd 7.654594988744 7.114770467536425 7.350918758899287
Cd 7.390127574885817 4.31031646002005 6.0374177988016555
Cd 3.5730486454044037 2.9770383389100337 3.000011365467406
Cd 10.656528819573786 5.0115036346153286 5.235100616518982
Cd 4.327337342407167 8.242778210111995 11.053350401530963
Cd 8.142245217119 2.3286671258962244 9.631085749921521
Cd 1.8921964738049502 2.7747900131796515 5.713166598010566
Cd 7.005042507528959 6.934329347395208 11.159550907065753
Cd 5.241052753825007 5.19725665607056 4.066020862876047
Cd 6.273193950939383 4.968007176880522 8.983543754947544
Cd 5.996954211124417 2.0208521404931323 7.685960037403502
Cd 11.133435602176865 6.935029744938711 11.159550907065753
Cd 4.289766145934244 4.472933356163507 6.885522729056467
Cd 5.578944627384536 10.906508865690592 4.73289404639331
Cd 3.548597395432078 8.927659402135038 2.8778381520454186
Cd 8.58118177070249 10.603128402119047 5.056107052083087
Cd 11.415883791278272 1.1216294622684182 5.992671990356084
Cd 9.667803996399874 9.211800616929034 7.959618027252567
Cd 1.335975693041559 7.954315952649001 10.650394842878368
Cd 4.711592975647611 7.437183016486276 8.152106964730212
Cd 9.845234508690007 3.3152600086721185 7.4612164628580775
Cd 2.946700186980669 6.803832846508288 5.65586218131962
Cd 7.938247620896979 6.513513249769356 4.071041556154671
Cd 2.7542962581931763 10.175862224920118 5.520134415451336
Cd 5.672453907987776 8.0281165267257 5.219369298557527
