35
Energy = -11.42748586 eV
Cd 6.065354091834043 9.225451405295832 0.6542947523200587
Cd 8.967217113859968 8.995803824369087 1.6577702972402286
Cd 4.366764769649453 7.3364631890635605 2.3591444808321764
Cd 7.256000927626407 6.732267512006064 3.14549606243115
Cd 7.263217398510855 11.48330498697081 2.3914611162038266
Cd 4.150426757755497 10.445404896832754 2.8841296469219064
Cd 8.261514639626814 9.240419086606606 4.5959227615997245
Cd 6.6017011657045765 5.603600241670627 6.234260157198982
Cd 5.206415315297676 8.261307283673641 5.100371231147093
Cd 6.035020463389867 11.194254075496103 5.145290426631569
Cd 9.768409322427468 5.86173576901637 6.70629966293888
Cd 8.770338037643272 4.356824169283017 4.258443437589986
Cd 9.678126275614884 9.194637318142073 7.095850043751384
Cd 12.132129994017685 7.556274257993023 8.07990577187346
Cd 4.781040827996492 7.520466878945462 7.933104606767257
Cd 7.820434203344558 7.31013864309756 8.497185074918242
Cd 6.54268886054792 12.206679572688873 7.794909544049947
Cd 5.907905501827813 8.539984144769694 10.538488697378645
Cd 8.516386406691494 14.579152335864729 8.48328585597431
Cd 4.860991417302412 11.308309385181117 10.225224735979374
Cd 11.69071231472764 7.263900216544721 11.028755966228548
Cd 5.849652691477373 14.416192943855194 10.264371293468837
Cd 10.225829260674182 4.704319352481063 9.590411125899418
Cd 8.727888118979376 7.363650088912091 11.31896965321297
Cd 9.32328791400126 11.592730806618446 8.744855060597045
Cd 12.127414360637985 2.336657287425021 10.169649061759717
Cd 8.272473176326722 10.405657736253628 11.309077988099373
Cd 13.189460487601268 4.62137404538708 11.790156083080111
Cd 8.78241400847175 13.829980683402798 11.471653790721039
Cd 13.426030360730723 7.209685458977774 13.499056379477738
Cd 6.303759560831609 12.407710288381555 12.672393269802848
Cd 8.35811610040927 4.558865422090587 12.225990856900937
Cd 10.796973470968316 2.652423011435691 12.895866764819175
Cd 10.740494185843797 5.820779795627792 13.864335929813997
Cd 8.999961512603184 3.6301449005931743 15.140169427323494
