34
Energy = -11.96607686 eV
Cd 8.97992101409453 7.165499531168245 2.117659315693898
Cd 11.589620863757652 8.517067376430191 3.1264003778090688
Cd 9.17806297260861 10.342368894489347 2.606884373301129
Cd 4.292485827043013 9.546573347279397 4.668847654492193
Cd 11.300995647647255 11.330141024657028 4.573080478787616
Cd 10.402475943108486 6.191208649106638 4.660175834032651
Cd 6.799590089158331 8.693904212265398 3.5174474523752908
Cd 10.77658541880793 8.881871742560573 6.220089178485488
Cd 11.102809953278108 3.2714375046405277 5.4663850609640505
Cd 8.256853218638302 10.549457278043416 5.583500871467843
Cd 5.078119940653192 11.396523130731774 6.788123179363584
Cd 4.105741837402882 7.767384371835229 6.94430768348353
Cd 7.694215762331465 12.10706113475018 7.984918847246392
Cd 7.981943729670902 7.477412750988599 5.896097173869367
Cd 8.883935900832123 4.362085053445791 7.281950233932503
Cd 6.196454486260708 5.767395023008661 7.430052450807251
Cd 11.052652304600533 6.421276149530268 7.764228417429882
Cd 6.797835420600556 9.077666963927875 8.336959898353742
Cd 8.885409456400392 2.327891638974853 9.493120259356543
Cd 6.058410640643034 3.0920524773398532 8.905591686710293
Cd 12.07114707468248 6.246632903026124 10.470019120052129
Cd 8.447748288545998 6.781244640592183 9.416382103999156
Cd 8.752086858978695 12.617910885922235 10.594171873950653
Cd 3.655007444740525 7.434105587734592 9.913721292204885
Cd 5.74785701947613 5.5264463661751435 10.574260309860769
Cd 9.82578671468818 4.477173165189041 11.30457258318199
Cd 4.101944846376019 10.305457900245358 9.596675561516744
Cd 8.877881432963003 9.588053380361922 10.591862804826047
Cd 10.115370823111746 13.768102849954728 13.105054379882752
Cd 10.959927430069087 8.197495830892152 12.343990857603966
Cd 5.832087985074054 12.0930171242954 11.0698353690731
Cd 8.50517788190502 8.748328195178832 13.969928817294022
Cd 7.785455925700931 6.426574212547695 12.391698301886647
Cd 7.914818714326308 11.509597570885687 13.298425064880533
