31
Energy = -10.56068637 eV
Cd 9.512845977185513 7.107164377020482 3.237813612637193
Cd 6.9078372753687765 6.725356937646553 4.942692459980951
Cd 5.5102897570473175 11.191734968552908 4.2965868194744115
Cd 8.198676269614335 9.591321732385598 4.3002122249553745
Cd 4.021592710686638 7.083281289600108 4.43504997367276
Cd 11.967480289178646 6.228486658120524 4.9614428631149865
Cd 11.269547533635476 9.4676254508745 4.254651066924069
Cd 4.755282944740702 9.256838140479449 6.4624462737842485
Cd 7.074342481521803 5.275927708876107 7.894874348573837
Cd 11.349719130685495 8.318472234015166 7.031555417245195
Cd 8.322182789519436 8.171813750309383 7.103932565120148
Cd 9.289617831035537 4.929276272952776 5.527320406450787
Cd 7.884647692789708 11.944325211405543 6.123361746586404
Cd 3.006359220426764 6.926220115402076 7.375447879110573
Cd 10.328887233072608 11.044359322351447 7.707221398179029
Cd 10.56139823296081 5.725732309774179 8.179002372832736
Cd 7.891306626053938 12.294295495189436 9.057303253641484
Cd 6.448211001365832 9.734681821873695 8.848365712696358
Cd 4.4520227118136635 5.492844809518539 9.520283272990422
Cd 12.479980505633378 9.60358586348773 9.53238491494098
Cd 9.554636582338832 8.308354934715968 9.969645606212731
Cd 6.676117572715063 7.189365283117602 10.436529516468191
Cd 8.856788652498379 5.178846396740303 10.502919086830934
Cd 8.122365525213675 12.442296913120805 11.958356520598555
Cd 10.579298778612754 10.786280473214097 11.559139856288475
Cd 4.464803742080901 9.60110116875607 11.205918042798926
Cd 12.211097842501166 7.904315468827426 12.045620755650077
Cd 7.415658363672483 9.528850269786696 12.250962068467597
Cd 10.263934748723845 5.66682908231866 13.091875264033837
Cd 12.687047350855929 10.515087923967021 14.120632255211243
Cd 9.782416775412706 8.611721764560794 13.91284659349036
