33
Energy = -11.33967139 eV
Cd 0.8798977728841576 4.049833929054853 3.817956928891666
Cd 8.927898686783083 2.899217088599332 10.75465100059001
Cd 2.8354541432594242 6.765220861229465 7.201749543191847
Cd 11.918736164102844 6.618432797727666 8.226850128142246
Cd 7.981310338224059 10.183968897245132 6.744648623745016
Cd 5.129198439253543 8.32131348306924 6.0010542416069095
Cd 8.488276462332212 6.8146693337699675 6.556178216562166
Cd 2.3890579269879826 4.342616069397532 9.479814557036724
Cd 7.525201212343786 11.959954452875804 4.342104557468956
Cd 5.531628817268842 10.689118186827203 8.666706379047552
Cd 7.795953317013037 3.270531376942729 7.733593615625421
Cd 8.756653794019925 5.870115041697236 9.749618254911207
Cd 4.111222245533986 8.269301119509533 9.398902924239119
Cd 6.594203761243728 6.553545371385611 4.073594795630664
Cd 8.466136238163946 9.03609760183144 3.8519501859927443
Cd 4.901700567851928 11.65891824623299 5.990478237609248
Cd 10.498371362290309 9.170638073424467 7.9556829612734195
Cd 3.810520238449759 5.354005480346673 4.04234042234789
Cd 10.665870124334004 3.846580291868791 8.453266668996882
Cd 8.966826950300067 4.346622827314067 4.56471957118305
Cd 2.675690864226231 11.418067822229572 3.8369610543814723
Cd 7.5144497244741855 8.468295106577772 9.203202613389301
Cd 6.05214112594351 3.841418085585942 5.308773539682482
Cd 2.319084532220353 3.982185366750602 6.498165257548499
Cd 11.617504848078058 4.633867575962164 2.779609168224817
Cd 5.526981942558986 9.943252458737382 3.1708649703265137
Cd 11.678915259682109 4.581616921547846 5.820858608984946
Cd 10.793849393528534 7.210165549637088 4.353295399586486
Cd 2.616041663384682 4.580151628401265 1.107191456995997
Cd 5.87044816750905 6.016099975130498 7.995890807149027
Cd 4.107375758820968 6.02040587689159 11.231172827204396
Cd 4.802337475020424 3.116194616987322 7.997655111820178
Cd 6.10786051996823 4.034205530271338 10.654280461929922
