35
Energy = -13.22896903 eV
Cd 6.433907721358971 11.712843743069064 4.954716317069965
Cd 7.834224184006363 9.189623848008681 3.9791264856222908
Cd 10.008049205591451 9.066424571867369 6.187067026757772
Cd 7.103105131593519 6.415950833248603 4.254616852202132
Cd 12.224417786375259 11.781839887815352 5.707988846281273
Cd 9.341331034451462 6.139078460696084 6.44934771007911
Cd 9.355281198074902 11.734836710110075 4.979809736774002
Cd 7.069080723129616 4.184229823229017 6.349119380356414
Cd 4.754088997324936 9.296464412983768 5.617818039472977
Cd 7.202881806850565 8.422718140561962 7.425428163590716
Cd 4.940888400613338 6.3142009738136515 6.438754589793872
Cd 2.588800840994463 7.917083790924774 7.321126898977958
Cd 13.424492489435226 10.28682799837457 7.908960844804422
Cd 11.798195388128592 7.165449473413359 7.62254237880795
Cd 8.846145314967123 10.978838081154608 8.275567777843355
Cd 5.870959064097993 11.509829113835242 7.776239649804094
Cd 14.690873421850588 7.382156761445507 7.909450575999433
Cd 10.265577053114145 6.410102933558681 10.054504471490421
Cd 4.819279177759696 7.360448383384507 9.480293868581725
Cd 3.6915551249533234 10.07839375346234 9.13568259652389
Cd 14.483013607030387 11.969994341491864 10.317674138926007
Cd 14.439264532707105 8.896630541378432 10.5306852422957
Cd 8.040700239123405 8.612884364902062 10.217086117615837
Cd 7.4491156179707305 5.708201218791448 9.001092323995742
Cd 10.994194364240393 9.352143672469376 9.630205713916615
Cd 5.67881133436543 11.702320038825572 10.763494060360646
Cd 8.588510094804937 12.680988162689891 10.766089076402052
Cd 11.4982607937664 12.283280822383436 10.55093995378003
Cd 10.855550244134301 5.469972185971661 13.183716878797703
Cd 7.580105018466584 10.371078216570917 12.528118906309238
Cd 12.244493429721187 7.8442816946655025 12.144530941258418
Cd 8.152355877588269 5.172701619733439 11.959763231038961
Cd 5.245566077310765 5.408481462273426 11.580370103694955
Cd 10.60576539528198 10.305278706550949 12.664855043374986
Cd 8.8032763122289 7.796538259757094 13.25533306081163
