37
Energy = -14.97653225 eV
Cd 11.540062644862731 6.131222703392264 8.201675434356591
Cd 10.473536027281968 9.901768012270686 7.5349519850573605
Cd 12.131948243248209 3.5141289320639597 9.354950977650415
Cd 11.409164249087153 7.690429972984845 5.7570674766235355
Cd 9.47169625467713 7.931560548719455 9.610983120134117
Cd 9.809323222183968 4.695244759212086 10.813106767501509
Cd 10.494295564805835 10.219216418058021 4.496936017699423
Cd 9.885756459349622 5.159595900185867 5.653888809096253
Cd 8.742293193953412 12.05819076278247 6.0757434051095816
Cd 9.535005814730546 2.699031527990247 8.192946447609929
Cd 6.175858892162808 7.604325637596567 8.742710991511032
Cd 7.67926957507623 6.507114625901756 11.64104307589896
Cd 8.292113995852063 2.6228581774987796 5.514738563896054
Cd 8.095960216222677 8.187826344742334 6.559098521047772
Cd 8.214923242301651 5.522260035685054 8.160562780322742
Cd 8.993320693254551 7.6718867185547 3.76466962959457
Cd 6.624027260036557 9.34108922288454 11.24625258902264
Cd 7.514355190268827 5.096011538287727 3.561524130243287
Cd 6.077651825410198 5.979556724985246 6.102630224710329
Cd 4.773350889763707 6.963725432718895 12.08861679069505
Cd 7.743570408688391 10.699294119308673 3.5300733782657066
Cd 6.1387085758157465 10.590175469204704 6.238810864153751
Cd 5.0141796956019 6.299372962591582 2.327599354024316
Cd 5.909587319150371 8.417561210291518 4.109975523225446
Cd 6.279953731791179 3.0876897591258 7.866128492139356
Cd 2.4435420314421274 4.946463770951293 0.42060372835625465
Cd 5.460095780714849 3.1686265164490552 4.973680465502958
Cd 4.010728454674515 8.321059843727216 6.669942532643639
Cd 4.7705529692841555 10.445774544970368 8.87621467591939
Cd 3.098367141730347 7.140246933437161 9.401396970948657
Cd 5.454225729547502 4.9198388573649465 10.017530445055325
Cd 3.4845613508264517 9.47501167636059 11.281285620458776
Cd 1.8882595915279032 7.312116116909905 2.3592393604142594
Cd 3.0485691169314353 6.124808271928884 4.981525591324739
Cd 3.4555251080334135 3.8029555051775077 3.085916986961266
Cd 3.59529066923687 4.791972123760249 7.577501390354409
Cd 7.863179822850427 10.552799274302773 8.801287834848317
