34
Energy = -11.51410914 eV
Cd 12.628533263554338 8.000388351731464 2.147086994594557
Cd 10.7711399792434 10.023298696954326 3.4117788702419403
Cd 9.941217676423694 13.042634695208118 3.3668661860695788
Cd 8.39990317634827 8.270338238402076 3.9020159618871624
Cd 6.326962320213962 10.213197440089214 4.849154881159934
Cd 10.901150032458865 6.0705368560648365 3.845125121458839
Cd 8.011824262332132 5.341402964905201 2.896761030907482
Cd 11.460754435853396 8.458403923479928 6.201753315192833
Cd 11.392827178432086 11.523965269632328 5.983932518833934
Cd 8.378873278262853 12.176731150674337 5.863696477334683
Cd 8.25580878703576 8.714949240072118 6.964944368388708
Cd 12.179065292937352 5.541376914843496 6.515784089257498
Cd 8.308838401000644 5.769598234600072 5.840867100285849
Cd 5.467432766084262 9.695683665646367 7.709355559178001
Cd 3.3944671967604654 7.2038537249917285 7.465112693487729
Cd 9.971540837875915 10.67126771109785 8.530636347901098
Cd 8.298801290812241 13.303134801668211 8.658262948073528
Cd 6.242257467343928 6.294720288395677 7.835878703158106
Cd 3.816201046698004 12.14283061263577 8.9377603597722
Cd 9.93939634478325 6.3534332608445885 8.324462689656285
Cd 3.071848138189656 9.270086390918701 9.725769659482506
Cd 6.54891566123712 11.377249040511042 10.012714040835206
Cd 10.777790333213098 8.44249883279512 10.414779121790136
Cd 7.608834766745246 8.412743960829772 10.162270940395475
Cd 6.088015959321221 5.587688227156836 10.71048537462757
Cd 9.135685890464153 4.8680356966849185 10.700263900682076
Cd 4.611085705523269 8.004541627962073 11.877977789509334
Cd 11.709973221676092 6.222969651317391 12.437372089552701
Cd 12.19394929318007 9.187235639724324 13.134047681078176
Cd 6.575461845810658 10.137470478415938 12.693566843688822
Cd 9.185908198568876 8.873754078067973 13.126109748132798
Cd 5.03637690997884 5.531329750861945 13.601369672999901
Cd 8.009566886734715 6.1026726126035 13.365879092362775
Cd 10.000252897455578 3.8106387127677457 13.426818570575982
