31
Energy = -10.50657238 eV
Cd 11.387094054160649 6.53129081033618 5.853792753492785
Cd 8.760207071717396 6.756464171645562 4.114315397470111
Cd 2.1263182565798346 5.534701342985674 7.301399136523193
Cd 7.430482457607076 10.492775541517979 8.258369153835037
Cd 4.923559037627573 10.105305661595196 6.429471727520937
Cd 4.892103831200836 11.486466880409504 0.6822668049415777
Cd 5.696934878625753 6.6278266324879995 3.251529692978123
Cd 6.4572766334563605 3.3320362608919414 9.59762686396864
Cd 5.770276827996677 5.755810086720517 11.165827860609623
Cd 12.06358193189825 8.972249699944014 7.7211024053191775
Cd 8.059745826645548 1.8677558880183784 5.5406094867470355
Cd 5.915387950331068 8.616891827683707 10.879080869959315
Cd 4.315742121698149 8.418852328897183 1.3768239168487042
Cd 3.40172865471044 7.64376789330586 5.5041531923742575
Cd 7.912217920343935 7.492487292586005 8.903722983286134
Cd 3.3716443061390873 4.782493000826681 4.4768384960923635
Cd 6.5047057735983955 7.496551385675202 6.107187074350905
Cd 11.52087127839809 5.766478583840569 2.8253670141391827
Cd 6.445604730499375 4.135320621091222 4.547103949513093
Cd 3.816662294276684 10.413510955984073 3.6488871824967672
Cd 7.067097527936372 11.38215598168981 11.371989333301448
Cd 8.82529828938213 4.9582644475449085 10.344847981182808
Cd 3.3075411704756825 4.33873909294113 9.835614049149797
Cd 4.538552187467666 7.312064884419588 8.520603933399451
Cd 7.6310032585205745 0.9654739366476732 8.327377059378135
Cd 11.0444410652042 6.232292300911666 8.82068318397068
Cd 4.508698766272897 10.767122025669853 9.313092615416233
Cd 9.283746649950414 8.887725818604059 6.5191680538399135
Cd 10.03274546019946 3.9419011400142194 4.773836913794058
Cd 5.186915888393141 4.537504047258175 7.239403520289851
Cd 8.261583793330553 4.907489352502146 7.2076772884571705
