32
Energy = -10.79836312 eV
Cd 4.737132946977071 4.947565332862253 4.75873112113165
Cd 2.218424609543845 5.047422718076265 9.17871793410181
Cd 9.475040949097323 0.9374262430557662 7.951283772455952
Cd 2.4030315616542466 7.544147286368362 7.2851283141990715
Cd 9.201388210800204 10.337797720148513 2.8034741428433168
Cd 2.121798151812727 6.772387214751721 4.256655868986736
Cd 4.617926070639263 8.213859495216926 5.237267133348037
Cd 10.18198425613091 8.468841230698583 10.724898623847363
Cd 10.23196356230198 5.497109249755588 9.956692144093408
Cd 11.097142375008112 3.51351932574579 7.955517186229686
Cd 4.766276993433859 5.261978889573352 7.689472535089673
Cd 9.463613692488826 2.6341699877993134 5.325679826318739
Cd 7.494387900228677 6.838300333987069 10.06280991206409
Cd 6.55446108389317 0.9378007017577464 8.438400783177698
Cd 5.049721268334257 4.363304874042446 1.7356796409379276
Cd 7.732576506451641 9.932204039550735 9.35231671275668
Cd 6.26419944764574 10.139291439069158 3.5413465798609716
Cd 9.748558421720666 8.131576204906283 7.7195800438898114
Cd 6.293104122729247 10.184092744946506 6.772571466121314
Cd 2.1654754644755183 5.516623894606644 1.4526792795650245
Cd 4.3022156184893054 11.848058170630587 5.2422946739237455
Cd 6.790365520191721 3.396662532523283 6.501799045394038
Cd 8.912406449532075 7.703601941741837 4.30452546373535
Cd 1.8689727056872203 10.353303336563322 6.2238434592713405
Cd 9.146622004119232 10.4723226027979 5.83415567128732
Cd 7.1759032479051905 6.770123154160665 6.644325205790702
Cd 6.323472692221555 6.982462519508361 2.9050236861545633
Cd 4.294800058670847 2.592697595957733 9.407885664437762
Cd 7.695802576702273 4.328498754719996 3.568746214565353
Cd 5.263206904976605 5.062314804539588 10.865193061061357
Cd 9.97299087933292 5.518895826692836 6.020894526877494
Cd 4.946586262912993 8.263192349355112 8.793962822591592
