31
Energy = -11.74050102 eV
Cd 6.415547212560272 2.3173663599184566 3.32667345875504
Cd 9.13922941590629 6.5510182199766716 7.215556716749691
Cd 2.5825925549575848 11.828318149838186 4.174061167315376
Cd 6.806775162805109 1.9078073661271027 6.206260830693132
Cd 3.9424174066993656 1.5217120011916603 5.647305497782664
Cd 8.0517631761115 8.808588113091409 5.462282818150189
Cd 9.904279286904044 3.324357632341188 12.595978532798494
Cd 2.426145489130181 5.36906110528137 6.523224422741558
Cd 1.1541463221947017 5.727906117131837 3.807317869304874
Cd 8.401872368839342 7.050136929573372 3.129539353936388
Cd 4.674938233523094 4.508467660630776 4.7649936327477
Cd 7.157907135345479 11.828318149838186 5.825350219255917
Cd 3.2616745863367758 6.9160674166564755 2.19520579209278
Cd 2.9190876561214605 5.571079636705805 9.46775832417877
Cd 4.980641510062669 9.517794888839978 6.340250585526622
Cd 5.017780787227847 7.587950528615777 10.185759559612771
Cd 5.545528498997665 7.4216339711253205 4.207248458936489
Cd 7.922163606778843 6.378009332625456 10.073563570350343
Cd 7.7032683867907625 4.8282592960801205 5.127909623301557
Cd 1.9941046641680078 2.935423395904261 3.7388244434618616
Cd 2.922553393850824 8.253766517390712 8.076709319925168
Cd 7.69727767598814 3.948779397928882 8.157013344083962
Cd 7.980210625614262 4.367990945869222 1.9795144869506396
Cd 4.417875873950813 4.097146445563356 1.7510599542153265
Cd 3.8427099872783623 1.1193574499240784 2.1322334457924064
Cd 4.474751701372544 3.3083750975509165 7.875784757043296
Cd 5.6407431800625085 4.503144756360384 10.353280318239031
Cd 5.573366985068682 6.15899533962636 7.063961747372854
Cd 6.11072924859907 6.574334676209601 1.2197327688709794
Cd 7.052639343746017 8.660455170996975 8.310042845568713
Cd 2.597616412974281 8.117861448557058 5.05874108569397
