34
Energy = -12.61160929 eV
Cd 2.1832454710018743 8.334817355304823 7.348970928521064
Cd 6.465965657446328 9.671557486670451 4.702375187530303
Cd 3.9691637207967085 2.053914298744303 1.3202712503745342
Cd 7.375625651520294 0.8974856284166804 5.368387223519255
Cd 3.4603836810168063 9.407540020237587 4.904118423392027
Cd 8.893444750344377 7.802921263799083 4.401352328239196
Cd 11.843655420632142 2.473347979632528 6.356820752137269
Cd 8.173923975479429 6.135156681271358 9.554117428011452
Cd 5.399691279759427 5.92377605565742 10.97978557608272
Cd 3.492270702263382 8.238141861427584 9.94660052877823
Cd 6.692875041142919 4.389375348228436 6.170095948179156
Cd 5.934727895135384 6.632387904428681 4.331032026982638
Cd 2.972556428285835 6.298114141569371 5.199607800142966
Cd 5.298088870550184 9.911929552125773 7.394195363948513
Cd 3.184533480280496 7.5050380658302736 2.4621638804410937
Cd 4.8544707090880825 1.9486929052428843 6.537538750655317
Cd 9.455484379641915 5.515890892747118 6.1667496070473415
Cd 2.8115738161373 5.463874094427221 8.337463181265498
Cd 3.539324777432152 4.912874235086825 1.1399970940898343
Cd 8.044220816868311 8.22661931042537 7.168940284470631
Cd 7.414036686029411 1.8004176768892897 8.2810560962343
Cd 2.417769581718462 3.5136785414756027 6.103494325282804
Cd 6.408651907917214 8.497830588147288 9.74585785967326
Cd 9.737178354628796 2.4875146635167025 6.133189906773839
Cd 5.846861459281089 6.919955852086138 1.0862076918672192
Cd 5.228237878458191 3.773656994013519 8.982443004700054
Cd 5.188429193100334 9.779630285913084 2.0264595483083907
Cd 3.779261085954045 7.538171837496374 10.97978557608272
Cd 5.838052122349965 0.646070106054036 2.988183529675657
Cd 5.339161193553488 6.683547537570814 7.278783590310942
Cd 8.269129249046703 5.797527900498943 2.2940310412719036
Cd 9.59407896714661 3.775373354809955 8.7879471175772
Cd 8.040516531837808 3.1810474168974383 3.5530031834970703
Cd 4.594979918578411 3.84394511218323 3.993955697953164
