38
Energy = -15.6575081 eV
Cd 6.902769691005507 6.100899266164866 1.817374877690409
Cd 4.12447020521642 5.422775482857681 3.752464780193908
Cd 8.281632319613738 3.571128342396414 2.549581372742669
Cd 5.38588641444249 8.373965979718445 2.6919187738779904
Cd 9.334212602949252 6.3951288479148465 3.5822063669456323
Cd 5.274004350745567 3.335628341324322 2.009350749573882
Cd 2.363254414065136 7.632746708814803 3.0298972972122464
Cd 7.971694476155928 9.22775288439785 4.142305350548593
Cd 10.941143917123538 8.586822886521981 4.691049512047828
Cd 3.308024271618887 5.4844677533425115 6.572927791967974
Cd 6.258766212909903 1.7004163170199573 4.261953735005662
Cd 2.56142037533604 10.203765360740814 4.380143898875956
Cd 5.488136042465047 10.915316960472678 4.1963619635397205
Cd 9.644782664950574 3.5351542005540657 5.127514157437335
Cd 5.369011635556304 3.1623061942342177 6.696278146922349
Cd 6.8951483412428685 11.741624438812092 6.706913741216765
Cd 5.245194390122062 7.93351060873172 5.751125444241867
Cd 6.831781701830887 5.2375261669683155 5.029204772781625
Cd 10.980203221532975 5.897018022759684 6.293596957842274
Cd 8.087411291671257 7.492326004236996 6.640545483401683
Cd 8.547214373112917 0.9585076292504299 6.022007371635379
Cd 2.17865008022347 8.233642350098982 6.631939614858918
Cd 7.4975490687729245 0.5091825206296322 8.698428810634018
Cd 4.005268975386353 10.842694565458189 6.917571925340172
Cd 9.453594131616235 10.404228117403274 6.708784283170494
Cd 11.69241149079749 8.709140890771382 7.616101495775696
Cd 3.4896736895347336 3.44995586441041 8.963972780561084
Cd 6.3932548153503355 9.31399829260274 8.401283290933184
Cd 5.774862309168109 6.189071343269595 8.123897827517155
Cd 8.24321812486349 4.443289295232466 7.746422368746407
Cd 2.8300639133425323 6.304841311838771 9.497257355317782
Cd 6.312695072070059 2.9077901419552226 9.760624104561622
Cd 3.3799674977702474 9.18958798082051 9.251612879033768
Cd 9.870441756175644 6.834369116938883 9.046235395888148
Cd 4.686955451861929 4.776068899668699 11.44127978926036
Cd 7.628615848418359 5.483282810506067 10.581005671186174
Cd 8.24445615975273 8.707891375587902 10.65834992680075
Cd 5.349562986193194 7.619581010537192 10.83791421967782
