35
Energy = -13.86387258 eV
Cd 7.957165770127627 11.436610955490208 8.022997717919646
Cd 2.7147360633163697 3.2309997659694822 7.344437197982516
Cd 10.478780217409616 3.1959360002615087 7.517379474651637
Cd 7.917897739522673 2.9434242127973844 6.050669368813754
Cd 9.59394905576769 5.4044964698414395 2.1454761238487214
Cd 7.221976254339308 5.07205881891548 3.7958359941313984
Cd 5.871344436653547 8.726853852684844 2.0001539131027943
Cd 4.917206803982511 6.3830125424207225 6.478351879330662
Cd 5.637688640588714 3.729452359859061 8.166770086500158
Cd 8.66413548069812 8.230571876950549 1.2115006074117447
Cd 4.577399747142851 6.34285041101116 3.1490389553374927
Cd 5.648323616438984 10.971223231344693 10.129990809818764
Cd 4.478376454531642 8.26079248421113 9.971319568043155
Cd 10.028703560110802 5.573833473251113 9.379251151391152
Cd 6.563867344693087 8.649519083915896 7.715972066503118
Cd 6.768637899926134 6.025791694888211 9.712079290475451
Cd 2.8605419540730237 8.407660178264347 7.51971485872246
Cd 8.254785194895565 3.1961335663447383 9.487256147825406
Cd 2.6160179030491664 4.853002664448562 4.807351452970024
Cd 9.404523661070051 8.52747710791309 9.044850630154874
Cd 5.136926329933985 3.4136854388557976 5.16322225089099
Cd 3.356228426881014 5.663784775712613 9.133683036889625
Cd 5.013511330627685 11.605730415661203 7.275424668959129
Cd 10.375913427109623 4.5900584800778 4.918502352192266
Cd 4.510164711133141 9.625219146810618 5.084150892736689
Cd 12.11833796318094 1.0244083932638401 8.918329721626751
Cd 7.8252072302929125 5.909342574963068 6.81662596080099
Cd 6.9769403635042835 7.989450359042099 4.7987959014927695
Cd 2.1639992691821184 7.760687418742024 4.629272048629845
Cd 9.907961014212152 7.797716797448592 3.95657854401383
Cd 8.64932535955977 10.868707693987051 10.856499314623854
Cd 9.23310596882242 9.691741421500248 6.106600129436394
Cd 1.0503604460988882 5.904216592226416 7.09840682219804
Cd 7.188636289069859 8.392282967201044 11.408420240984585
Cd 10.655437689440127 6.9862407745438775 6.778210024215845
