37
Energy = -13.97578412 eV
Cd 1.1037593394076717 7.731199140877355 5.624822704522144
Cd 9.786262624844557 11.039863787344427 6.188643838993084
Cd 8.48685086208854 9.04187697881461 8.478547005294399
Cd 4.309153688042032 7.865840991377293 10.111197820433356
Cd 6.813990194073717 10.282443439404446 6.154006142224833
Cd 4.384727451600216 10.451903029536531 8.618408186139737
Cd 7.297615977692331 7.4500134925467405 10.780573251251305
Cd 4.051587474416894 8.919447667479586 6.034009911061947
Cd 1.3550461028416116 3.4931229511578348 6.66064895007596
Cd 5.33745277377694 5.282306248274184 11.44934764759287
Cd 1.8887998197166418 8.811004253877684 8.4572262475552
Cd 4.108950621877552 5.065453953788067 8.730357827907916
Cd 11.178078186855117 8.49602845196419 7.155742032700728
Cd 8.689156729718432 7.15957347306705 5.647509314175199
Cd 1.1359412595320069 6.013804133821387 8.158760715157605
Cd 6.204707832639916 7.092756620406923 7.538876930868284
Cd 10.524265257912923 9.18334776557762 3.9710863818294277
Cd 6.475949325946895 8.395878149532736 3.9595017292442876
Cd 3.429220733468831 7.779609845729419 3.34928157273273
Cd 3.6505144957334092 5.876898939237966 5.952637159515087
Cd 5.935622480117937 6.33685146090816 1.9461227427837369
Cd 7.333152907939936 4.429259856210008 9.140699093889847
Cd 3.1834723782446415 1.4417474414642992 7.759118517900604
Cd 6.373747594601528 5.4181912318298115 5.02315945995529
Cd 12.9829902365195 7.484433282302249 4.88788985749825
Cd 9.6609931959846 6.393900587014371 8.93466288619112
Cd 3.9175396944770347 3.0834438114871707 4.801496747039289
Cd 11.652167855883071 5.481713741189924 6.776356016204567
Cd 8.40034222731899 4.628496207799327 2.6183042231625078
Cd 10.75268323735959 6.094065358332297 3.483302442974758
Cd 3.181988769451289 4.947653245072578 2.546456388753077
Cd 10.261936954929102 3.3962446136703317 8.59401376591066
Cd 5.768902186051163 2.8441714627444252 7.314096974586013
Cd 5.725957008113132 3.3482281102466747 2.2155632230543776
Cd 6.9836963622412815 2.323006533640958 4.703764414400023
Cd 9.192832786433764 3.9975497400291893 5.761450854781808
Cd 7.072341345685962 11.511067975780582 9.064754995175502
