30
Energy = -10.47250659 eV
Cd 6.3840144434790815 4.002292579630458 2.6496683125697453
Cd 2.942344110045847 6.076667426658249 1.980304125740655
Cd 9.139318252056068 4.938520343263087 3.3524028460015014
Cd 8.506856027199117 7.982270221241149 3.2766352863733186
Cd 4.34018639054976 12.043842356511709 3.241534351413931
Cd 5.649203106286586 6.899187428961135 3.3776652533260667
Cd 3.3824281018376476 9.066037724169556 3.6235086132830436
Cd 3.523160630946002 3.735688323157297 3.9315871669246243
Cd 6.364078158480427 9.895788517956351 3.8807790569111678
Cd 6.621355674726819 5.187946716121138 5.651452036281521
Cd 8.282372158242636 2.0762704846613755 4.278839349524243
Cd 5.446694702024908 1.1277236026246453 3.8294699066448716
Cd 2.798739444094349 6.568202925560492 5.073010699653136
Cd 10.223107160266222 6.877780603273794 5.433346772547143
Cd 4.628473583627429 9.931623074012531 6.332459977825892
Cd 4.818941732710639 2.5989457436791192 6.344320757820582
Cd 7.8590082498427165 9.069688211354377 6.332228148368032
Cd 9.705540952514099 3.929904483710036 6.267888720429489
Cd 2.690637273456317 4.5510451775966 7.297747246826352
Cd 7.595286530391448 2.008673738990071 7.359334806228635
Cd 2.531654286858747 10.469881083832707 9.060936025601299
Cd 8.425597459369458 6.348060988733206 7.750761880327977
Cd 3.213887769504419 7.640754951844546 7.8474279364555555
Cd 8.523333753426945 9.25461495537227 9.240657507397648
Cd 5.467061535009776 5.646756397232597 8.364545387634028
Cd 5.484056044436555 9.284607676614925 9.122442641071014
Cd 9.98648956913553 3.0687556813140557 9.09365349439731
Cd 5.095778656511024 2.546048635110955 9.265843866089499
Cd 7.4787851332087065 4.155990408552528 10.19271910340906
Cd 6.972082672177907 7.096903100676022 10.627302285339459
