34
Energy = -11.93433797 eV
Cd 9.51053692737825 6.721928701020779 3.333688174138285
Cd 10.958898611837038 9.219934663711431 4.232446762212114
Cd 9.473455998239519 11.560423805984753 5.558232262546952
Cd 7.011610556809404 7.770571225251461 4.403507127183106
Cd 13.914085698916159 8.633329966609091 5.010589396388648
Cd 10.179352250222053 4.784749590750959 5.462504995491963
Cd 5.733018952134767 6.179860506746046 6.439405387439084
Cd 6.699736531101525 10.37090566227525 5.709341393221546
Cd 12.429714572449884 6.468418170577772 6.51849851132284
Cd 9.248457452304157 7.92543617871694 6.546801760684358
Cd 11.951354006334531 13.594654565225268 6.502091312359059
Cd 4.999744144255422 11.104898360405661 8.03936885825132
Cd 6.05198374674663 3.3461371307771923 7.260922958240124
Cd 12.266169322484478 10.577105405364932 6.7528534179914965
Cd 8.65291695810665 5.090981294444086 7.987189565602861
Cd 3.9483690085604293 8.244707809174354 7.720322425928413
Cd 6.506477129524524 7.456093220592538 9.131131951865628
Cd 2.310690032626493 10.21743067837024 9.43253583076928
Cd 6.975032828607085 3.573303308139644 10.174766068925805
Cd 9.475558482905534 7.637688662006338 9.529064486878132
Cd 6.786229246888204 12.795181423513624 9.743808851116095
Cd 9.388985904185471 13.07872521561365 8.198327459512438
Cd 11.053776939588483 10.467052162797296 9.493608274365345
Cd 7.932045058351674 10.143403784943757 8.469763624808435
Cd 9.971237008105689 3.0830040928194813 9.994588309188863
Cd 12.484157340944732 7.851850887292478 9.155880147621309
Cd 11.333741761680928 5.583393467278453 10.869435858938296
Cd 4.098668722892839 8.375836773277957 10.90774269257172
Cd 9.681751217206061 12.758947028191166 11.17366538626077
Cd 6.0717465127319885 5.961888099843498 11.677984154018299
Cd 3.2651413610316293 6.22408279798013 12.945603263071728
Cd 6.037463761478633 10.477551540273582 11.578398917360891
Cd 8.924428881321292 9.867369885826383 11.709532003858824
Cd 8.734880449206155 6.914571311362116 12.397815787023655
