39
Energy = -16.18145792 eV
Cd 9.001250362084035 8.960906101333576 5.558656077718307
Cd 9.728791054115579 11.86557322830035 5.818375807795791
Cd 6.433531218436397 8.00709396176605 4.616293584516739
Cd 6.319252266530929 5.427637719852328 6.265362175512622
Cd 10.74847919003619 6.879522348714918 6.933843831006768
Cd 4.6507178818432875 10.303018647783254 5.291044123508639
Cd 6.97076663933785 12.19822404791913 4.7686229616989575
Cd 8.527415525664969 4.754146787521921 8.076656113174197
Cd 11.830352197053577 9.658853751194854 6.269928926165781
Cd 12.386479904599184 13.001419462753962 6.504941261100269
Cd 7.374740225519323 13.985505092317487 7.594938218221976
Cd 5.277159852820572 8.238259106812484 7.426672272147995
Cd 13.416764513765893 8.284151390897925 8.384773275750094
Cd 7.5307739006590015 10.616211074036451 7.777576701315885
Cd 10.202532427617276 13.534126890315362 8.443619145326466
Cd 11.506936997413595 4.1715159576728285 7.819167211447283
Cd 14.214567012055115 11.068146900708554 7.598188156829248
Cd 10.390255765600179 10.482211395316236 8.76835760683215
Cd 4.79583414622636 12.764283139947212 6.948712132795601
Cd 8.189030780473214 7.75213962555968 8.362944175873293
Cd 4.7364831501856495 10.804906991924042 9.15046521179925
Cd 13.272206080507887 5.654452476497788 9.720366289190412
Cd 10.247796032527042 4.689481219702987 10.572625543626247
Cd 13.086590180050068 10.86710190835391 10.267458180364297
Cd 7.906653345500984 12.413398295689529 10.260589277448545
Cd 5.566225786495159 8.147875054954886 10.371066744253795
Cd 12.341771347505125 5.406009370689359 12.563261796287621
Cd 10.938566933798523 12.69052762330845 11.174020251180885
Cd 10.768600397675804 7.781499134322413 10.025959980835454
Cd 13.675977912183017 8.077470037483158 11.587157861967079
Cd 8.422655234554451 9.47607701658126 10.87034633734119
Cd 7.439175918720588 5.838053630146769 10.777941334730636
Cd 5.671219973620559 10.83337933571604 11.943889259796387
Cd 9.582194224165347 6.71186214547217 12.8985867467197
Cd 8.881857638124519 11.852603438964232 13.173673426991861
Cd 11.088521864765157 9.862109707490943 12.365914836540972
Cd 12.044819018647091 7.813677275365965 14.292189328867115
Cd 6.883765589937901 7.806022793658779 13.085415610909775
Cd 6.9055789974519595 10.276837401222423 14.626689710680067
