33
Energy = -11.4132621 eV
Cd 4.028600840672649 3.693108884733991 4.468368490354259
Cd 7.843890105143361 11.388562407848474 3.6221715833215926
Cd 6.330004219132334 3.892456547254962 6.5491467346541326
Cd 10.562685017474143 7.020820854518906 6.616861119910985
Cd 1.041138812910759 3.7003120089541155 4.653873846753591
Cd 9.052124880598868 2.9724477049349587 5.177130275306055
Cd 7.645636356910098 8.032361751957355 7.396085839824227
Cd 7.084113307394822 0.7573389396379675 4.191154764970415
Cd 5.617658739392015 4.685250756642684 0.5541283954928199
Cd 9.704633515125252 9.399169157359717 5.157187063415704
Cd 3.625525882564019 9.847268523588381 9.755782216072685
Cd 4.63140977896491 4.137857275365703 10.589123334639584
Cd 7.604747568616262 0.2725234077843185 9.967926020163807
Cd 4.952651857987959 11.236432258364651 4.641447385817566
Cd 3.392682230474848 8.80206291045459 4.131765978600533
Cd 4.942665529159199 9.224903109626725 6.908987937879064
Cd 11.20155973403265 4.100585886729819 6.8929080432563055
Cd 6.875430994859752 5.676552314402924 8.977215088389947
Cd 6.787222048335628 8.536421192555727 3.9140113585273215
Cd 1.7739513053629006 6.537912206600119 5.307889506990649
Cd 3.7448367411633483 5.201850256621849 7.889422027747585
Cd 4.838563203896926 7.280185617586815 10.440929967178658
Cd 6.090639938834674 11.468479702586846 9.088068780814575
Cd 4.316437706702618 6.5817063860535185 2.419422049613837
Cd 2.2941243932006996 7.998395487115315 7.813281940990342
Cd 8.619757354257324 2.7157449631195365 8.166266826109776
Cd 6.775554885348194 3.6508395615604505 3.198292575817847
Cd 7.777545180626137 6.310925349374866 2.0036360147321957
Cd 7.55201125750705 11.034827548164255 6.612623831495766
Cd 5.156158080768342 6.438198479384913 5.39351509436055
Cd 9.826905055293366 5.5756401738675505 9.261917094941618
Cd 7.585586143779282 3.400406544487994 10.936013311110846
Cd 8.276439687659414 5.914110840492311 4.991257995423324
