38
Energy = -15.10258302 eV
Cd 3.2849253816351087 9.346357775449619 8.321320289235302
Cd 8.433438920915245 6.8184916365976935 1.4944320173278036
Cd 3.793759910600144 6.527875937037708 9.039197102728112
Cd 3.518138119355688 3.5899754269739175 9.572428970041445
Cd 5.505249324004347 1.4537848302153051 8.670594616168934
Cd 4.879687944906786 10.00118858675464 2.3663438800267134
Cd 2.176182662304155 1.8339993984550698 7.499996524766661
Cd 5.841299441068438 8.562567612270751 7.125507996663433
Cd 10.920004267427709 1.5537366287311307 3.303084733984701
Cd 2.867745790217751 7.829617213672837 2.2238539243719013
Cd 4.476836356311643 3.055359815660085 5.930298969763955
Cd 9.058738673665271 9.584898096059131 5.170046796324594
Cd 1.6405307199463621 6.518801180268104 4.60058395933966
Cd 5.738236647691144 4.567401963607769 3.724048458379296
Cd 1.0341560379413746 7.905358998455755 7.162752069331794
Cd 2.98735420269638 4.821189165172931 2.4540486144138387
Cd 6.320822375468051 10.849277739391368 4.928161791029311
Cd 3.4620112445677593 8.967392009698116 5.163243312346198
Cd 4.368163137021169 5.991060697796526 6.077293324408288
Cd 4.892076500803772 0.7358374305645893 3.9786213461058137
Cd 1.6723551351439698 4.925308608227284 7.4984317883106755
Cd 6.091295697000052 4.534158464135868 8.262139512185936
Cd 5.0058776803218565 2.2120121721324764 0.823546954624992
Cd 9.451981647802812 2.093817299506686 7.675596437294171
Cd 7.052850060531997 0.8480968345302972 6.157172102027097
Cd 1.9242538618456033 0.18575781372748948 4.9880075476730275
Cd 7.8624844950043515 9.596835472281045 2.2975801509232876
Cd 7.20623586216916 4.103823419936479 0.9551212174029937
Cd 8.900150271394168 6.662139050816762 4.653502449700423
Cd 4.225838041609605 10.84927773939137 6.769150472945748
Cd 5.410446473213461 6.505894391455019 1.373823711746621
Cd 6.04409792612957 7.4953466719955575 4.185075504260807
Cd 9.381453859960175 4.287761344318546 3.0371632569996985
Cd 1.4689533903433698 3.450425586430721 4.881661538713218
Cd 7.448282281518514 2.012375102065513 3.33588939365533
Cd 2.57090910975827 1.8413007217225155 2.4289755585099737
Cd 8.027791793857851 6.689533932429372 7.502723504392177
Cd 7.897215388490682 4.033793866706993 5.895913123452749
