31
Energy = -11.04460849 eV
Cd 9.311969579605726 7.6028846920021556 8.932454760915295
Cd 9.614078081819624 11.776470901856094 7.635981951799955
Cd 7.3070474027259325 9.716587615184007 7.471095592335433
Cd 12.957950490380519 8.602193691481435 4.771159181110211
Cd 3.282004824415833 6.097481595630046 8.353430487007357
Cd 10.945209240086896 6.300680274584078 5.43462486139009
Cd 10.886080436095686 3.4293720279507474 6.205603452800983
Cd 7.957736605167153 3.2023636079016393 5.773344445059905
Cd 8.643552747419607 14.187737416938688 6.014459726476845
Cd 5.699995544448944 5.4734833398312785 9.975887496924242
Cd 5.064909337801627 8.00376943970637 6.590143881296434
Cd 6.462443797484641 12.765650152801864 7.587773845546888
Cd 5.713614937281909 4.981266920411537 6.71045521278444
Cd 12.691307012545293 7.865596979094457 7.691610682432741
Cd 8.00875201445273 6.949789523700963 6.153348059787894
Cd 3.2011301866050017 9.049012175540891 8.898760600998932
Cd 11.314051649378612 5.223515160961851 8.605794262889225
Cd 10.209939667699095 9.174204651136405 6.327200400009485
Cd 10.93163967251544 12.555482569676629 10.295595767751855
Cd 5.898285667661417 13.758082279873602 10.468824422142344
Cd 8.727143916973711 14.558455190225263 9.05507553919526
Cd 8.222998884821013 4.718354649965492 8.460498248798276
Cd 13.037315868348285 7.0637270976478375 10.441559479114714
Cd 9.209767167206861 4.983577265250937 11.18674305489182
Cd 5.170804627020476 10.973126560417876 9.778764933504242
Cd 11.407781638819301 9.664779974190134 9.801724396718908
Cd 8.51855768771981 13.48155588322912 11.852582431571774
Cd 6.5392088580412855 8.243732003959481 10.216356961271373
Cd 11.340816767527796 6.384803878771356 12.697785417279954
Cd 8.315729969662781 10.740214607042052 10.451828254763022
Cd 9.174298848831336 8.238171003600714 11.925655321994615
