39
Energy = -15.82142315 eV
Cd 6.458671237752074 6.872167123821142 4.735780838283876
Cd 9.290835215189281 7.072104228927139 4.0585636625702985
Cd 10.035668385754416 10.933152925447779 4.650389050299562
Cd 12.018943366532744 8.996374446038496 3.71211764316238
Cd 7.337536256661441 9.780432124859459 4.9943739048408045
Cd 12.315257463995872 6.147422289844621 4.105379918277674
Cd 10.334260215616167 4.322802854404077 5.397337676452038
Cd 13.123747712526184 11.264400600500096 5.314034346631619
Cd 10.281764337627086 8.291137000163785 6.593665794115149
Cd 4.485832537520419 8.862102554076477 5.744051167345529
Cd 8.414761893374429 11.854278343185007 7.1229805255410374
Cd 12.539046932287212 5.598929132291793 7.0629472119999095
Cd 11.262207743828368 11.3270420694359 7.639155853002619
Cd 13.342833891693486 8.509632392807642 6.632109219314379
Cd 5.624141614283279 11.005662994208834 7.481714393590287
Cd 7.5664289088162215 8.466353366852422 7.771455220643192
Cd 7.967644467354393 5.285083314920051 6.775744437273807
Cd 5.2140425686041425 6.482572753483533 7.60444144569102
Cd 3.6250566404258 8.96689617531463 8.612765338418985
Cd 7.402215303429892 10.467067344792582 10.047810198195986
Cd 13.267857189604577 9.762227898993567 9.334658564146043
Cd 6.037631907334393 5.43480398356429 12.569864080021677
Cd 10.04984959651802 9.11426837689237 9.393571698935329
Cd 5.8029987302300965 7.863113234699724 10.330050919746746
Cd 4.545790793921765 12.369097701558106 9.914709619038549
Cd 12.976228889909247 6.641851567201101 9.713449893909894
Cd 9.463115317248239 12.859404259484707 9.712425503665594
Cd 10.086774898809905 6.073536550335685 8.900253326332814
Cd 7.297607184396518 5.330663199089859 9.7095412215728
Cd 11.642576028644319 11.604417353049405 11.18142296027676
Cd 11.929614229886885 8.481080852236653 11.715761734740537
Cd 6.939643662369249 13.503164616069514 11.293564217062192
Cd 3.901138255677187 10.026897604988276 11.575937087426972
Cd 8.757861029999553 7.342023136615141 11.548574934043245
Cd 6.559141775933741 10.989294433381348 13.04938271724348
Cd 5.4152892622179 8.291225510281198 13.50110224689772
Cd 10.564053061160998 7.634090299028752 14.151164400502747
Cd 9.424855010222853 10.270385484969054 12.749330104282409
Cd 7.771606354028819 6.977369773571739 14.672946795892166
