33
Energy = -13.06271956 eV
Cd 8.405478492149154 7.027584065440411 6.954319640878157
Cd 2.5360455714645656 4.767812306804823 6.09948777488473
Cd 5.907187699923934 9.255999853885939 7.134054878365711
Cd 10.104445006331897 5.2264568823317274 3.7392127699637805
Cd 7.121024571546323 5.472424395700342 3.315902003427369
Cd 10.153723551416714 7.94322239415522 4.6284255472293765
Cd 2.318987358221639 6.064288050979136 9.184849449308306
Cd 4.137836045009368 4.923166180738405 11.272082541032079
Cd 3.1161601511848884 8.343296498782816 7.327290238429902
Cd 7.198741927858923 8.44198932767105 4.418244730492014
Cd 6.77721699546655 2.3391973314771426 9.955683725056854
Cd 2.502568031548594 7.501133295265421 4.5476573276846315
Cd 6.805025934194308 5.092397098253396 8.476830903722442
Cd 5.3826457312569875 6.295384498159474 6.054189703740941
Cd 8.308595313156657 4.182701578478597 5.9924510839489455
Cd 7.511186754449337 1.447906510431163 4.66259326255012
Cd 3.712149268268884 10.140258341027776 4.737509286841876
Cd 10.194494670915914 9.423871815711356 7.299594257410804
Cd 7.982808209697058 11.489589959543526 7.323582408769075
Cd 9.344984700238392 10.828911256067725 4.6743254265795064
Cd 4.902160189293789 7.437765637190383 2.8895884254298503
Cd 4.710395365100465 4.546897536825042 1.6163390158942283
Cd 7.723967532927571 6.726797391224919 10.920345317004024
Cd 6.1727648549998975 2.0594147623957477 7.110004017098433
Cd 6.359773194033785 11.347014196732385 4.7452792650807085
Cd 8.05286727109889 9.180383880667593 9.385352033722736
Cd 4.914405833527655 3.43824156656663 4.66419778874581
Cd 6.60217218980681 2.3958032657248105 1.8958216854104564
Cd 4.0627869785963595 3.6906773599980647 8.373352956354875
Cd 2.26980216141885 4.952744936484776 3.128992062445083
Cd 6.811038302044824 4.248062216684896 12.220964874184078
Cd 9.459057778167121 2.579832132059374 2.761643345666148
Cd 5.099392733921149 7.49387748164189 9.558002599670568
