30
Energy = -11.67713532 eV
Cd 6.518360563526656 7.130674467739543 1.5396957872136827
Cd 5.583000250922386 4.270920290076781 1.47026708452166
Cd 3.579603051096406 6.324723785591522 2.4566550009708004
Cd 3.988734354029361 9.157464781769255 1.832449540669748
Cd 6.7876180014582745 2.3058476500043885 3.35680059251964
Cd 8.168359511951502 5.025170334087468 3.219065213172274
Cd 6.319487212667187 9.497259485351812 3.603737233679188
Cd 8.933122637522576 8.067938852957006 3.1192318533702768
Cd 10.441822545809577 6.152732136780885 4.886655579783827
Cd 3.960223919318742 3.3494701040094856 3.9350667673759343
Cd 5.80081898869109 6.29350239036647 4.757509135694263
Cd 3.4568346284667943 8.5903834845314 4.9102050652212235
Cd 8.802634650951257 1.6174391839701516 5.3993653794409555
Cd 6.0543388647822765 3.4462466491864916 6.060559851890686
Cd 2.4920468856577407 5.657196144182035 5.07823179921593
Cd 1.7888065004373548 6.951338139895875 7.526073395514882
Cd 7.9878655055837955 5.746410675118904 6.743688675132541
Cd 10.700457758270451 3.656724598982372 6.402392793194693
Cd 3.1209183958022018 3.42917865694137 7.030177981873319
Cd 6.138547272190338 9.000503463107249 6.497816785854803
Cd 4.956680701413995 6.090939886329802 7.573420188592537
Cd 8.992617042414913 8.529727418741425 6.093699540397014
Cd 8.315557604387667 2.9764624795717616 8.159317057545666
Cd 3.773329519767088 9.218057254472674 8.185692857031047
Cd 2.399578003131158 7.519550969042599 10.342908448490201
Cd 7.925890889502594 8.024453059046516 8.893494763667933
Cd 3.2676832826977855 4.755509958411671 9.830551196729022
Cd 5.402487068810729 2.847333386521213 9.062186963259757
Cd 5.3465154633635885 7.428814042355205 10.296078546702317
Cd 7.199919559795571 5.141886905278546 9.940865555693568
