31
Energy = -11.98830634 eV
Cd 9.21713520629724 3.5385809148415324 9.788295147845526
Cd 9.40380474837035 6.520900634636841 10.503850260548594
Cd 8.558529979392558 3.6478744691418745 6.628506422916666
Cd 2.8088295973981436 8.372386836124655 9.375951236265298
Cd 4.876142489634679 2.054135482042433 6.166487562884927
Cd 10.567221291173473 5.725141878152281 7.765988682079791
Cd 1.9038686202601183 9.246210215998728 6.661316986192357
Cd 5.406242315468799 11.799401461591305 5.69787931118187
Cd 2.690916125507006 6.975039098766859 4.696197182621854
Cd 10.101570250821009 5.7754817059939825 4.73820644438678
Cd 6.405756976036372 5.396792108589466 5.28023307299792
Cd 7.174989144556717 8.338309272954042 4.76888029496856
Cd 5.125444616371228 7.255394773412241 2.5432112093162833
Cd 4.23941006067546 5.674284318530462 9.294380986176511
Cd 4.943722620400494 7.632524544693342 6.810512688642901
Cd 3.5047863888827706 4.7340749396945245 6.636567903495567
Cd 6.159825172517566 3.480091374936784 8.359183506315865
Cd 6.098069334976844 4.445118383623972 1.4682468122077474
Cd 5.257953526711488 10.263820697807331 8.328700528639207
Cd 4.006454078430011 4.508656028336425 3.686325908266709
Cd 5.933567026861315 8.04128615028516 10.207669136734909
Cd 4.204123662356134 9.485066301321307 4.355610418324467
Cd 5.892736799676664 2.135852173299009 3.43033630774227
Cd 11.439275254640918 8.396509738526696 9.138834258089332
Cd 9.776946043864992 8.289794237439095 6.264626324626021
Cd 8.070586330206826 6.344246375366438 2.668265840392705
Cd 8.546144758491046 3.3803740848222548 3.6364341096628316
Cd 8.030805858765106 10.721630189164403 6.590416557371601
Cd 8.470375965102736 9.148386200744081 9.118369213858951
Cd 7.522010357379334 6.476870423532379 7.736250744414159
Cd 6.771988341023174 5.165117163884654 10.857167240011963
