31
Energy = -11.20970145 eV
Cd 10.08607692371753 3.3287579651360772 7.1951432642127235
Cd 7.770831250905973 2.201658818547089 8.896775115314668
Cd 6.014436926655138 7.073607508900508 8.435876657351729
Cd 6.108445985561023 3.2025468363253506 4.868676969386861
Cd 4.702520849303629 7.326878103658681 1.7509414894591584
Cd 7.9773669397605875 1.1915143346837334 6.046208753308187
Cd 4.0400031485282755 5.357978333263427 4.119814021006952
Cd 5.024338627792406 10.17974191921969 2.9841958116528677
Cd 8.453071924481323 5.125743536533844 9.336733264369695
Cd 5.602561155657379 9.061992426970587 11.788212554336924
Cd 9.843287474419952 11.116485575127562 7.633637245230604
Cd 8.83584815505242 8.18767087518547 4.85535740561804
Cd 2.2107809939573975 8.935823310423196 2.3009468410455556
Cd 9.886501090952116 6.14737053881017 2.8245659384223107
Cd 4.367240973372695 10.408171493287917 5.96223072643902
Cd 3.342270038935628 3.1735331236010538 6.134315252844718
Cd 9.464891758529172 7.843940057771101 7.868100658387178
Cd 2.5581360832839066 7.92444225638933 5.067859765612911
Cd 9.094707656095219 3.5006285013063807 4.1810521150005995
Cd 8.048354366162142 7.878931464761733 10.522484508962009
Cd 3.3608182231280908 6.0845722377843785 7.359834030262993
Cd 7.184565506213805 9.902950217166763 6.90889718161051
Cd 10.804290282677327 5.82931783613004 5.809053090273553
Cd 6.925889844096936 5.858948712737669 3.1818977370243315
Cd 5.567049214154778 3.9823107057927114 8.017396844426175
Cd 5.683085944078689 7.628518809538715 5.457171411401384
Cd 7.664495433783626 5.408048824444399 6.319736103487418
Cd 3.3901237668400332 7.710691750555121 10.060653085188695
Cd 2.1915430817633466 9.123844591664326 7.723498100860064
Cd 4.9920145959102635 10.0955659221727 8.935659716210447
Cd 10.619994174149994 1.0233558020308995 9.26861673121235
