31
Energy = -11.17371258 eV
Cd 9.299325206945445 6.045833036498897 2.5408569493816624
Cd 7.037494429576013 8.935478118768666 5.775737109433051
Cd 4.904472939152055 9.992520875597878 3.9356306708872113
Cd 8.837553712789447 9.09445094075304 10.72515961738856
Cd 3.590077736209323 9.130446339833192 1.2587306199828543
Cd 9.808130485131278 8.09745678637886 4.850081793143182
Cd 7.106680886065917 10.260670759088825 8.476261513773993
Cd 4.282165536000198 11.293072445973348 9.821430364906325
Cd 10.312376674994985 6.44676721676095 9.855213770878006
Cd 10.57613822734468 3.9052462072501046 8.061532968996149
Cd 10.166723498597666 7.360937917799671 13.018140398732719
Cd 7.726723050352906 6.269254823460393 11.443171088328631
Cd 5.664991889319358 8.184830227672313 10.24690191868591
Cd 7.1948097158823705 8.139856165143097 2.8176981898961895
Cd 7.051607272039078 3.5512021303807333 7.008462784886334
Cd 14.319648327808121 6.966829892112851 6.520641820284187
Cd 6.420830129276809 5.970993220263571 5.125698315167418
Cd 2.861201985547855 8.29459644585102 5.330027367945428
Cd 4.635600895712858 7.1443528129319995 7.521222589916926
Cd 9.299055829842892 4.985080015341367 5.378767595906872
Cd 5.540128195875208 5.092129252631397 9.72406038283084
Cd 8.194814757825265 3.707873833154998 9.807135706224893
Cd 6.596777530339168 10.852406019130672 11.798578831628348
Cd 4.917301055054248 2.847873034062468 4.951247117144587
Cd 4.527610115079586 6.756525130958286 2.8691944065878325
Cd 7.7130047416980005 6.624264760548768 7.811249360838629
Cd 3.8882587238579878 3.9586807173859535 7.629482896001099
Cd 4.414506295013912 10.337460170735966 6.939296954612933
Cd 3.112988276360683 5.346452285948265 5.115649879615856
Cd 9.764951457301018 8.99181109816881 7.78146268518649
Cd 11.386563065453764 6.567159961863033 7.013786973255903
