30
Energy = -10.14845208 eV
Cd 7.129156439076248 8.385208708873458 8.407408332532562
Cd 9.260809501124513 8.325321220921104 6.359352061775564
Cd 1.7198845250874288 8.64984312564032 6.532783306551846
Cd 5.664251095507442 9.480679487124892 4.738115503193561
Cd 2.5173904283967468 3.4909456269131667 9.98807948663503
Cd 4.574928841569182 9.414721328273105 7.551434046754619
Cd 10.283887573898319 5.305653434634721 6.376257088061109
Cd 1.1384120575246484 6.281066420429545 10.830514418528205
Cd 9.599840527519765 7.790343532866173 9.941955878875415
Cd 5.289809506871448 3.657504110800707 1.127062912753958
Cd 7.8319200159201925 4.43277083927182 2.4629862183056814
Cd 10.207754679511213 6.334817806291169 3.3592448634216376
Cd 3.1058151148842246 11.304514974846095 5.593311539106229
Cd 7.672252243014875 2.0346012876019763 5.189550467579897
Cd 1.4366136663979137 6.108216128595256 5.051166572059825
Cd 11.58513230615259 8.861186206115287 4.281638399113907
Cd 7.108225728889808 6.930518751855191 3.916068638322271
Cd 3.2984576071557616 4.713311208320596 3.2124586982250563
Cd 10.079835771881877 3.423461324135389 4.157385102729733
Cd 8.379794844483495 3.284870686689377 7.854504986990302
Cd 4.471859901768399 6.0774810206265135 10.034301634577917
Cd 11.772128992918267 7.406685918377233 7.9040740382531665
Cd 7.359977735211001 5.88302534626538 6.75759824352859
Cd 4.473921389703177 6.750000784638661 5.9229706690811
Cd 5.754816486962558 4.235709853924034 4.8794056041174025
Cd 2.8745674852444063 8.772863208239606 9.870035897017493
Cd 7.403719664962568 5.559487147740289 9.82610908063735
Cd 10.440430632176529 4.892524418366266 9.44410822800766
Cd 8.57771160878573 9.640085583879179 3.744540670420598
Cd 2.219290961133014 5.805177841476343 7.918174746575175
