34
Energy = -12.44866473 eV
Cd 7.424660378416627 3.5591519491335144 1.7014133175916535
Cd 7.141416758614438 9.081079020202173 1.9158896666110634
Cd 7.235934723261163 1.1762106314114469 3.6722173099587803
Cd 7.696380960376525 2.5999185202740387 9.166201297935629
Cd 7.238803372398238 6.0736963190592705 7.478097987342403
Cd 1.507730746087382 8.081257965975954 10.277144939196997
Cd 4.1990809480833455 6.94204759140941 10.93312029741984
Cd 6.122192045130436 7.6109109056303 4.97261317328323
Cd 7.095947449561742 7.667100281653284 10.814813681857428
Cd 4.547402437764681 11.11435111472549 6.765101042097922
Cd 10.27960756410155 4.072583346843727 7.631789980643435
Cd 5.393583451154634 2.6382108319933364 6.956642801110785
Cd 4.732251275273464 1.3715234192469596 9.772482108102714
Cd 8.830657934494328 5.417936424428484 9.883154647785835
Cd 9.771843373909626 8.359434552693713 9.581738822886496
Cd 8.129458214695127 6.413164464381585 2.8156228677829342
Cd 3.2997580611330792 8.769523396591028 4.873989720562765
Cd 10.784826560062811 8.857420871275139 6.704519235712477
Cd 2.34923933071805 9.286480427212744 7.703521478230456
Cd 9.615506708528601 6.148556976509916 5.506957226054646
Cd 6.8772404908919915 4.574728826106913 5.017615522790482
Cd 7.725081029289769 9.072471272596125 7.3922103862029145
Cd 4.297946796067 6.837862408639959 7.150230695428914
Cd 8.495341388931344 2.4410595953352976 6.1054857062069505
Cd 9.145314241885567 8.961591930152796 4.221672564401408
Cd 6.821907280870373 10.710320429277033 5.026593855893815
Cd 11.797697477242274 6.479663698341495 8.200403347866002
Cd 4.736930282371759 10.595738688193784 2.909104054444518
Cd 5.21037536029294 9.256005063278309 9.105784535103806
Cd 2.0781512641387048 5.461054993559374 8.707802283769636
Cd 5.419358441487787 4.597566806709311 9.519550344798944
Cd 4.695298905550589 2.2820357090299277 2.465132305364827
Cd 4.1101595148333585 7.928175507153444 1.9237040745882727
Cd 4.951841123017027 5.320091951611416 2.8866046116085147
