34
Energy = -12.28545931 eV
Cd 9.016828639117294 6.866970086694441 2.1667995828219473
Cd 11.882066851967961 8.24096234191543 2.648781482905746
Cd 10.504029477332859 6.3610087688615415 4.790657143118392
Cd 9.948929540368432 9.587446322349841 4.905817970158562
Cd 7.271339560028062 8.305848982067626 4.100671774440139
Cd 6.814848510328773 10.753005126045231 5.855802402842949
Cd 7.259517409997717 5.409275826036776 4.967026433522674
Cd 12.82447666102951 8.506499797661073 5.575796153493897
Cd 5.302320219625053 6.154948457589191 7.300640081242154
Cd 10.622088359677067 6.755394793145314 7.8290622517055475
Cd 4.896899192880268 9.303193084949674 7.524817432242513
Cd 11.684093613091013 11.018242654857776 6.879665725518136
Cd 7.832700210054584 8.006238561770797 7.063116561096882
Cd 8.792766312366714 12.134650048826101 7.4707181497833695
Cd 9.503958014293543 4.166904430249164 6.564500370959954
Cd 13.37499304552302 7.575524658281939 8.475876504789865
Cd 9.771484285372484 9.567069940544636 8.750822734175271
Cd 12.652829933283657 13.140982128844893 8.74246352729252
Cd 9.882614140346664 14.323199321803635 9.213881633650637
Cd 12.657073086738592 10.21129596169316 9.75226057041353
Cd 4.6671649765360055 4.388736819291201 9.792304882976936
Cd 3.67115016468305 7.521256489372982 9.565784348378731
Cd 10.66487261484352 8.993972705015084 11.703682099178787
Cd 7.537062338855775 4.590662439911177 8.74582217676395
Cd 7.974446861317811 7.495930406281097 9.994930681924131
Cd 5.759629998002094 9.715876081737365 10.44818764687737
Cd 7.846986612184018 11.842010637018097 10.28602787941438
Cd 10.689339382699922 12.105134375422756 11.195002473605962
Cd 2.2276169088836024 5.359075155751712 11.403846694072007
Cd 8.767176034559679 7.117923774134231 12.93938041181921
Cd 4.908055430810496 6.858649829189836 12.3435971584738
Cd 7.7798852692688785 9.970958064043655 12.858290299467713
Cd 7.202626012319066 4.916322590552785 11.706825982288846
Cd 4.763196412511814 9.689895418989085 13.392204859482627
