37
Energy = -15.50814426 eV
Cd 7.446000480741494 2.04711124249415 7.4748165592582625
Cd 5.364802635344597 4.227741218967374 10.834617669201187
Cd 3.5537024083764406 6.123081867123401 5.287919338837954
Cd 1.576969721282559 7.650791408361236 7.502276547224587
Cd 10.593274375157044 6.410726036012742 5.360633376706998
Cd 2.9631787257943025 2.8116788274604123 1.8234715965944317
Cd 3.731987489614285 9.478655231030924 4.97710316339879
Cd 9.259586017257 4.923665892387523 3.239195436586351
Cd 4.849157443564227 4.204806922100421 10.834617669201187
Cd 7.584468507107327 3.0163471648557096 1.6718268001842318
Cd 5.227252654506023 7.673039707446202 2.980801441107794
Cd 6.681507102896873 9.50982200072945 5.307008368598112
Cd 7.070197566065827 5.993153505601481 1.1483894407518727
Cd 4.833173253763642 7.995925542581116 7.325539607609181
Cd 5.301343812370733 4.268366221613383 6.883847025278491
Cd 1.2432332838075926 4.603481609820406 6.9093921959909705
Cd 6.629902075099733 6.300013472201527 8.914842233113246
Cd 6.861665392566008 6.273538944328153 5.330273320149376
Cd 7.543107640498167 2.973786034065724 4.749955364577378
Cd 5.260079070670266 4.448896954086419 3.474616666958138
Cd 8.790563010876312 7.776362146479405 7.588676417457634
Cd 3.343485570270262 5.873922390908244 8.972315187223433
Cd 3.450133553952763 5.758146065605064 1.1773259369444335
Cd 11.08994292477539 6.440178574887386 5.106937593543916
Cd 8.398221333976984 7.824036920424251 3.022750410768231
Cd 2.9594716718596734 2.870263940028028 8.504379989202413
Cd 8.979574770412057 4.654136225627116 7.165202426245869
Cd 2.0543550860519706 7.585964096353138 3.0074237031896596
Cd 1.243120532933799 4.605312743637967 3.3591287372402654
Cd 3.0998419645967994 2.9075704389572783 5.097306779010459
Cd 5.284036374174365 1.3880283077948838 0.710412446004048
Cd 5.292860760027741 1.1467026634524116 3.6359890031462982
Cd 4.820498586172029 0.9201828691643599 6.581220673753298
Cd 0.8578047684794908 9.273411971618874 5.185860436937118
Cd 7.5789596335778855 3.7129048958629265 9.83950732543355
Cd 9.606414038393156 9.34983050103374 5.218911990456638
Cd 5.3226409397417305 1.4391992267592542 9.542025676405933
