34
Energy = -12.50441335 eV
Cd 3.8841957862680103 5.267488101315752 7.89530750450993
Cd 8.942603926052213 8.054225305811661 11.071900544309136
Cd 4.003875840261328 2.2027056502589657 3.93970738263568
Cd 3.826904600570597 10.13243143122492 5.918761335422464
Cd 2.4744081282505737 1.7372365881884717 6.517263558169713
Cd 2.915674997607424 12.336142947171206 0.7768772984660749
Cd 6.508870660259109 9.525986728781517 10.269942033704826
Cd 5.913710110622751 6.877674834165404 3.005564453060797
Cd 3.3402244071715437 5.438183667999195 3.8713716727661835
Cd 7.248940630578495 12.336142947171206 8.24007301899169
Cd 8.248068174660641 5.133202938919448 4.30046440818786
Cd 3.290973337573713 8.385915981688521 3.455783636184665
Cd 6.2597932947947665 3.944989538359008 9.385385475476255
Cd 2.1538441254504868 7.378629696697109 6.198444994175025
Cd 10.487987119872704 8.004770366847598 8.543483441967325
Cd 8.097675273113975 3.5421589371475237 7.077440230546973
Cd 4.497003588387064 11.097025984613738 3.1017023229899885
Cd 7.652862549762473 9.677289440722026 7.39152939050639
Cd 11.362240811355354 5.137166901994159 7.832775590638971
Cd 5.489271582253534 7.4555823600918085 6.077500198748082
Cd 8.661411569871193 7.980082898010374 3.3553701317688907
Cd 1.5423822247323165 4.513409042815414 6.194445914503788
Cd 11.091228162633264 6.296452478954947 4.981848947416529
Cd 6.754676806135395 9.907817102768794 4.5412782958363875
Cd 10.133026642289119 8.996270419725677 5.765840135415218
Cd 6.107986168570192 6.8947924374039165 9.09880466595599
Cd 5.631475593436951 4.3134643255460645 5.550387350300903
Cd 5.224434066724939 1.8277498727920989 7.519283042054123
Cd 8.948831789726091 5.323261648381001 9.675082801262926
Cd 10.692694408140598 3.403246258915572 5.478279087097743
Cd 3.4547258493268678 8.575215347897439 8.664231178654932
Cd 5.094078729229005 11.189406441275757 8.307897890978078
Cd 8.188098032575953 6.62570935055497 6.895842235583598
Cd 9.735924092417312 0.8909228141495844 6.960232912388631
