36
Energy = -13.31445055 eV
Cd 8.275942420909644 7.037627111653782 13.591301806489428
Cd 3.8292946239273062 5.733338882139665 10.694238352456455
Cd 9.221700718853452 9.478903530822608 3.827261116344326
Cd 7.179536198915741 1.942309263697822 9.293235243874518
Cd 5.017933044216105 4.8348020145540325 5.071400559118387
Cd 6.200705417026945 9.976567436977287 4.165300949607205
Cd 9.955827229636562 2.421561247659364 8.148191406891325
Cd 4.313545982351628 9.266074546451666 13.591301806489428
Cd 9.011519069550655 9.449013662065719 9.107241887049772
Cd 4.337222319648733 12.358010144188734 6.422277559703368
Cd 7.099114066685713 2.9354065980196618 6.2817947545330535
Cd 2.2329327933627843 4.9071515614107 8.329320145040606
Cd 2.6522930228358987 6.68214528531101 5.874500926714968
Cd 8.990225596463262 14.397878571811827 8.534477911396413
Cd 4.7283503596014835 3.333230629709169 8.311286342144111
Cd 7.036467955791301 7.190153136581168 4.915765950462773
Cd 9.622024456715511 7.531556055031792 6.645082700233429
Cd 6.870457116291327 4.66073287045159 10.598957179298527
Cd 5.506420249891887 6.088306818857055 13.020373798222298
Cd 7.828363778038934 4.084825530684615 3.593440324845031
Cd 5.697574571892539 8.812731448517702 1.2959938953866923
Cd 3.8129528810815443 9.45564289130083 5.996282187426679
Cd 2.427527229306946 3.2801994383558832 5.723455572550351
Cd 9.719170754407678 4.512490261417814 5.909303035126203
Cd 9.474342112319187 5.307833932437213 8.858265581219706
Cd 9.275775856234427 10.676065269781912 6.452497187771262
Cd 4.262481549000149 7.584279048838351 3.594945383425779
Cd 9.724053015424579 6.485491877916683 3.6270847833676876
Cd 6.213236590186232 5.90368204050405 1.9614330172564276
Cd 9.494358914391714 7.294827710285607 10.947066172603138
Cd 7.2123343022569415 12.636151198867617 5.4685132306363995
Cd 6.625579522603736 9.20457803911306 7.311516029517801
Cd 4.263887558798808 7.526821743721067 8.290152011144762
Cd 6.465798773382033 7.875640769409732 10.414423377287854
Cd 6.664300198769717 5.842300192677552 7.544739140597203
Cd 8.524626725627396 8.018087096129833 1.3139965311197879
