35
Energy = -12.94482056 eV
Cd 9.929562064727442 8.205610575090308 3.6625340648268914
Cd 7.571609747438102 8.306636110715727 5.420861889447428
Cd 7.201817296629014 11.222159961950782 5.817259187150885
Cd 9.982637974908073 5.666680080786904 5.34123740944776
Cd 6.078776651329875 5.723293186845599 5.406176487203347
Cd 11.26405809316825 10.74923733040553 4.196516618674599
Cd 8.031955708277899 14.011278524731708 7.695155444245365
Cd 12.671847855007407 8.663150548820665 5.880134467212818
Cd 10.948719637147885 10.866264291432579 7.3644973989095055
Cd 10.067635898530607 7.859430524860778 7.387852903656747
Cd 4.469901512786646 7.790747167765831 6.726687544462681
Cd 9.632558703613144 12.88409692564472 5.493133813046863
Cd 7.9560536216234965 3.7477045734349144 6.399983727997049
Cd 4.6463406069764135 10.710002208118226 7.242878416594439
Cd 9.90448588963736 4.9133392145449 8.43285744606863
Cd 10.492793050580918 9.458995340954425 10.160094735727368
Cd 7.904504624374684 9.815315635281799 8.366392850045479
Cd 7.073309992088609 6.671227195524942 8.300932822674504
Cd 12.977252700316278 7.8257170980545006 8.679378202460143
Cd 12.832310723670444 4.920819911668801 9.385391563954828
Cd 6.202426471600269 12.35594945974642 9.369785253152424
Cd 12.557599136604995 12.239698216360825 9.692402055977032
Cd 6.973597840597298 3.556768745456452 9.222288643238949
Cd 5.035249145737802 8.723142315263104 9.541781370127284
Cd 9.485370091448564 12.313026524672233 9.695583125736965
Cd 7.686943967250801 8.196305520713395 10.856383597161443
Cd 11.848050981041453 9.087235558918678 13.256238586442588
Cd 13.552277873090524 9.668058771658204 10.892928925385085
Cd 10.442526893505171 6.601141174235024 10.856512428243501
Cd 4.855448404013873 10.879480634555303 11.626072368816912
Cd 7.762524343000422 5.177145307206332 11.507959734180396
Cd 8.945811683233032 9.24472508539081 13.287193594901218
Cd 3.8402787186269243 8.072511310453907 12.308804383071097
Cd 7.7110964973973815 11.61935681197121 12.069057347985522
Cd 6.412878421803328 7.203960978549477 13.407264413557101
