33
Energy = -11.73340694 eV
Cd 7.983438989726588 2.1268372820935935 5.059889760191477
Cd 8.988120413688652 3.1873056721452735 7.9941673090544505
Cd 6.800918028314193 3.100491510707777 9.966102725465861
Cd 5.843737011145686 5.29094052901618 2.0905951081177374
Cd 2.9369277782596948 9.688347898837826 5.231286349192978
Cd 8.544074769464133 6.320896548848102 2.856207140171395
Cd 4.134770875805711 7.5623250726723255 9.489757252727804
Cd 11.445572496540239 6.726564550253049 4.571994622911087
Cd 11.504100782729145 8.957590526202706 6.835195650763723
Cd 7.0546895234112545 8.980904274060498 9.952163957691162
Cd 4.550237610618969 10.50115879638626 10.535543854915323
Cd 7.532915250838317 6.128305448937079 7.614335394622287
Cd 1.9380098995024646 5.817891910902021 8.225066739277151
Cd 6.37319965498273 6.022897421417392 10.789303383064137
Cd 3.8913679620423225 7.030495976068936 0.2519987841719512
Cd 5.853098335742511 1.9940129792474994 7.234979543296948
Cd 4.0282779283476655 6.744531808231548 6.11651254104116
Cd 4.876363337082739 4.678896358885478 8.250679966174989
Cd 8.53828062948815 9.210530784077687 7.289743014430195
Cd 9.281357353459041 7.040117208988576 10.252424997606362
Cd 6.875713807593897 7.758098164006094 5.023300246419951
Cd 5.557053537937917 9.297392581433362 7.218373177257446
Cd 9.290528640364457 4.854574902135863 5.503311472322123
Cd 4.323839966445882 7.821972458599278 3.27045601007172
Cd 6.10631571318067 4.581367404162584 5.153708896511845
Cd 8.999813741009813 4.361637693409801 11.637050402665166
Cd 9.458264339790018 9.21674590080804 4.3552876998665235
Cd 4.142790668215738 2.1864357330388846 4.633391106894233
Cd 10.730999613688756 6.232856242366707 7.805835797024583
Cd 3.307920424936648 11.139179685276234 7.843304663291345
Cd 3.1482695856216862 4.861114046134372 3.592159041232738
Cd 10.75753761067135 8.07895714657525 1.8248607470764417
Cd 1.4418032209884548 8.73893498570975 7.771322146114606
