39
Energy = -16.03463186 eV
Cd 5.533198733646242 7.201153297414531 4.931419351999762
Cd 8.180406488879473 8.356722922828057 5.105622757730979
Cd 11.146097640278409 8.823943314072936 5.345090678649716
Cd 11.8579278096761 11.677620924198976 5.277476136202312
Cd 9.989617462803611 6.012210300212829 4.742369808750798
Cd 6.819647055638516 8.632762872460674 7.897273684943879
Cd 13.37723133570739 9.48657935250355 7.2756460823780476
Cd 7.618982521039605 5.823169259600828 7.136810219930338
Cd 9.04637582653391 10.86419441589178 6.56219186524215
Cd 12.668982970035746 6.6594005551033355 6.918600323702518
Cd 10.657928338411264 13.289446865512383 7.675182393998509
Cd 10.407944247226093 4.757988665432665 7.367005189889528
Cd 9.803426703346867 7.985782148455405 8.067622817821103
Cd 13.735953870828142 12.827358502725156 7.260365252199312
Cd 4.232486370357663 10.396218430380523 7.616698553929996
Cd 4.601717542618165 5.586762410251812 7.3369463824696455
Cd 3.09605131075125 8.026213305394696 6.446055677911915
Cd 6.712130830091235 11.897683711869856 8.126059013213338
Cd 10.185399846110002 12.791411771265624 10.921119389138294
Cd 12.957407218006617 13.42781839982674 10.129803258401928
Cd 11.14895760662336 10.586669975929142 8.981219607507965
Cd 14.691325091414484 10.981801055910504 9.499135749567193
Cd 8.23254172613983 14.242769007678335 9.023822314641329
Cd 5.526933186187194 5.260778955727158 10.05824963819682
Cd 8.861937277405742 5.279735838209291 9.850751633015108
Cd 4.731927933468211 10.826309276828193 10.611798125666143
Cd 4.24336910593698 7.970204886307352 9.555035580945868
Cd 8.498879341384592 10.09066734835521 9.978412136191725
Cd 12.074976491564593 5.771644723273763 9.747580535547927
Cd 7.387599989243718 4.4525785104208415 12.26302987105264
Cd 13.182594462696963 11.03874000729255 12.143863003444725
Cd 7.236631505136331 12.516652252395266 11.281826338604803
Cd 10.21949116762768 7.646925120122184 11.341891697166192
Cd 7.1176268987821425 7.66739618153711 11.025545539360762
Cd 12.901743090406098 8.558822946679223 10.305459039376492
Cd 6.4942742761556485 10.055273858408944 12.858519171382087
Cd 7.913144761264099 5.792347968389476 14.827181354185603
Cd 10.396790183520695 10.453459413580982 12.77152899937395
Cd 8.66374840319313 8.436187867689926 13.889197446406738
