31
Energy = -11.92052407 eV
Cd 7.196003968534189 8.973273891400261 4.346983450082407
Cd 9.961794680777698 7.844170358368333 4.974425389926894
Cd 9.573711806803688 10.842717529770997 4.137987388744052
Cd 9.850057733991763 7.282989743159803 7.837565996972215
Cd 9.850612035641916 13.06147560839875 6.212551904963803
Cd 7.220198511066001 6.419724212669405 5.948276866216395
Cd 7.015928385372237 11.750796742778684 5.464570809794261
Cd 4.803743576360143 11.718731114055965 7.440030159780049
Cd 7.420797738635545 13.2951188177052 8.04967131323139
Cd 5.167104912936518 8.74865151374346 6.521057644642406
Cd 12.389269007014898 6.546323022462533 9.313474586633724
Cd 11.313362912595016 10.190600690382496 6.546888436871197
Cd 11.86470948999352 4.254879300614659 7.418666582846774
Cd 9.05383719738435 4.202951715028645 6.505469964770568
Cd 8.270523736826604 9.83332204995437 7.526793177506167
Cd 6.994311406635709 4.145749652348567 8.70714025906599
Cd 9.8022079363534 4.8320910606201295 9.776090316638653
Cd 10.183247439333902 11.81151284171199 8.956644899687785
Cd 12.256424261703204 9.589725825490754 9.252575136384984
Cd 4.797903053159272 9.612667215236701 9.487923794520075
Cd 7.207001888171296 11.2790783510738 10.203528275372095
Cd 6.81674248153219 7.498493079692145 8.811218050303486
Cd 9.223869587843229 9.004550587769872 10.223067310176075
Cd 7.3791508388717 6.039160066757984 11.304986023104687
Cd 10.349428238528395 5.684427463624652 12.535396580755565
Cd 8.323489329722966 11.226077903148607 12.993238957745442
Cd 11.094453428256688 12.135333653888148 11.726013360046316
Cd 6.09315878313052 8.797470015019409 12.036799503913683
Cd 11.754063623243654 8.19047051920802 11.800580913903998
Cd 11.061182564343651 10.119227879305807 13.929177679819945
Cd 8.800963863648352 8.157491993022832 13.100459683992199
