35
Energy = -12.52040871 eV
Cd 7.277680865708525 9.709445364814286 3.1787444312565007
Cd 9.277866488510302 11.644183250624716 4.301213377746052
Cd 9.70307941915337 8.541076739023818 4.693104300534735
Cd 7.448121542689497 5.891232693123959 5.0930441117483465
Cd 5.584676547186929 7.269389005096824 3.2861973218526157
Cd 10.28432553307972 6.004711079393912 6.009940113656055
Cd 11.80117954067614 12.10386876678463 5.835879034517314
Cd 6.3269025426385666 12.518607953048512 4.514553903790781
Cd 11.822697006593256 9.27878772626141 6.7177418979588275
Cd 4.236974722356058 9.554283796427079 4.737951969402025
Cd 9.370100214499749 8.647787880634533 8.443707420502074
Cd 7.309931330819092 9.620561410280537 6.432600798759357
Cd 7.156247020789638 6.504473536471566 8.037185957371523
Cd 4.76523363360673 11.534236378830606 6.912366612092198
Cd 12.152935105019885 4.0313124552977495 7.228280547776064
Cd 9.41529516457189 11.743771993974248 7.453220601799639
Cd 12.112248036553826 6.93410979335427 8.39791910128986
Cd 4.809666787369645 8.18069360905803 7.339038634648287
Cd 14.722687381580322 5.3589276660610485 8.33882017555138
Cd 9.539665957045068 4.893029300751828 8.829510896556023
Cd 10.697855216141193 2.0337209805970202 9.035926913019525
Cd 4.511476150394566 11.721470855844942 9.697317343721148
Cd 7.410656384496848 10.958262646553857 9.410020959529922
Cd 13.485700030450383 3.035845593778857 9.923735984984756
Cd 5.647715553465623 8.621913768764719 10.192087480718
Cd 10.523080907347236 6.821062782812276 11.077633373993036
Cd 8.517939896478271 8.90946437107444 11.47533442576071
Cd 13.38231771457151 5.916873596188319 11.050484564071246
Cd 5.835563788403107 13.806782225115693 11.459701838043536
Cd 10.944162447330427 3.9058622186885286 11.4777165581513
Cd 4.405095967651713 11.390641913252395 12.704685352688127
Cd 7.730804132114279 11.671252180973315 12.378971615979438
Cd 3.5193388324163273 8.473507999056315 12.472533219907803
Cd 6.2754882576411495 9.069334769260843 13.55104047870418
Cd 8.65219256383846 10.356416381915274 14.968691365106427
