32
Energy = -11.46402591 eV
Cd 7.615829707070909 12.00240045033115 9.641515218671136
Cd 3.6020425541780487 4.080341003318178 5.223870188844398
Cd 2.8760035038896334 3.1378717485643155 8.672787210797251
Cd 8.325215542293382 6.057136336239373 4.424926289045809
Cd 5.561751457763867 4.962459920522702 2.0956276179648006
Cd 4.037872200016023 6.247946878090331 8.928106506661422
Cd 7.917624608749821 1.5412017157680318 7.171717082838952
Cd 4.346606807997393 10.099269281456388 6.161461441402073
Cd 9.170303224260234 9.042558615539804 4.805681298781645
Cd 9.375040977023263 3.3344538769779066 5.2995246266290135
Cd 9.646174460056972 5.67555965691366 7.154738194420694
Cd 1.657408291262462 5.514970356581989 7.335359068998659
Cd 6.4447319266976075 2.8766293794749456 11.379963018058506
Cd 11.308915775155295 7.680977326582161 8.639518051664725
Cd 6.282829238804104 5.067007938282594 7.02205458677701
Cd 10.085771760465857 10.094873538453504 7.419267659087853
Cd 7.157663576218676 7.868049369713279 6.903728491430962
Cd 5.975287785426743 8.640919015061495 9.609847831515426
Cd 6.475702513922617 3.499649612668749 4.493240987220155
Cd 6.076829443168837 7.722241664307286 3.2737433329591816
Cd 3.2286609629738146 6.6972891633764755 2.575679047382861
Cd 1.1580931339508371 6.0049438200743674 4.523754121167171
Cd 8.986132812259587 9.39955545574209 10.17151228910513
Cd 7.173865232910156 10.862799520365083 6.908675370568933
Cd 4.973070420867215 1.9022489028669889 6.90927060309432
Cd 8.605748549561529 3.609930155997421 9.188702515903366
Cd 4.266307830061108 7.124461059634076 5.898349472318675
Cd 5.788907497453933 5.989369477737325 11.379963018058506
Cd 5.692240621801687 3.5558857843595497 9.619279627856075
Cd 8.377723679780884 9.389617146959278 1.8811043509545589
Cd 8.250967880985632 6.531895672605912 9.640558974787988
Cd 6.443603677060815 10.670413809521854 3.9763448458616675
