39
Energy = -15.09523805 eV
Cd 15.080907472370505 5.040172982342975 5.833715537918332
Cd 12.235830455850769 4.518996467057272 4.548307545218401
Cd 7.0628453586742905 12.515994927030428 6.182438651027397
Cd 13.590050650307838 2.328836250012492 6.246095667682147
Cd 12.212596792753097 12.594916104548263 5.9323891364247485
Cd 12.690154703744216 6.877510942514276 6.672922802436425
Cd 7.185651316317045 9.50718891507904 6.901752482931037
Cd 7.354772741186281 6.3278734421350835 7.125555455170289
Cd 9.630804599267737 10.929756922116079 5.727800967154157
Cd 12.40753987452944 9.67351722518735 6.2276669202809245
Cd 4.794497522808438 7.5902953084201 6.889791833397934
Cd 9.864838034427878 5.221251327024836 6.277135608458241
Cd 9.578587299092879 13.814070961983594 7.143748699910288
Cd 12.124457563579744 4.2091652085644755 8.175945532495334
Cd 3.0115564068481344 9.587346920775724 7.929640018808205
Cd 5.2393406876383946 11.58422051367819 8.321855442183583
Cd 12.977789839738328 11.575479959475977 8.813929280991623
Cd 12.391693786554177 14.527533011316876 8.172367445833403
Cd 9.886062976300977 8.087866831992764 7.499451571123125
Cd 4.782349441978066 12.874399742417257 11.122668009769118
Cd 9.925534090221673 10.894505080479615 8.761974401274149
Cd 7.4270490989917235 9.975397474819813 10.023524027467062
Cd 9.371556208673328 5.170154794861736 9.240300300157605
Cd 4.334458993803379 9.66189679943474 10.599149510966928
Cd 6.231400905756202 7.193897507618084 9.82183363423559
Cd 11.565953821356592 10.60579775725185 11.340360643386814
Cd 12.576223967997604 8.587348834190959 9.256844360662807
Cd 10.487332051304028 13.577482522057993 10.210102128132412
Cd 7.664776463298697 13.039986223087272 9.377400768196203
Cd 7.956709462932969 5.583777028823128 11.755123875267117
Cd 7.536569368003192 13.2573334247066 12.46011180553581
Cd 12.069321512240798 5.931683921265221 10.529881460440915
Cd 5.531139720904333 8.057720739223782 12.803847834073725
Cd 8.396544168421597 7.480586901148872 14.037113943894845
Cd 10.386661804507444 12.743448017716855 13.055088373069568
Cd 9.793498862656325 8.032537800424617 10.734971379485382
Cd 5.855803600862753 5.311061046641842 13.891815972710143
Cd 8.725373638649172 10.169556076040408 12.747430891091568
Cd 5.7159462644363135 10.993615615521257 13.262127609723144
