39
Energy = -15.46490433 eV
Cd 10.072676805223956 10.963410269821301 5.010639271311627
Cd 5.917942603454213 9.277690579957866 6.4500448865718605
Cd 9.054910072835943 5.877599284231577 5.252266226370619
Cd 8.129169368082403 8.530811170566189 4.344554625695442
Cd 7.244952321783501 11.348805254256437 4.398261764159596
Cd 12.698451529506329 10.561499308155454 6.163371697888618
Cd 10.784385784751173 8.090569322694556 6.190126169062432
Cd 2.600489019796909 12.092625640478579 6.401670575392067
Cd 10.579645304347133 12.309393287566436 7.824045087186227
Cd 5.530277426199099 12.264567754168274 6.579565296513816
Cd 2.4009462338277534 9.355023169039454 7.653531266214349
Cd 8.251112002299166 13.363390984025521 6.507896708211691
Cd 13.471640731884769 8.249923650803089 7.7876804615396935
Cd 6.245405806897677 6.391681388811364 5.809020360613241
Cd 11.196053419141961 5.124809159203747 7.116243390181125
Cd 8.0553623070175 7.141852092900019 8.33655238955988
Cd 8.39455594766056 3.8807470949695695 7.323433237357673
Cd 10.55574741313271 8.395878528326584 9.368682193799357
Cd 14.488620316287815 11.301106656958714 11.653948955517645
Cd 5.366812513674018 4.435111731666449 7.887914967469516
Cd 3.8486614289257925 11.489312624648042 9.26208499399259
Cd 8.640601300127116 9.948321964170015 7.603407873092129
Cd 10.049428080788642 5.459913662899327 10.042539011125509
Cd 4.218500984069805 7.1279683297493035 8.040017844296752
Cd 12.989203372334279 5.812518217368036 9.251386286716786
Cd 7.375114528260508 4.1174307815320335 10.087331058274579
Cd 13.425969139319873 8.383527959790475 11.062124558234228
Cd 7.0579839879224595 12.328160032445728 9.24500685817245
Cd 12.566026996302382 10.822239182516775 9.318677995772466
Cd 4.999831243253843 13.603149537334378 11.131152595146265
Cd 6.062118709600613 9.413892182507311 9.549452999197744
Cd 8.083132772488351 5.733013713583468 12.491896354774829
Cd 9.437038137070743 11.109666874353572 10.529481839407838
Cd 10.501554908243936 5.113881250721256 13.970749377494666
Cd 8.070490624431793 8.61043230773847 11.470931628693158
Cd 10.717457253627902 8.042398459150037 12.669331417937974
Cd 5.828893819896192 6.606809584852434 10.517072889984831
Cd 12.735301990902212 5.590984929996226 12.18926496738391
Cd 11.547162205266078 10.923510486676765 12.702268330319969
