36
Energy = -12.99739475 eV
Cd 9.642835261820494 11.251616428671607 3.437311711881097
Cd 10.367263062603422 8.214643563161175 3.80458652327664
Cd 8.497936970922199 6.659278503254714 5.577026975725702
Cd 6.019794560807071 7.1722078611740665 3.833800260188232
Cd 4.5672026034244135 9.423561483127978 5.190771818291997
Cd 3.5458077046529963 6.659889512141785 5.937141397371591
Cd 6.9317885106165535 11.374154313070186 4.606527169981916
Cd 8.658716956536031 4.267539508913539 7.439435964408811
Cd 12.061829291033241 11.302253163752018 5.273104332190857
Cd 12.233785998247747 8.185989361491274 6.265975186404069
Cd 5.963830696540293 5.0354685439177915 6.542184553432866
Cd 9.41726706719046 9.680830256437968 6.34370223889477
Cd 2.0445344918675112 9.340775392263273 7.011062126367119
Cd 2.256254552422794 6.778902644742444 8.687411135172006
Cd 6.588808129768512 9.751855427319462 7.267351549240407
Cd 7.673351176820016 12.834818285296679 7.129989470962174
Cd 10.912817283600221 6.14451431951244 8.105345944995435
Cd 10.608888882099691 12.711895523218788 7.63238943352993
Cd 5.543235605783148 7.217782642666389 8.570923477557349
Cd 13.147124834567695 7.922477846683665 9.115017004373774
Cd 4.210406693442302 10.010210097184062 9.091865906197254
Cd 8.464844450195626 7.867053551152717 8.707151590293499
Cd 6.751219551844169 11.518100749594602 9.792306219070866
Cd 11.016890626944516 10.064012576074495 8.938949117478968
Cd 6.240906628108621 4.1117833596977915 9.560195297062847
Cd 15.877260185605358 9.309356461867845 10.512189757066977
Cd 11.489871247381103 9.16009349751407 11.82164236333242
Cd 3.5634732356069954 4.899319425729915 10.626596096833975
Cd 9.068893437121936 4.9895496260735905 10.313558476639576
Cd 8.727808916551448 9.783868000449775 11.018046974392504
Cd 14.52143491160872 6.4208610947139455 11.376321664079533
Cd 7.019821205973151 6.871046750745386 11.267065361541
Cd 11.356254747055686 6.184603523802601 11.545802052658583
Cd 3.9560888757090127 7.8649376693990884 11.259264566481981
Cd 14.224042754503463 8.910479558135956 13.229168796836206
Cd 6.167150181855385 9.443710767879248 12.508258776618225
