36
Energy = -12.39841768 eV
Cd 5.174280592827802 5.8424663186709855 0.45842194120122354
Cd 4.126321295381967 8.643352015877865 1.6542395392559008
Cd 8.636365777766715 11.495616517746 4.274213908195067
Cd 6.5882109999516105 9.402987994780014 3.524700944767621
Cd 2.4421276541511325 5.933172699826748 2.1307901573625525
Cd 5.125500380367059 6.343449887866846 3.665193696994501
Cd 9.400273600799151 8.513557843097555 4.4953843092256225
Cd 4.443072693731216 8.69171571467874 5.581665883116948
Cd 12.023465538133067 7.9469297156043375 6.5552179317670545
Cd 7.5033462104255335 6.142958636031352 5.330487324858082
Cd 10.478872249374664 5.771370453965324 5.135484806982507
Cd 13.66810643778822 5.085158639813554 5.663215272195652
Cd 6.034428229405227 11.337811041669298 6.190417469549168
Cd 12.972139498599343 10.541398043547538 8.125546992395735
Cd 4.963522893867091 9.49105733044194 8.433617682925341
Cd 8.436541224295699 12.971314715422933 6.965938297609673
Cd 10.18585519793646 10.336775238481813 6.808024960114578
Cd 7.486059104795336 8.688820139163617 7.060513004627387
Cd 9.67812105196538 8.28486220663369 9.116734305816767
Cd 8.04171862210745 5.808941294431986 8.232078433418952
Cd 11.06309174207132 5.402195206943308 8.049952845399087
Cd 13.20984803214962 7.946910097273946 9.648184071021028
Cd 8.911048680806802 11.32959357172378 9.41077144127082
Cd 6.814117062990656 9.673647545274273 10.635511276133023
Cd 12.465263226356026 5.2153467415708725 10.621254750092685
Cd 7.639057320136312 6.807428895393196 11.01497638208595
Cd 11.587843028655712 10.564971431865017 10.841090047951337
Cd 9.54226918028502 12.744233645577019 11.99185372291221
Cd 10.987933198089213 7.706285071693626 11.785002405332907
Cd 6.640559083134551 9.225759892391107 13.49825889926834
Cd 9.634204745789967 10.087206550325567 13.322897912404912
Cd 9.657780570893996 4.709756468911518 11.725779084387185
Cd 8.948266564317489 6.983199311483227 13.909648630298273
Cd 5.871037376081736 11.236491970159252 15.875697134413983
Cd 5.403892576396498 7.996858574052847 16.071888562778728
Cd 8.291928071784387 9.172868291218379 16.271815685478085
