40
Energy = -16.47088001 eV
Cd 6.280480402230287 9.950032603526848 5.42769792265038
Cd 10.451319283720094 10.43543076595108 5.382307146213021
Cd 8.214002657468615 12.335070448861858 5.381348615373166
Cd 8.541537251648979 8.029861106877197 5.418688610209046
Cd 12.961858986819452 5.463167627319222 5.839420494240302
Cd 11.635433311673522 7.833866659932528 4.449569599174548
Cd 5.789359794333764 12.344769865685622 7.132613051230148
Cd 14.085809036992393 8.230933005775947 6.243792445204713
Cd 9.987799182602867 5.4994503214085695 5.682591885003681
Cd 10.23968627939841 12.39626264260456 7.948727840194414
Cd 7.577473888613523 12.61705543713611 9.398613554200978
Cd 6.137148026923682 7.724701749468443 7.471355789801971
Cd 8.57110828324768 9.763168223620035 8.042857926150196
Cd 8.244653448869544 5.693986693639843 8.196985223926138
Cd 12.70491796040122 10.789474625816377 7.208759198020426
Cd 6.057346455212919 10.026429114659546 9.547407052063303
Cd 13.325974674621479 6.221089438391219 8.765053396324618
Cd 10.937169157458785 7.918239336809536 7.706083081288756
Cd 3.730060894600335 9.921397563713741 7.278723024153665
Cd 13.991772976476167 9.061038253398118 9.276268150955657
Cd 11.03037909128175 10.011923679031351 9.907679373323372
Cd 9.155223659105085 7.60919757894433 10.278833572375428
Cd 11.04181290231988 4.270021787008996 8.167932843487527
Cd 14.076958850810469 12.219224076308608 9.400668717606408
Cd 6.1707590540257815 6.958015687344997 10.375816476182392
Cd 14.186994881631758 10.55432455092573 12.038821161699692
Cd 4.849227736093847 12.235077178251382 11.475938129285755
Cd 2.777159309990129 10.223540690547756 10.073792722111092
Cd 10.042661819009373 12.72754155144983 11.025902368836798
Cd 11.1869583245121 5.493313495875638 10.87046901352687
Cd 8.33085652757771 10.20869566786367 11.52473437206905
Cd 12.719120437670481 7.905208317662211 11.741674866106246
Cd 12.74923482365328 13.203257726409126 11.871653472541622
Cd 4.671565364992439 9.03611642031537 12.111129807400696
Cd 7.547378181217469 13.034830445273846 12.832563756658367
Cd 10.133780378453487 7.324713469207231 13.182752384048154
Cd 7.131608070272151 7.563121613162273 13.175016848954565
Cd 11.199738465608808 10.387184495378154 12.98574788677274
Cd 6.213935370769004 10.64974492501145 14.034181989671291
Cd 8.881683379102132 9.69146974084503 14.687774812375496
