48
Energy = -21.90518971 eV
Cd 4.915132133019721 3.986271762121469 5.854519541104306
Cd 8.036950467116645 7.271428916317177 7.767209627728291
Cd 8.198970080812403 3.4861363443124156 2.3354602928490915
Cd 5.171814712530138 6.456035319061981 7.623531530856944
Cd 7.479134463375406 6.2450261238130365 1.2736411697071865
Cd 9.592237261461829 2.1993285203532977 7.4755329228375835
Cd 7.257773635314988 2.7627866102522427 9.673017310269545
Cd 2.6597485707378654 1.7149011235093914 3.607843703487732
Cd 7.699781227945036 5.606246090845282 10.564501265790112
Cd 8.723863458144772 8.412558128540578 3.1047127247962583
Cd 9.840457205634303 9.840705663567325 5.499340251668874
Cd 1.8990087708721797 7.030664404304076 7.173831210701131
Cd 10.677766405102629 6.946024936166065 9.562555821714955
Cd 4.17933164112247 6.720281167095386 4.764089279341357
Cd 5.551428516494589 7.725080324707827 10.647301631525632
Cd 7.995383573173031 11.66543939210452 6.9409919711975565
Cd 11.131633536022917 4.891281410805703 7.4236666219471585
Cd 9.952572314706599 9.731179961616807 8.47617314912531
Cd 5.3262349862280916 2.9833137094339284 2.9368605620450787
Cd 7.047514457872761 5.653430871900968 4.3620845590278305
Cd 5.903396964824218 8.58016834287454 2.1897772310073953
Cd 5.087238778553737 11.007854899820638 6.462751980589228
Cd 7.004706736716141 0.7374707796372956 7.466652643033742
Cd 6.511977247471109 8.358782123174079 5.491212570278032
Cd 2.925744403959494 8.425241769316534 2.4355720636820637
Cd 0.8530353655423207 7.313046283596008 4.370095169626471
Cd 7.570851926993664 4.453567391566613 7.027510335926259
Cd 1.7521327205699166 4.57204737120921 5.15959090613181
Cd 2.6658323419516385 9.471222655389642 5.583566602828584
Cd 10.058701374218774 3.8797827382118903 9.983036114193435
Cd 1.0467352551852178 3.0099770733045546 1.6772719663730484
Cd 2.6092302582778193 4.374457230598243 8.211543735693356
Cd 9.94976672772745 3.825610565126496 4.880265227520747
Cd 10.111256233450836 5.79152103812528 2.6310057550973873
Cd 1.5667678397671925 5.789721473844029 1.9547578084770023
Cd 4.602946546597293 5.693330857121831 1.8453020822939619
Cd 7.288974080720481 10.936768062068841 4.067747060097908
Cd 4.91136850605552 0.8664420471497881 5.369973939496091
Cd 2.2836670734416877 1.9379222511057335 6.511675142887504
Cd 9.949376180761837 6.844741252859633 5.474726140450955
Cd 7.676862270158381 1.9330510659389797 4.816759733772019
Cd 4.5915242551758615 2.12826063053664 8.486889058019326
Cd 4.382435537390628 10.774500842490454 3.529444532444825
Cd 6.551362356377308 9.934757539305416 8.88040337186674
Cd 3.684451769261608 9.157582213052635 8.445751772184172
Cd 4.887409366197828 4.6197318946152555 10.219463597494833
Cd 8.470113337896274 8.521621506802449 10.747795550054802
Cd 2.8109104278544823 6.778210621114722 10.058106061543507
