48
Energy = -20.10329945 eV
Cd 8.254352158022247 8.4786804954577 1.7708777389360106
Cd 10.30031604792029 7.768561449723529 3.6845814444237135
Cd 2.853225738371871 9.000051072383496 4.065660465299621
Cd 7.5337286847038145 12.290424636627476 4.502795657798495
Cd 9.832084361619032 10.351746723870116 4.929130499024639
Cd 5.696813262632193 8.834395644610831 3.0281882302156475
Cd 7.807884823271035 7.019810996471499 5.0976970930946175
Cd 4.617260786343467 11.61311665267879 4.109945536461864
Cd 4.811885208839674 7.3325406925261 5.832901038193798
Cd 12.534643587146686 6.412200340357759 4.662223616938136
Cd 6.75080763553322 9.735766653942033 5.821220138834248
Cd 9.936621343225957 5.480901346742105 6.6629305578973135
Cd 12.225483563427547 11.2440900292823 6.675369849532766
Cd 13.626853665122667 5.55134518842467 7.156723210264517
Cd 13.47774222255417 8.56218032581062 6.545952479645948
Cd 6.721306339029727 5.337117686138639 7.26239140594257
Cd 2.688378123424254 10.917243707702948 6.4099327326172935
Cd 8.719696915411163 3.827583218604561 8.915882566327216
Cd 10.326900775699114 8.403998091637396 7.180816369430167
Cd 4.231483048215687 6.456276066289688 8.6396894394674
Cd 9.871758029945662 13.179055849394176 6.095749564378153
Cd 12.708412347480898 14.269721330943652 5.746257140838131
Cd 7.4980268654058015 8.091226993701424 8.399818865889626
Cd 4.536315269854125 9.409994718338877 8.092485901608669
Cd 12.58227249234723 9.197334113110095 9.48224608818409
Cd 12.079094143520877 12.275158171394045 9.468113461970296
Cd 5.551224277658042 9.408254163443313 10.842913841816967
Cd 6.713778581672766 5.588194589577372 10.316612180694314
Cd 7.001790974590028 11.165638318283392 8.347337773046316
Cd 11.653053497600851 4.080997380768105 8.74537192522756
Cd 9.605319247592865 10.012350975664802 9.604419792381485
Cd 9.192359652801468 13.09570376006678 8.91904891950544
Cd 4.120590857294241 6.674512083603657 11.542051749844104
Cd 9.93128429944991 6.6906410551699445 9.65055446742867
Cd 13.189440512106092 6.341204582069816 10.00404136351016
Cd 7.588934300872748 11.711891553658084 11.231652496887143
Cd 10.181903342022164 13.215919900163088 11.681738315690497
Cd 8.614729478203747 3.7358295112520676 11.913574609724694
Cd 11.526303150851406 4.460480099673559 11.806667856120692
Cd 8.192926353103006 8.138314162303473 11.542069416204706
Cd 5.054160742194769 8.00374812275578 13.939704721898613
Cd 9.313882756003942 10.97514398109275 13.758282180211337
Cd 6.279823571709961 10.656174425607723 13.707870611444795
Cd 6.680490202219184 5.6269386682866065 13.410993661144131
Cd 11.662655043025344 10.653494697038804 12.005509013888958
Cd 11.446779020964513 7.781057034757908 12.099457120190797
Cd 8.086041495373873 8.350859200571843 14.605921473000054
Cd 9.651019643696474 6.053967978102082 13.546463857000397
