47
Energy = -20.55507913 eV
Cd 11.03580104345427 6.8723169630751215 4.905397264187686
Cd 7.897794280331515 12.447910494520126 5.843413030931184
Cd 9.82999200432405 9.911718226338579 5.360141827467548
Cd 6.528449196796925 9.871510159379744 5.298233871476446
Cd 8.034560551832831 7.445483168891661 5.00489371892076
Cd 4.808435943033621 7.240724192668908 4.6366157657333185
Cd 9.10333056656916 4.794603288110683 5.762085632606109
Cd 10.695194655550253 12.954121450904015 5.488943769081092
Cd 12.765727400275953 9.156724322644177 4.943078606846712
Cd 5.581460182461474 11.503316906684356 7.597606483503668
Cd 6.250029237265164 5.486908819599617 6.67009884652338
Cd 13.345456551623494 12.025216186941636 4.824809983463398
Cd 13.110816844909374 13.000714154740145 7.723227126086431
Cd 11.533794286929158 5.20272076765008 7.507786871983528
Cd 9.837014716070437 7.799145724439634 7.839948591662234
Cd 3.9972775347608915 6.732655285397118 8.370626083413935
Cd 13.32939531186704 7.518741268763493 7.52146437513341
Cd 3.82446959812019 9.144459613053995 6.707203744708838
Cd 7.355130839455967 13.774631376376526 8.508690645654207
Cd 11.407968950616535 10.315564523768572 8.17834903698731
Cd 10.285168156807394 13.580021861672888 8.475048820806975
Cd 14.38759378935588 10.411994422261284 7.195625527687183
Cd 6.888540871060696 8.132870251042176 8.203563199560824
Cd 8.506199832338295 10.669045724877979 8.381109745489535
Cd 11.941781621089858 7.449632856700052 10.361273605175512
Cd 14.40452885505054 9.22332635776693 9.818296036362938
Cd 4.421373986629788 9.687821017200019 9.649802177466473
Cd 8.524585607064791 4.840275083408455 8.623392462387573
Cd 5.527492199735972 12.528276062379678 10.447590683143542
Cd 10.226404595684617 10.052411269166441 11.090974652953218
Cd 8.739785535347787 7.40212594925254 10.546486594082756
Cd 12.217231078556141 12.360374226883406 10.530754445626402
Cd 7.183469833476388 9.932819098338697 10.973071559798736
Cd 5.902995992229781 5.2041044773339635 9.944864361785232
Cd 10.969074900297308 4.509351341274533 10.295129728119873
Cd 8.768947755171839 12.78802232250535 10.944461254130092
Cd 13.574621596107747 10.43050643525247 12.237959875903595
Cd 5.214186407344804 7.560527794076878 11.59255271703913
Cd 8.16314338980195 4.27010786513391 11.628618783544834
Cd 12.244114286137059 8.063262115242877 13.427937393082615
Cd 6.201314551253772 12.135890164942976 13.282127888347532
Cd 10.358675752761773 5.927048836684376 12.876566554386294
Cd 7.396343386317943 6.493027180048261 13.459039906231524
Cd 6.3917124923942525 9.30520637134327 13.96229639246473
Cd 11.330802266562417 10.857763028875757 14.094871934187388
Cd 9.136796083340652 12.656820823442791 13.874100976064748
Cd 9.265174325891442 8.772339013004164 13.834026291858404
