48
Energy = -21.24556322 eV
Cd 8.601326896896573 11.689569295044215 3.4063683403208302
Cd 10.833974832736295 9.80097118191113 4.407244639668144
Cd 6.575052334493108 12.060388871372918 5.6938728171420685
Cd 7.928676158591364 9.319145156625487 5.112065149477506
Cd 9.884875816255095 6.995406192979849 5.458848132337841
Cd 12.73323840563236 8.27334103910157 6.144897969045401
Cd 8.472285233864813 14.30006339175874 4.8675770991145555
Cd 11.158032119278168 13.034789280004055 3.9941213705332217
Cd 12.628519201034207 11.572773019499651 6.13179979131205
Cd 5.358857256448118 9.5598480881399 6.7797772097543465
Cd 9.047796258444771 4.726240176796481 7.26265540781781
Cd 7.000127295836969 7.032729836864651 6.700300975039307
Cd 9.534709253035071 11.3771032098086 6.856413718123492
Cd 9.260395403679423 8.761711490533713 8.009908812362852
Cd 6.044592566523954 4.626688555494991 8.008797785133558
Cd 7.104146027739903 11.073561977290353 8.821570320313114
Cd 13.117623967256138 5.301097828132434 10.384989639425676
Cd 10.822206105241342 14.071063033245979 6.837151259259476
Cd 7.813933534257938 14.033620499300362 7.814324156409296
Cd 11.480949070156417 6.330784658264876 8.071270657120639
Cd 9.968294993742617 11.210140666996917 9.893386521503949
Cd 5.5751811009207755 7.396506954052211 9.440017511164633
Cd 3.858805741025415 9.99731717769946 9.239616345026386
Cd 12.96569666108973 12.815485013178906 8.86907795905403
Cd 14.391399049149236 7.673859845586009 9.007366965154148
Cd 10.373474489104211 14.220284182139675 9.741990498145045
Cd 12.397336875437592 9.897047223361481 8.630921814398272
Cd 10.932379867455392 8.19718902217212 10.619064936137859
Cd 7.900407074424073 2.914446035148773 9.603448446602654
Cd 8.552466026723636 6.546948475117453 9.801801943355105
Cd 10.676085559726957 3.849145327350306 9.887669378770813
Cd 5.377150825943723 11.543481508461324 11.39074970065893
Cd 7.605406961524233 13.453015492172817 10.77926217628859
Cd 12.643009592091595 12.932349967353401 11.800001760707206
Cd 5.619199591455907 4.604318274454243 10.935654202580082
Cd 14.06105903168612 7.351435551530352 12.156012925657521
Cd 8.460477173998846 4.572089981623818 12.118784642110215
Cd 13.362609368922588 10.146641335235534 11.538815804107081
Cd 7.964159506810654 9.225744581480452 11.090726634406241
Cd 9.94611896345378 13.50217665105981 12.638863284717036
Cd 7.781370701111754 11.676011417624778 13.399043047398678
Cd 10.509764455173997 10.48019286645816 12.745136693349366
Cd 4.382294778848139 8.769401061014912 11.896378470166258
Cd 6.5698030883311365 6.882047843753482 12.63207603770884
Cd 12.069693949617875 8.321297438030042 14.108513597394875
Cd 11.013970927545076 5.884638035202088 12.618781221768872
Cd 9.031398299340976 8.051832792140669 13.98295508467114
Cd 6.13198593869023 9.466376828180298 14.192245478032133
