47
Energy = -19.77733089 eV
Cd 10.574334297174548 10.030078356299352 4.3357003572016275
Cd 8.382053056003729 7.685799509931188 3.877331370871712
Cd 12.946723182580604 8.790588741398475 5.844860088825471
Cd 11.187069933999306 7.078505512204718 4.310201210651291
Cd 9.090432011945015 5.64349437790356 6.00145548968965
Cd 10.016747027244161 12.61570988440352 5.472405321561614
Cd 5.56934790898764 8.00703447349459 4.540132141293273
Cd 11.936112097051295 14.60104180698771 6.878282504868156
Cd 12.898762697039064 11.608292842132162 6.6718672184087495
Cd 7.690063356936875 10.082558924962088 5.578839788261821
Cd 7.044066964881848 4.27879483485735 7.701846936629076
Cd 4.2814428459992335 7.288888675466819 6.96642036436959
Cd 7.323835476239511 7.519132475934356 7.568667769655755
Cd 7.722954244616426 11.893300530611658 7.849489314508711
Cd 9.900747092423062 8.960989279983727 7.361702889462065
Cd 11.758364324776945 6.4118498448149435 7.346447971280567
Cd 15.533679749212029 8.809400907092577 7.256051936173743
Cd 10.909627875880767 14.644658254277058 9.698182039409843
Cd 8.920481414158454 14.639562432644803 7.27857732574177
Cd 12.481016820194334 9.126562231532963 9.01156872484298
Cd 9.455374536156409 7.10356509695163 9.856677564324015
Cd 5.44069628818244 9.885809584077723 8.28046219621326
Cd 5.090435511289396 5.746641095280357 9.518987585801556
Cd 10.736992726646326 11.675390075531945 8.616807435789598
Cd 3.0568865959774123 7.963666186112935 9.482985481218314
Cd 12.40160040902069 6.31135766928878 10.248444708497614
Cd 6.705225880508681 8.037294399928149 10.522085450574025
Cd 3.910832733693556 10.107102030123105 11.210364603516329
Cd 13.618185267743089 13.442777454842897 9.120833716849138
Cd 6.356427601349763 11.669098786455296 10.69719334625608
Cd 8.014926723552039 14.040343462467426 10.218264809914936
Cd 10.741040528077818 4.0022653059491775 11.417757600746407
Cd 15.033077025963586 10.796919793082727 9.408426754187976
Cd 6.143283144264201 6.33472798716515 13.964335670473966
Cd 9.998634531792732 4.160348754643144 8.603891408223536
Cd 3.930428769070857 7.076034260103423 12.21668341767087
Cd 8.92402967689582 10.047790464097915 10.133799609240707
Cd 11.411236142000027 6.469924731577416 13.033874113872178
Cd 6.023063337162701 9.30800155511747 13.216935529516489
Cd 10.417055044674331 12.41239219095848 11.624130845255982
Cd 8.721493191941763 5.104265744512073 13.3590610212328
Cd 8.265315729220028 11.188823250365648 13.188438536777978
Cd 7.582184468215722 4.687240803555251 10.672780662104483
Cd 13.249253706178335 11.625733119524815 11.564135212243242
Cd 8.763183811693159 14.224363603330143 13.931989708336253
Cd 11.495459466557346 9.202045929512728 11.872175226005092
Cd 8.809812958752424 8.123830952435394 12.932445205375602
