40
Energy = -16.61977727 eV
Cd 4.069768578142511 7.790427879469477 11.158076555636201
Cd 6.833247683962983 4.841535439583423 1.0869182638942478
Cd 9.498838522789525 6.553312322201832 7.755046812827665
Cd 4.2687745396920835 6.025765432635487 6.643961973042553
Cd 6.591457454076748 1.9665139041620543 2.6294804597572785
Cd 3.7984586238147724 5.372925428312678 1.2438124386745695
Cd 8.51501190193606 10.625649190267671 8.693839413121516
Cd 3.1195856607727195 5.349299569275403 9.756665282965182
Cd 9.22125501871649 8.195073009721757 10.265977069272347
Cd 6.589778838808642 7.230743797765633 8.291372460105359
Cd 0.7183612617783736 5.372851564901631 7.956859515285247
Cd 1.4225895434879718 5.068659811145266 2.939751780535819
Cd 4.064420077076248 3.168340265308532 8.037671038398717
Cd 8.44828371918001 4.523273127317691 3.559227541672976
Cd 4.652903292728489 9.196362005852647 7.017533439557501
Cd 7.051140370529016 4.805066921045905 6.497450245129155
Cd 6.8019848531970935 6.6981263117950975 11.669772173136556
Cd 6.281906546124148 9.52078016535373 10.257461948505119
Cd 5.6212078245749 7.5729516833359405 0.6515117227297479
Cd 2.1891968958263 3.7820622773336505 5.73512973120576
Cd 9.86385550668521 6.746598283729814 4.828544179994114
Cd 3.4118436739762164 2.8187973664705357 2.9291669522271198
Cd 9.024965574496512 3.65248863118666 8.802749455475436
Cd 9.561146292695286 9.291994608094118 6.228899602716605
Cd 6.814514216602672 7.568353860787763 5.238866214890043
Cd 6.006429911269338 9.48297423555428 2.9014076543660416
Cd 8.781487174160405 10.39024303405278 3.453527535377712
Cd 6.128205635487629 4.554473966657851 9.653393260436367
Cd 1.4593610566735904 6.759602605152154 5.3922813112379195
Cd 4.88446394025709 2.6315445811511022 0.2714118591727079
Cd 5.380589844673323 5.149373752320402 3.8946476823967613
Cd 6.783725581312692 1.8688322304528355 7.99990553774454
Cd 8.259374215574368 7.472105554416905 2.3543214883836505
Cd 10.24710327301736 3.946470752069601 6.063280249298786
Cd 3.894511924571728 7.75777295223683 4.040856432181792
Cd 2.4283520518433064 7.949885076623122 8.465728923185392
Cd 6.972009297837429 10.682647398456627 5.98273126450365
Cd 9.432579570461607 5.361251028972416 11.21242450952465
Cd 8.046271456313564 2.037820532314815 5.251675619521015
Cd 5.063672315599508 2.419683163236619 5.389294122634426
