45
Energy = -18.30548026 eV
Cd 8.224634261831504 11.84723304097339 4.767453226303096
Cd 10.143137770716894 9.622621802903984 4.4457821427384685
Cd 11.681004154094406 7.419884812204436 3.0432571914775726
Cd 7.2682240097113215 9.050426861214033 5.594196070708118
Cd 12.374072000911816 10.256544702172446 6.419790282849599
Cd 6.330939556731663 6.226541511052702 5.3799451843552
Cd 14.01932838679784 8.179719513125704 4.954359657025295
Cd 9.313482315692964 6.5916568672156455 4.748772705601237
Cd 10.041748012493898 12.03124184950027 7.196016705414974
Cd 13.105993703981994 5.334366891824842 4.778352151114668
Cd 10.206300527381995 8.100113228275069 7.216669803914281
Cd 14.521077020358875 12.4062270340758 5.807582541558363
Cd 4.41383897690313 6.688190504459043 7.628432875093266
Cd 5.519676129559874 11.817265699185686 6.2368890742639564
Cd 8.374677098237559 4.375276460733007 6.712278327832442
Cd 4.597246664764311 9.614221767331706 7.7920778145580245
Cd 7.518566942476922 13.906852411753144 6.812086007537639
Cd 7.49072332284337 7.118592162697845 8.24285640052812
Cd 11.287145316881261 5.290757187835012 7.041910015458788
Cd 13.297149823317874 7.632800777043948 7.89288375088077
Cd 7.848216734963726 10.186444675745427 8.27860539439965
Cd 10.764782501001635 9.836214678871933 9.539609478641006
Cd 3.986824922882923 5.512994343778049 10.240953526962475
Cd 7.961647350948583 12.932354917204083 9.547059164350545
Cd 12.67371397593576 12.683183443412142 8.493366664952992
Cd 9.551586785557857 4.72767526276279 9.419662214437436
Cd 14.389022810673913 10.349956255964209 8.942991812004315
Cd 11.7915776494118 6.466895687659324 10.1830954643574
Cd 8.366794626661214 10.435355600747224 11.290126726477592
Cd 9.02482852917111 7.500502416728761 10.857743025465597
Cd 2.704678098455283 9.815009218885592 10.057193940563236
Cd 6.692380854878 4.522260787910669 9.791471560827366
Cd 3.4614492783153143 7.639625302814769 12.122243017410572
Cd 6.045995155924694 8.711951629721794 10.436466200351317
Cd 8.46904144336327 13.89745592073665 12.467848857875248
Cd 13.448024158949316 8.770319300902312 11.140644891672956
Cd 10.79634503685753 12.886012964836663 10.779865281129892
Cd 6.415432156052375 6.188272807410382 12.265564637705685
Cd 11.574524597720254 7.519523324899295 13.088073509248417
Cd 6.75192066837419 11.758967952683049 13.51093353523687
Cd 8.839196644851343 6.984860361797742 13.90196810274955
Cd 4.2068463102576805 10.463586098417164 12.679666736529729
Cd 6.412207497333901 8.732640664608795 13.927617810365216
Cd 9.249221992489119 10.047668912242047 14.422312016019832
Cd 11.450166032288042 10.525124192687239 12.508716310057862
