43
Energy = -17.40875995 eV
Cd 9.89074530122837 14.023903456436635 3.6516231670658237
Cd 8.622272110287101 11.303039069764733 3.72552938845153
Cd 9.028979016493489 6.397534206515217 4.932935398707292
Cd 7.045934009972945 8.884836824949769 4.616753533968527
Cd 11.251425833375528 12.270663040073414 5.76838659101519
Cd 8.439276315362441 13.894060256654702 6.319052309395001
Cd 6.379023161257043 11.666112919161321 5.802877574579927
Cd 11.708557731224285 6.99107826888913 6.1566665534557234
Cd 6.052056787283889 6.226153725108987 5.348843850954852
Cd 12.755654449152589 9.612230758792961 5.434747220292296
Cd 6.5974431692111715 9.32553967276615 7.871921724767974
Cd 12.171573048567936 5.881622049430591 8.962609347247344
Cd 5.623542582705962 15.31251067497082 6.726661341637937
Cd 9.378824363159788 11.712537778887636 8.134715003518512
Cd 7.697460001358319 4.377823730066655 7.284782741665872
Cd 5.521417781701591 6.37701904449804 8.2293032765329
Cd 13.536643762126054 11.296595705264924 7.8123464947724175
Cd 10.611250209219277 4.27912128639905 6.965286205541725
Cd 8.779957572331254 7.202266248647364 8.073965522884174
Cd 6.567954314462138 12.869952524920688 8.579869797271494
Cd 11.078216199941572 9.180792657399639 8.791291446753643
Cd 9.659333470530738 9.438790387417322 6.068315651616976
Cd 14.01560352996308 8.28007484249618 8.004935374967461
Cd 9.602751360764566 4.315984634654126 10.08746209160347
Cd 9.42979338148379 13.30965424489634 10.981343796066815
Cd 4.435084516761246 5.587092471654292 11.177264141427335
Cd 6.559804016336422 3.966361651873621 9.946609078727487
Cd 11.858861092262856 12.016320899060842 10.088973757475905
Cd 6.945207987048596 7.683089944711016 10.55041004078582
Cd 5.068399634388309 10.675821703526324 10.138002854547375
Cd 10.00223103727276 7.32924803984587 10.816370130760703
Cd 8.593281050636499 10.11777151369598 10.457038051177285
Cd 14.037791057449814 7.184980103090917 10.856949423486348
Cd 7.548184451403823 5.2605971476849405 12.398873477471717
Cd 6.534535097686374 12.896527277664365 11.593241584049098
Cd 4.005212049717375 8.367079704390088 11.816260430192266
Cd 12.102084415942944 4.9252637285168355 11.915222897984256
Cd 12.743580287516556 9.647605003934139 11.685041358979092
Cd 8.675495069057277 11.811615642139916 13.504632550849234
Cd 6.4297751893395585 9.966065338479254 12.791460483015655
Cd 10.26819286536363 6.257133335174724 13.776549671319462
Cd 10.18526793454853 9.300549555928065 13.094774033709461
Cd 7.649261070417997 7.664917215883836 14.148038915623896
