45
Energy = -18.52186329 eV
Cd 11.26245516064452 8.416221243709284 4.476315434551995
Cd 4.425385720402239 6.2353896191824 5.972956502638841
Cd 5.537260864209673 8.113801291210093 2.500467631510575
Cd 3.707516889937154 9.438469404696399 4.374823977118684
Cd 7.857119188387455 12.496669822784932 6.663118268631714
Cd 6.520032249631658 10.703619633748284 4.607374427472959
Cd 8.410319789380564 8.367646941664535 3.7182332514419363
Cd 7.808501443175858 3.9716740216446054 5.75326074771218
Cd 9.699378375461942 10.845459853183932 4.997019528872347
Cd 12.132424805455628 9.663271190192017 7.124727532082562
Cd 6.692326738831998 5.849121268567302 3.9394831875496865
Cd 12.498896985481052 6.184294068186291 5.886814790875245
Cd 6.773588851288129 8.070079281725368 6.259917262324615
Cd 9.444258338418889 6.510714382940197 6.452463883088263
Cd 3.4706225001735547 8.885639643548338 7.173724799119643
Cd 5.854518026803363 10.582485558183413 7.681937507549433
Cd 14.723914621314599 9.912766931483754 9.076805400892548
Cd 9.015928949499322 9.407310693861284 7.695131224018645
Cd 10.894878444114989 12.68813300701089 6.935878974964546
Cd 5.753037998776938 4.271279867318369 7.994837462056497
Cd 8.724802321024237 4.232113360286261 8.509261449058197
Cd 14.588350341298527 7.3590410723715545 7.452585920395409
Cd 9.173645765089827 12.334790470528821 9.419057714053615
Cd 6.2488565345389695 13.277762283423693 9.183286130961685
Cd 12.825314121511841 12.114963249996554 8.991689377762944
Cd 7.307252725825858 6.976689388926713 8.896362488489348
Cd 11.195913786290635 7.019543253814882 8.823412500503746
Cd 7.488082583231766 9.914762326922151 10.295463010552774
Cd 10.837623843761962 9.913712227909226 10.034479717135717
Cd 4.065313292782967 9.56146597246922 10.024025721049133
Cd 4.864477062064587 12.03751528171688 11.457878014802292
Cd 12.425416596593074 13.443306102498441 11.563108953181287
Cd 9.202807572946814 7.547516670262428 11.036720270126763
Cd 7.29951823488554 5.407419218403585 12.781106349123448
Cd 4.153973385978047 6.5889293142855765 9.045654823834438
Cd 13.879037158404676 7.342973615943989 10.307635398004619
Cd 9.574761301695668 4.307155461292263 11.222097489634047
Cd 9.640714511288174 12.746899341002639 12.337352006819623
Cd 5.736886841177763 7.485223082366351 11.441580141679024
Cd 12.317465460603747 8.680211783028591 12.40431356467474
Cd 9.940876842062519 9.977071295158067 13.490396382498487
Cd 12.06630716036362 5.590194441919744 11.753717296747585
Cd 7.3330884782321695 8.258773198471175 13.870057169628405
Cd 7.177648085130357 11.151163163664148 13.120279208796703
Cd 10.070516030714574 6.73777267738326 13.874203084902222
