48
Energy = -21.05100927 eV
Cd 7.982190669620296 12.03765862800424 5.358552446843706
Cd 10.668007151063051 5.863289367105768 4.596629923983096
Cd 10.738513943250947 11.266793206786225 4.937959859841614
Cd 11.466878608348509 8.612047303894194 3.7078724564530265
Cd 8.820168609891374 6.0989669238647775 6.890656786128023
Cd 8.77676988409168 8.774426323274353 4.992009663977958
Cd 8.184638324099968 14.043030570796612 7.672776183261528
Cd 6.083499519855536 9.590737941395084 5.483555854223113
Cd 6.012959125315186 6.9186578434918395 7.640591927225446
Cd 13.234754051182662 9.89346340105367 5.969898268446578
Cd 13.420075678066464 6.9414033530971855 5.265976650944092
Cd 5.9167355666533625 11.874581431589787 7.566356052534312
Cd 14.106322671170474 7.782569089971797 8.086859563099667
Cd 10.712397893804402 8.586524409721207 7.3400724613321575
Cd 7.6674431705468 4.660912487411129 9.217345130963174
Cd 14.07527113971007 10.78599366180829 8.676474413424522
Cd 12.417031136367694 12.744387499667328 6.875123683224656
Cd 3.6866222248806126 7.5137916980433825 9.612056779733956
Cd 4.758381007999314 10.595780164039216 10.151780864626014
Cd 4.033113250111182 9.438551359972298 7.460208388853722
Cd 9.909600480173049 11.427947083467247 8.031508909916905
Cd 7.778946605687491 9.427182344550582 8.185006352162274
Cd 11.956386553852365 5.611796424271911 7.5078216393823425
Cd 11.512862267564616 9.635346456090211 10.035761333046011
Cd 14.493845965129202 8.636219581462434 11.06998230175333
Cd 10.562464900243269 4.152261236235698 9.631580713158653
Cd 14.533165745211175 11.484996746548443 11.6313775898469
Cd 8.707590971334993 10.164707105464007 11.077883611788367
Cd 10.863472463360345 15.02021127930421 8.294474702667824
Cd 4.57089467709847 8.74286676950287 12.998670440126435
Cd 13.013826847787987 13.435752180329132 9.793473542194103
Cd 9.420646360101266 7.361644219126066 9.796311106934057
Cd 5.321335036609075 5.202552958660711 10.832806903508784
Cd 10.34506843233129 12.668402333064744 10.790610613247585
Cd 3.086538143785627 6.381090355952717 12.355495016269291
Cd 7.1766243123267195 12.634857923158659 10.124380143263393
Cd 6.557858786634127 8.142584524822595 10.610895512691497
Cd 12.488458741832908 6.579288664482145 10.407574583534993
Cd 12.059825267166527 10.545761911256033 12.951350071523827
Cd 10.402585551661671 8.08771556168242 12.80478708186807
Cd 10.72988091168625 5.163097366598102 12.375601857972866
Cd 9.319549982909615 10.747271981209312 14.325259372830113
Cd 8.13520096825775 13.260546411465185 12.925861345629068
Cd 7.887424621135371 5.973482743445212 12.271144700601887
Cd 13.524581909596542 14.024404738730393 12.918670099874463
Cd 10.893324950055987 13.274135737776982 13.788460958658861
Cd 7.462887591865543 8.549362735832247 13.747102896913374
Cd 6.096317850842271 11.21388648279363 12.78632976178528
