41
Energy = -16.88728873 eV
Cd 5.214018544010562 9.018319086123764 4.502491392341526
Cd 9.164301766457736 13.496855675609943 4.1499319025153705
Cd 7.447488264505585 10.915688174022327 3.860454323859679
Cd 10.97704332788143 6.307174068656861 4.848937891425543
Cd 6.530689803066178 13.30672786671171 5.574510796979637
Cd 5.156989189742069 6.957312509328795 6.605638458923103
Cd 9.776504802362515 14.197289551575418 6.991478020269126
Cd 9.339387430412206 8.735248813744427 4.380513385747475
Cd 8.035912780831064 6.63467984371944 6.088891671577714
Cd 10.045112232101506 11.22206485712531 6.097343195690774
Cd 7.581273725557704 4.974098221547943 8.633981588058438
Cd 12.505582748230697 5.863105077528834 7.414097108662822
Cd 14.015608368111621 8.362025691167624 8.19718786677457
Cd 12.142063108563228 8.906689027836856 5.7078044824479175
Cd 5.036531918763832 11.026783918922408 6.81363127358082
Cd 4.76584437038997 8.770543162328249 8.992070899021117
Cd 7.710537734392574 9.535560030169677 7.108141308018828
Cd 9.9907898249134 4.443139058570656 7.118051836218116
Cd 10.003058680035567 13.843615177594033 9.893992176230778
Cd 10.208705279225066 7.9459674296625025 7.972861899827968
Cd 13.09206564727239 6.338825469130131 10.244195082393583
Cd 7.501633606283698 12.561592822284616 8.273387413088274
Cd 5.048235835921689 11.604474099391295 9.841574610764209
Cd 7.670969974720209 7.807261425782434 9.616482653019267
Cd 6.821474300038194 4.433892163371406 11.614965791696408
Cd 12.031976685351703 10.599664333108676 8.2191800792409
Cd 4.855435745497328 5.787794207514874 9.464084085060861
Cd 11.412488679884056 8.800116232936231 10.817222514143937
Cd 9.213199540962519 10.434762441507031 9.594335707402792
Cd 10.037452983020655 5.9174581624423706 10.244540912636426
Cd 12.24103323141312 11.919726233453812 10.797348381925627
Cd 6.256351614752958 9.431623372005498 11.641171982427094
Cd 12.207175735397964 5.529554760188737 12.913263235266987
Cd 12.004583909078356 10.441945289119074 13.489092130306538
Cd 7.516306515883264 12.210776142129827 11.374981001048763
Cd 8.22082456174272 6.9498998445513385 12.714087410441618
Cd 9.593808909643874 3.9484774895379955 12.694858618982959
Cd 5.112532561977545 6.807698027403556 12.311440724148781
Cd 10.782759431790177 7.772171834340259 14.071934063793913
Cd 8.999547126019708 9.851390428842661 12.765685129786878
Cd 10.123290272886337 12.778598748103748 12.734747763346924
