47
Energy = -20.6341273 eV
Cd 8.04467469632117 8.754504648125197 3.024788347536423
Cd 10.557656253331906 9.877120028000496 4.2396134627659325
Cd 5.295950961376683 7.902836323557892 3.7618763613421278
Cd 6.109544539648906 10.767266399612646 4.1447575652697175
Cd 9.96177639704428 6.941968555235658 4.475329357529711
Cd 4.386234909665506 8.977029546073862 6.30275452185352
Cd 12.726441619251048 7.780571273580921 5.026152914994886
Cd 11.65950284942426 5.705564394114283 6.9347896189691225
Cd 7.207022064046916 5.770296807869156 4.352745819016469
Cd 8.67946491589797 12.135675923984229 4.961389826177707
Cd 10.50562430224061 8.698716250374805 7.373496406920694
Cd 11.506260981600937 11.570831804669153 6.479195477450914
Cd 5.287867231719622 6.051029037028894 6.625022683760326
Cd 6.026065107754062 11.578497674272823 7.014762717481276
Cd 9.507252469809831 4.19867530303785 5.3274115091598375
Cd 7.627645206577295 8.818203830059284 6.253674544834903
Cd 9.324652795009136 14.362787743783267 6.865288131555346
Cd 13.79586008805717 9.457503491146555 7.033648840682282
Cd 7.1031907047903555 3.635530937926523 7.195065507885652
Cd 11.044862118420744 5.3329504158026095 9.847155423177895
Cd 12.706843097536785 10.857815225621753 9.294093631245628
Cd 8.855854885680339 11.213155818906925 8.146330426176043
Cd 10.04410716885438 3.2193074835735738 7.97530818620836
Cd 7.06193700890783 13.988557620460373 8.625750874038552
Cd 5.928122178812865 5.151897391630051 9.580494618206673
Cd 8.53229850942254 6.447332786682713 7.674808988458876
Cd 4.236523889340659 7.495690710278891 9.035089611816092
Cd 6.91200685356978 9.106930023435249 9.10708562605037
Cd 3.766166730766462 10.524558444898021 8.649923250696931
Cd 11.74859061231856 6.972498581964663 12.22960827297335
Cd 5.823672203582458 11.880212252710253 10.265525679874251
Cd 11.125684427888116 13.34941345407234 8.885890300478716
Cd 12.758500634907636 7.758234954365437 9.393839807052858
Cd 8.437985888884976 3.670324582517211 10.371579949910348
Cd 8.30547836380232 6.972313280008015 10.539374955520918
Cd 9.907114371183887 9.37959945779929 10.247956414742857
Cd 7.114641988950021 4.959989211965758 12.832903659590238
Cd 5.316153967732886 7.025610265193719 11.994033775233573
Cd 4.2485581306268125 9.589599209276688 11.380788199413058
Cd 8.269660268357573 12.559969373196617 11.636480356124226
Cd 7.113221817413477 9.677105467624559 12.286005410888027
Cd 11.133091435653172 12.266128503767108 11.566702499877605
Cd 10.013999757394101 4.688272414634806 12.745647750845952
Cd 12.590165885865902 9.699714459932483 12.039803986088971
Cd 8.855650821265941 7.466132671793723 13.57518247222336
Cd 9.86866428503083 10.247996223244158 13.432336463062601
Cd 9.538591625348339 12.08491676327517 15.819372815924211
