43
Energy = -17.42993134 eV
Cd 8.347445090493311 8.433884381736895 2.377211252420998
Cd 6.1714683277847335 6.623400172118947 2.93097402429106
Cd 7.547242929354824 7.741254006801248 5.964630335318522
Cd 6.010291731730599 12.076648803425082 5.368039651376356
Cd 10.411012707182278 8.086420198071819 4.538933479078117
Cd 6.785074200774378 4.67210328208957 5.176329165019868
Cd 8.288489428833662 10.461399641985716 4.662044510492066
Cd 9.621377014890669 5.365068463030322 5.835687748966872
Cd 4.293526696651726 6.728663742304392 5.290183807177505
Cd 12.924514015448306 8.556902213396375 5.996866533902103
Cd 10.739492023746777 10.771890589917387 6.267590204345311
Cd 5.023754088034938 9.431631541302462 6.216816002631166
Cd 7.650322711943199 4.896635050311374 8.175021426776343
Cd 13.591231889254688 11.076592724167613 7.440742837178754
Cd 4.717274807986307 4.619100596130793 7.337093873642247
Cd 8.092345323640224 10.024013108642894 7.963180656585954
Cd 5.414085014865241 11.537131454086722 8.456929803649992
Cd 10.02337917074385 7.638215125199604 7.871831405333075
Cd 12.823024262632051 13.837429650930856 8.56075929025596
Cd 11.466641709132558 4.730487332549768 8.06084617490164
Cd 3.212865499965738 9.663713728650356 8.750516683404186
Cd 13.217138346678105 7.2770365071985355 8.526524658933052
Cd 7.234441390116336 13.707873230244768 7.4843969477993895
Cd 13.715925409005205 11.611630140861768 10.394692020186474
Cd 10.029403683859305 13.168870199283695 7.8235828955978155
Cd 5.7716881785952 7.38464957140844 8.395875096658033
Cd 4.222032485761848 2.212134055802713 9.30425470214058
Cd 10.87544936451045 10.118403701726484 9.238267253248125
Cd 9.64018169270906 4.134731594926003 10.3668133120892
Cd 6.832334637653367 4.228943400033205 11.23179380816609
Cd 4.278885250285694 5.2385251794493 10.205661693920522
Cd 3.0081756139968223 7.8187306040503195 10.921765960221258
Cd 13.118625940953294 8.825469177258471 11.078798702315884
Cd 11.897948462848401 10.992662146706687 12.858098076448265
Cd 8.242909390584728 7.1692233569616555 10.403893501833272
Cd 11.249550413441538 6.584581282673489 10.722932377613919
Cd 7.8773096695360305 12.421074264477674 10.141697927372151
Cd 10.777111385249341 12.904602623735231 10.92421538082708
Cd 6.236107952951362 9.478923064805723 10.553595886900224
Cd 5.677146603102375 6.97774950480915 12.311392977512021
Cd 10.779289906924522 8.205657363104493 13.190857870741358
Cd 9.019437107866846 10.057882658625182 11.612111562271314
Cd 8.048488009241384 7.412500105969194 13.97098806141842
