41
Energy = -16.79786945 eV
Cd 11.653700529919153 7.871240776363359 3.6675038855464996
Cd 6.4176317087755255 8.465681735302606 3.9452597156164337
Cd 11.218716395055944 10.69581875454579 4.050361261968561
Cd 8.91683973580708 6.913708790769955 4.1932651053268355
Cd 9.941698973945387 13.030571098007666 5.471124323738061
Cd 12.898471253134467 12.213327832216212 6.131385331410533
Cd 12.604348881693642 6.387281168614848 5.972974237132385
Cd 8.076211586064337 10.775152913684499 5.791879853602897
Cd 13.06460368905129 9.333755702278761 6.913795054757482
Cd 7.710799714146124 5.768466033779657 6.731923562237978
Cd 11.224873636180874 13.936639362946913 7.96454968440004
Cd 8.401004957466341 12.708617417263245 8.286160705557545
Cd 5.051454405737433 7.2120014663797765 6.413476036039798
Cd 7.351664358816103 8.715224646012752 8.194712430346712
Cd 10.493439593311425 5.003762974974988 7.414086920150453
Cd 5.202722466962405 10.262393401433114 6.109783833572492
Cd 5.753525756727879 6.114792920155864 9.087095447083394
Cd 9.876424064356133 8.441407603425972 6.551566359759888
Cd 3.338784718127353 9.046373665302232 8.103734169473405
Cd 10.701986488322078 10.656843987261286 8.300713197995046
Cd 8.482657668921359 5.040482144287656 9.643248793593761
Cd 12.164587075531852 12.41020269306364 10.32242979480063
Cd 13.138391778233643 7.2633162216682585 9.024957702853282
Cd 7.192696847128616 13.0773821455843 11.2348023417963
Cd 11.868827013382447 4.537704788371165 9.95868992033959
Cd 5.888750300697423 11.186803996048525 8.954405013071884
Cd 8.711758193474996 10.440429570741399 10.483578408221467
Cd 10.02180733318802 7.729128540695496 9.459369763941753
Cd 4.784374249636239 8.80135978060068 10.606888908785677
Cd 9.811884603105433 4.682117669230262 12.193216994192548
Cd 7.6303524365108855 7.800896473299463 11.293969688139885
Cd 5.028309185045126 6.060500287668527 12.00703493062015
Cd 9.81478537390255 14.257459524899447 10.611060441860076
Cd 11.760514065359704 9.702476869270681 11.265473650866639
Cd 5.384822946850494 11.03902398049664 12.40198490035209
Cd 11.913717233832262 6.871533590466477 11.829451835331831
Cd 10.099150695824854 12.126910066847984 12.661829424862967
Cd 7.738426115455039 10.012455204130255 13.773212789539311
Cd 7.216566645821746 4.937116701409566 13.555116519649738
Cd 9.466187647991635 7.29738989316265 13.653099071762552
Cd 10.664977319228038 9.854695250060137 14.453275632424429
