41
Energy = -16.93613275 eV
Cd 6.928302397758622 9.241360297764588 3.1570816479596457
Cd 8.837241361210534 11.57106905283428 2.9304308460712503
Cd 11.048328168838319 7.506413769946678 5.026903076439641
Cd 6.700777727317037 11.859437813261033 5.0403376108788365
Cd 10.184910677871622 8.961704985804836 2.598807909899626
Cd 4.395701324079159 9.92343056668382 5.039865048714887
Cd 5.2151683489075396 7.083269621344285 4.508771725169849
Cd 6.8922590994622475 4.114236707684163 5.156997022401479
Cd 8.220073787659736 6.791984067820388 4.500715367443489
Cd 11.41279380033932 10.6393417233991 4.923770981425071
Cd 9.539425205223147 12.965839539495592 5.461438576785733
Cd 9.531646543685723 5.095455847587303 6.623061953663965
Cd 5.939896462324376 10.445246485595641 7.643920282887474
Cd 7.890983161235017 12.667036469572308 7.955122770744171
Cd 4.4353463486665 5.126039819223295 6.611478404010706
Cd 12.045745081800538 6.431902565755145 7.5254406965764895
Cd 8.636182734851221 9.549866914473629 5.944687611262779
Cd 10.574217486923933 11.226508914651157 7.891716365938453
Cd 8.147166510684958 1.949863429850338 6.936514362269182
Cd 6.952286384969266 7.530800039031695 7.188018256756492
Cd 12.880946770398229 9.300414538846344 7.325142431709959
Cd 8.765279046746972 2.672045131236541 9.822116547178936
Cd 9.6385401992163 8.271735394249944 8.436651650733474
Cd 3.9311110606344295 8.034821339006639 7.422804324430319
Cd 6.972566169693127 4.649834379182385 8.261026755164567
Cd 7.94529725493861 10.276881370671225 9.897464852056673
Cd 4.453093857899188 5.900560025137232 9.559925608014215
Cd 10.327075940538124 5.273223491990411 9.71912052611908
Cd 5.945091364653741 3.3081269405534375 10.875074416974364
Cd 7.429629928258132 7.092725710459266 10.165131847746464
Cd 11.192192163520806 10.481578837311224 10.65411240340452
Cd 12.423799059632977 7.876686561512964 10.070710108798858
Cd 8.292484701077866 14.226484847653603 10.42261044674043
Cd 10.012625773158396 7.684290515809926 11.748290314928642
Cd 4.997518688826173 9.029607430848527 10.16739169463304
Cd 8.480022236890463 4.770470412308016 12.084764212507466
Cd 9.730079661803975 12.450150194940298 12.234866639527022
Cd 5.417716508233668 5.842257336691737 12.44175039100275
Cd 8.139481844559073 10.009726157813777 12.88792941810956
Cd 5.406653624052897 8.791296202641577 13.072727054623101
Cd 7.8700499716385774 7.155982989535221 13.845016278477907
