41
Energy = -16.40099026 eV
Cd 6.333487277460537 9.008885570407754 3.5762707990778333
Cd 7.6972733526338795 11.599458326701061 5.447879489932972
Cd 7.903326238680524 6.163803317739322 4.704871243459453
Cd 10.203402823959111 7.888739122312234 4.49935989785727
Cd 10.23215753079038 10.892535613191441 4.245211186027873
Cd 3.952149562762174 8.212232605172835 5.50364121089059
Cd 4.629156021669564 11.165723324767685 4.878888932516328
Cd 7.238673524126467 8.697354209292348 6.439805638711337
Cd 5.5005534694270315 12.963652933842846 7.1219341080850604
Cd 7.642717224137129 4.084911344617974 6.78809893617726
Cd 5.203183581015021 5.6119267620216196 6.3162163242812435
Cd 12.227752881700711 9.931387581539358 6.163051798951909
Cd 12.11628704967115 6.823420267407285 6.579070684427326
Cd 13.288263931491077 5.277153751336229 8.864856244257133
Cd 5.3232007712975955 7.7750639708334965 8.6012559465194
Cd 7.544740970616215 14.901123244830156 8.360115583080365
Cd 3.955489306891786 10.352158965162337 7.815453990824059
Cd 9.871047663647664 9.066591391053274 7.7435470614647794
Cd 7.468554159963661 10.975724643957129 8.478406251176132
Cd 8.306512227075881 3.6238500795784803 9.643656925361848
Cd 13.202736069867985 8.811274319473837 8.776042423123412
Cd 9.554859555708985 13.025805635494214 9.316792570096679
Cd 11.893813234732564 11.45355689140925 8.951460684333
Cd 8.924545784506252 9.258905509487136 10.541744540423718
Cd 10.500823584453046 4.528230247097222 7.536016300599928
Cd 5.2604014221376305 13.978866394815979 10.024450834336625
Cd 3.5118266637053606 11.674214004340762 10.47192870090093
Cd 11.151962709516521 3.6776716405476377 10.53276588848968
Cd 8.139332404689714 6.627583931701429 8.479560677741553
Cd 10.79596103678959 6.9560994787967285 9.761147653931976
Cd 11.914937213222787 9.312257765304757 11.506945238144517
Cd 7.403063859363966 12.597379611860529 11.56419371269769
Cd 10.447870708782343 11.854191177833261 11.893109424557991
Cd 8.16764512644578 10.621289695675964 13.504387349883174
Cd 6.866385428553457 7.069399360154766 11.191270890930191
Cd 13.544310494181836 4.595873353030628 11.964201521951487
Cd 14.323196877759043 7.304394903988982 11.048499971882977
Cd 5.9542162765266315 9.924197430101675 10.940257490792789
Cd 9.231755250445824 7.97628540232647 13.521051118872494
Cd 9.075214818760386 5.328435028744576 11.9985982854511
Cd 11.735836490739391 6.647015771956311 12.942607047683456
