46
Energy = -20.31796773 eV
Cd 9.720867788750475 7.110435331907196 11.450992747091957
Cd 11.07532239535434 11.633796574700323 8.052487444190746
Cd 11.041516326932747 6.536773240791365 8.803983055929328
Cd 8.051630826917902 9.409258930770187 10.369550793172467
Cd 9.15304287765501 8.730962028398205 7.418506240263107
Cd 8.083422324537905 11.747646352044834 8.364300745293265
Cd 7.045470179637999 6.004524671872933 12.009082754946188
Cd 11.082323621239855 9.352851423866806 9.860247763932875
Cd 5.4622587281370185 10.793570760883684 9.629694101084816
Cd 5.39473368289657 8.316840131375125 11.291611070714055
Cd 9.856867046677683 4.437912991494577 7.132989279198691
Cd 4.544962120665541 5.833171645039803 9.78498148135444
Cd 8.000580797348812 6.511613357533832 5.813813758334057
Cd 3.4903885461008555 8.37072013047461 8.79098463114245
Cd 11.62856126131884 6.688002907911533 5.874070160541251
Cd 8.975345925748615 4.486183960990872 10.154833999711704
Cd 9.208452223693588 11.262966539027813 5.496602409958947
Cd 3.647206841592127 10.989284139641008 7.217439348405114
Cd 6.056028890509454 3.456592421534171 10.789024065097747
Cd 6.319740423862383 11.605314330403457 5.719943528207882
Cd 7.378301335061089 6.75537480368604 8.779207598348089
Cd 6.149306954205025 8.929896893641576 7.177473339440942
Cd 11.97918474053079 9.593102792318637 6.189848599625455
Cd 5.503016680876562 3.2854804116394964 0.8204476746548829
Cd 5.749060781181459 6.2786344717790685 1.429564622440737
Cd 5.180324083074425 2.0717050755557707 3.495420888628323
Cd 3.398378238423775 4.568333721190839 2.754392581579464
Cd 8.04499065936215 3.878994117626022 2.2490388780236614
Cd 3.4627761634996714 7.669313562662536 2.6692540083043697
Cd 5.715447504572146 1.4604444722795062 6.263217919781986
Cd 8.478493233735003 6.870595476512219 2.311980891159145
Cd 1.661851858093293 6.042948183036213 4.6398473877053545
Cd 3.4039009161883067 3.637479357805358 5.766257401306331
Cd 8.155247755506306 2.8708861172796762 5.1253092178207
Cd 2.944790049025369 3.48985623698008 8.780014853267119
Cd 6.021509125340113 5.056829667571681 4.312773687569519
Cd 1.8009580123503086 5.931035198267654 7.655024792849458
Cd 10.166157483873619 5.004508086534824 3.993281279839486
Cd 7.725931863397339 2.5743235541589002 8.234643587267742
Cd 6.518685636030059 8.48588380917889 4.04097870407193
Cd 1.8253219111594088 8.712197869635299 6.2558394377236235
Cd 4.9040069348503765 1.3672963455517193 9.055130468188128
Cd 3.9465344074771016 9.91416801629274 4.494977782929191
Cd 5.8637277883136285 4.7116894499215745 7.29471373346697
Cd 4.4282909736147875 6.94831419249882 5.974107919081063
Cd 9.769443215906835 8.626647380957971 4.226474501580869
