49
Energy = -21.56933592 eV
Cd 14.468724497200249 11.053852129151375 3.414863941579962
Cd 11.746414397537214 8.272530803363566 5.686783531047683
Cd 15.831286798289634 8.580508242415306 4.360448967195143
Cd 14.369197944994642 6.745156903166544 6.1483330106430385
Cd 6.814548960687524 6.911240656084906 6.010686336900735
Cd 15.123450599356831 10.089390893477496 7.06745702656597
Cd 12.637618026357645 11.266429754348865 5.704791314353638
Cd 8.929185901932057 8.452667270871904 4.76440948689508
Cd 9.737096438442862 10.892635146094664 6.208629607216246
Cd 4.671153780989651 11.759721217506426 7.6197737208291105
Cd 6.693839134037383 9.975007884512463 6.17562502096707
Cd 5.978065110118486 8.006244072455036 8.534799545852174
Cd 12.233217669914657 9.250568125172869 8.437817148408199
Cd 7.659463295393365 12.911879999817218 6.698663359302473
Cd 7.660314116544502 5.413776278871364 8.479329352533734
Cd 12.201560191353495 6.153106965688148 8.136038512679491
Cd 11.098516716155462 13.532874806338901 6.9996482347652265
Cd 9.789026388221071 5.976214318845496 6.5226716560672555
Cd 13.532217456470372 12.420655548429751 8.46160924063438
Cd 9.212103214929277 8.601982704888922 8.32333629587933
Cd 6.224605750189476 13.784327544867942 9.187682971557702
Cd 4.740946687102322 7.09841943140854 11.052624667411193
Cd 15.595597271749275 7.564250244418341 8.682754901004337
Cd 7.389057242096638 10.80138949502968 9.299199279879952
Cd 7.856049972822477 8.416486558271874 11.117322816827027
Cd 9.15044571398581 14.518425927367229 8.954277643441504
Cd 10.346515283834604 11.51729336648369 9.358358467496075
Cd 10.084830761750409 6.229745353569162 10.34192641844327
Cd 10.802315192834731 9.116510905300348 11.103242934924914
Cd 7.1604215814757755 5.163708682821109 11.310258201932491
Cd 5.778809845595278 12.120429526581336 11.643479813930805
Cd 12.774218933371719 12.02298278856417 11.33981398079217
Cd 14.514660211520741 9.881651008361539 10.269098824020974
Cd 7.49283598712562 14.621487246077638 11.723219853576627
Cd 4.1704330513628225 9.959497542577049 9.99307015625327
Cd 13.430621845287224 6.984455726555714 10.73771677998273
Cd 10.346690849386187 13.692161790944553 11.59300147773335
Cd 13.25508454158441 9.50101525811453 12.955782965955267
Cd 6.142692811335855 6.650139472525362 13.662036797967053
Cd 8.761522835789068 11.118060589916642 12.119517390487799
Cd 9.194446323517177 6.465858089055387 13.358869841043742
Cd 12.062813865569133 6.7206794494910245 13.277255594728826
Cd 5.187416267307517 9.522002223712203 12.889546961450202
Cd 8.762678426559143 13.878229852473021 14.256556767916893
Cd 10.643234811829293 9.225780346224218 14.290171710566346
Cd 7.771384698713766 8.92667985559095 14.511872647869666
Cd 11.475625213414201 12.224534851629334 14.03629351617792
Cd 9.151404648578621 11.354043532532028 15.813241297125579
Cd 6.4963197307457525 11.803990613395769 14.516771004547662
