47
Energy = -20.29103611 eV
Cd 11.741768674938903 8.569085319753928 4.259134341375607
Cd 8.842979763246534 8.370987350964434 4.439813714193384
Cd 7.8075748567442 8.038160669576444 7.20787682057578
Cd 7.735613909756553 10.855901586944098 5.599435492050068
Cd 10.690738225702974 11.233443822535138 4.970413351387501
Cd 13.096219761472645 10.010593431625978 6.45232737194837
Cd 9.426570667376225 13.59687798215428 6.049578827891109
Cd 6.510183429620857 13.080049115880986 7.119295275515432
Cd 13.998815033436568 6.090321819431117 7.738123836794075
Cd 11.200564739624667 7.635972682352098 7.120540143317379
Cd 9.145262501926048 5.590869215498313 5.950425256693181
Cd 8.014832226957385 15.873480719030752 7.246862865885164
Cd 11.003879751893964 15.43731060542206 8.158141378680812
Cd 6.468956885047635 10.351341876048751 8.458798400377312
Cd 12.697754460836094 5.791235928221297 10.469073665805485
Cd 9.981373932309038 10.31509251390551 7.816839823918586
Cd 12.293290923687955 8.82863409038723 9.688525988319752
Cd 8.872760907860268 16.265097842053827 10.087443037405814
Cd 10.907455602660395 4.769942061272472 8.239936804340017
Cd 11.708027005876232 11.734875401775794 10.13738213715725
Cd 7.762811381031187 4.911206691430767 8.476005386137787
Cd 12.184082384627157 12.88036570031612 7.280615189222568
Cd 9.017140445521408 12.892004286184054 8.987287156689847
Cd 8.78194918484641 10.41806301799439 10.539135413751008
Cd 4.956148650203559 9.593560231388125 11.136756793996803
Cd 14.442218297407184 11.320071784548663 8.65404314557915
Cd 6.195076409982577 15.03092177180463 9.435712792335574
Cd 6.034765661989112 7.334116060611293 9.4913151381413
Cd 10.17767284242733 12.160706426082644 12.783428209313422
Cd 9.435680071027 7.588123060586316 9.722524607099006
Cd 9.88819559425643 4.958314700751265 11.098236299718057
Cd 11.138188895763676 14.638799703363125 11.170151317532248
Cd 5.646894457663956 12.359777904076566 10.537617008478325
Cd 7.280800140964681 8.101166573834343 12.128323564229078
Cd 10.411788490693453 8.634851780357593 12.273820125214531
Cd 8.024765868064573 13.837755989016044 11.72225361673221
Cd 7.181332597821735 11.11738419391291 13.051782533955462
Cd 13.873446788010162 7.93230085257168 12.154453564701942
Cd 15.256724086686955 10.425198946116637 11.245473993785158
Cd 6.910649546741034 5.056181953418536 11.324404093792447
Cd 12.813147567711976 10.77908307257965 12.91738856136034
Cd 11.703817829750797 6.001343812815608 13.398005437534621
Cd 7.796913772320832 8.862261506128474 14.99535951720831
Cd 10.420571335101386 10.274152451761964 15.022525605219553
Cd 10.251414437950235 7.271541553122375 15.742780595870052
Cd 8.546413091179932 5.9014676463934705 13.735089467030686
Cd 12.89670914683774 8.453946531555621 14.939484569296638
