45
Energy = -19.3187124 eV
Cd 11.701637389430138 9.415188033212281 3.1788283679994627
Cd 9.496282446084445 7.731944813991441 4.073827806734999
Cd 14.679552629123709 10.279440826283544 7.5344673443838825
Cd 13.61842042172967 8.019426717018574 4.971760440054432
Cd 10.569183914086784 11.596363816032808 5.007020361567778
Cd 12.79724618321384 12.579082523527106 7.0603420814750795
Cd 8.89664018388579 9.970348964449869 8.02834686933166
Cd 5.2157193489606 7.64317017995401 7.3042280740964705
Cd 11.096763441188608 6.351657967122673 6.195415130117804
Cd 8.060191242832339 12.384771476418134 6.311501126486158
Cd 11.576764816080383 9.4325425184063 6.984969915665452
Cd 7.712026582831882 9.89128313080388 4.779531023227798
Cd 8.230978274527182 7.171673101930217 6.780629440655424
Cd 5.889391726179559 10.45966410593989 7.228390462875744
Cd 6.297475781392288 4.90506857297451 7.593257228784163
Cd 10.662879838102043 7.6937154936151995 9.300494397242694
Cd 13.732428875709298 7.095871080763435 7.7699398914086615
Cd 7.438994351607153 7.8391753679860114 9.653327587374758
Cd 10.180923526298011 13.319963218949672 8.12359291322168
Cd 11.1516184223228 11.135420432108418 9.934011923992687
Cd 7.106633253444874 14.03157388117075 8.52768952213622
Cd 13.749249515107957 11.02978122187273 4.679555883172677
Cd 5.728743673261598 13.820450359607552 11.257861252609791
Cd 9.128619376122021 4.846082713361587 8.661934685703914
Cd 13.740148831814567 5.81984594239368 10.566540552813088
Cd 4.574401795171977 9.138056828935426 9.938506115141273
Cd 9.319096137690304 9.232334211983328 11.604906665769159
Cd 4.332851255732097 6.1290169009157145 9.783471266421309
Cd 7.204982993582045 10.838887678413219 10.22108795804918
Cd 4.544960026117924 12.417808359335396 8.887655633222327
Cd 12.033008330354651 4.586675072861824 8.496669088581498
Cd 6.132705225630158 9.481642206518114 12.80448691969359
Cd 13.555852182507289 9.034611029653822 10.050864837361898
Cd 3.9254556444858535 11.449325148183828 11.73052759851295
Cd 8.903418641132285 13.279091190501086 10.822038965785092
Cd 11.797422771729964 7.075024352177396 12.31649901713659
Cd 6.753917515147691 4.4260442828854565 10.478281291917261
Cd 9.136767560039365 6.067943757867575 11.503548192666354
Cd 7.284498895705491 12.310288893982321 13.214080041933858
Cd 10.376986918583814 12.03289001886142 12.942295829478555
Cd 6.037217292886131 6.5828679225675675 12.350037474300263
Cd 12.412232198093033 10.016086560571544 12.53508389815287
Cd 8.309845015130362 7.381674701222947 14.089788200247208
Cd 11.02912129867528 8.558281025824071 14.781871664379144
Cd 8.706641559939786 10.327840700515582 14.770732361790218
