42
Energy = -16.77627293 eV
Cd 9.445358872880021 8.058759778222015 3.026724881025993
Cd 12.270533542204179 8.320575951640826 4.397492648843792
Cd 9.918648703117643 10.924997734331804 3.4488887316198613
Cd 7.764794860052219 7.832854564834792 5.507809809179226
Cd 8.396635450750297 13.35303741073591 4.854375016146076
Cd 7.142407680405558 10.704684379269443 5.15048459395237
Cd 12.994059395587836 11.152024568320938 4.207047417032921
Cd 11.261790698980647 13.471070715297975 4.4936268345465535
Cd 10.496389573639739 6.028634722231128 4.991631829786934
Cd 6.044072872919936 6.125770062782479 7.120060021932547
Cd 10.021755056487901 9.967309684545981 6.45158157168445
Cd 7.005516957379046 3.2688453194240643 7.264227515078286
Cd 9.584370374907156 3.35231212550083 5.839578426749964
Cd 5.008078856985272 10.868414066071004 7.400730550201846
Cd 7.687048473899248 9.428906430045432 8.265912875134775
Cd 4.579871720410869 8.24265317958963 8.597776825690095
Cd 13.602109070376097 9.910187644212115 6.890999398801569
Cd 7.258491019182852 12.94329939980063 7.478113437111512
Cd 9.061248865003542 6.075331486129642 7.797822726861163
Cd 11.717706684523746 7.631401822012884 7.419562373577701
Cd 12.001858525256461 12.589381003380957 7.211399888579075
Cd 10.382418312089568 3.491040488133183 8.783668931363072
Cd 5.760139284538785 12.475774011965223 9.964677008763747
Cd 9.998155852547285 8.30992496958127 9.894137176648977
Cd 9.638998837179592 11.853057629352998 8.820040553627221
Cd 5.019608151724827 4.193794034578196 9.36302951716003
Cd 12.357543520520116 10.4692772347787 9.469689925541763
Cd 12.0045433003762 5.743141841644401 9.793191683797744
Cd 7.793363876211994 3.584387284449322 10.32220052584237
Cd 6.214574204089259 9.587311661876594 10.98823174178961
Cd 4.142068510535515 6.524283783310233 10.943067240963794
Cd 7.333873852996566 6.848331824524018 10.108828232849108
Cd 11.123097629930923 6.875593050162337 12.417418547639057
Cd 5.7756260732531475 12.276395440954218 12.894125322683065
Cd 8.54766893878588 11.601019685310689 11.518703826332501
Cd 11.197275138239162 9.96485588603136 12.068579385613933
Cd 10.276492600173766 11.696420818280952 14.221599997389957
Cd 8.65052845969665 5.334712800142207 12.494369107522784
Cd 5.615114394913556 9.483108082676168 14.019923057414438
Cd 6.076491957874864 6.750823519609057 13.155760339108795
Cd 8.612983161225152 8.722596295041177 13.167742638171873
Cd 7.584987916314345 11.331998837383814 15.143469094407541
