46
Energy = -20.74623252 eV
Cd 7.231288934745164 8.044701819437597 1.1685432834691332
Cd 3.5641997036351953 3.8872727511384233 1.8411574459350133
Cd 4.5571861722474285 9.115911515835105 2.184744726903213
Cd 7.651376828837997 5.039144266295923 0.9467642193128698
Cd 2.5804277736576866 6.821363206117262 2.5038838064925937
Cd 9.321317782856944 8.979095977264627 2.9787318339313296
Cd 4.884555330790239 6.285122607384812 0.7744617356097165
Cd 5.4466501088661055 10.743889493153723 4.6476150821749735
Cd 6.3321360206191954 2.5221995033835722 1.7900646574557937
Cd 9.122221605074461 3.319144376408023 2.9601239873969893
Cd 1.4677443250770277 4.376304448041435 3.8651693067109294
Cd 9.860334835344489 2.82144072705064 5.778708185192466
Cd 4.159788825711561 1.4836982584644138 3.4760040343190832
Cd 2.4753890427141134 9.568422436413615 4.298932272266469
Cd 7.148616393798365 1.7555075783902507 4.542712563327178
Cd 10.078301756140089 6.1394983622973465 2.575375753213512
Cd 0.7766536537564702 7.145614702389384 4.8226786614078785
Cd 4.129810225288679 7.068080803405144 5.33287876394699
Cd 8.428416668967815 10.354589059663928 5.421736773025919
Cd 6.677195493161504 8.022300413116215 4.163248345854815
Cd 6.010357589366447 5.146310598681023 3.641831402541898
Cd 1.2919460590348937 5.01836845725632 6.908912079139447
Cd 10.581711300816691 7.801099592054042 5.4288534534060355
Cd 1.9401398106758643 1.9320928751121351 5.442639019715773
Cd 10.79664228262882 5.439179958872106 7.203676904223019
Cd 1.9998929262748315 6.16552883662066 9.82693237591057
Cd 4.232882434122748 4.047447814008943 5.617852378164463
Cd 8.550198253127236 5.608221502462871 5.107544256470443
Cd 6.847544569828206 7.347958979520713 7.027607087385784
Cd 4.530320761862795 5.885867331603831 8.005878076952799
Cd 9.48580681769312 8.82449548206723 7.977180422485509
Cd 2.513805585403289 2.6972507566205524 8.259365589693482
Cd 6.848090096910167 4.257169163822675 7.079275007283189
Cd 3.7144655994682405 9.99817217052206 6.938553310064956
Cd 8.725323532358377 6.206531881996662 9.348089376248282
Cd 4.842864698637118 0.9156405307940727 6.301198829534289
Cd 6.482256990182926 10.435641020827449 7.6524183660827605
Cd 1.769658694327538 7.943463176598385 7.494337581682249
Cd 9.396925560731068 3.28836082935401 8.750221180496329
Cd 7.754364198397278 1.1914065658949529 7.3848062362227616
Cd 5.3454225430890485 2.0574472146939367 8.91506790186507
Cd 5.788740288121323 6.536588880357398 10.87782894208679
Cd 3.9509825809415213 4.119436851933969 10.552487146531742
Cd 7.286402495324676 8.854517126658402 9.995174029327163
Cd 4.164947103579655 8.69408668876335 9.538992102391285
Cd 7.06348331862452 3.9032009800684504 10.458529078964862
