41
Energy = -16.60026671 eV
Cd 7.470187287368783 9.110085579717188 3.835228318612421
Cd 10.451580076971128 8.617609502043324 2.9595578000875595
Cd 13.037139494614044 8.221350709905293 4.426077584985737
Cd 10.40211899161262 6.07948091695997 4.508570203231682
Cd 8.002892497887252 5.22144341817983 6.105702751355231
Cd 9.727559188763726 10.64097579462404 5.124618585822703
Cd 6.010316107185089 7.183036194737446 5.508051547306345
Cd 11.722513867626178 12.294726426973028 6.623752856766518
Cd 10.644133911761333 3.870775607338124 6.5411332290437825
Cd 6.340980682993081 13.729995756559239 7.735345137358244
Cd 11.823152739961179 9.25600670513227 6.99862300341653
Cd 9.070275835723516 8.053241146260953 6.68730111085463
Cd 5.097298914414394 9.630260477710243 6.7179924804053055
Cd 12.48586588535577 6.283690685310011 6.856105869128462
Cd 6.840140739061951 6.550786554947817 8.662696252617854
Cd 4.65229908173289 11.623558256187355 8.935378784729137
Cd 10.202410218647724 6.2943033558060275 8.900207768463046
Cd 7.731813035558355 10.629838623457275 7.483691520660076
Cd 12.046175307535444 11.08198144524953 9.33073426695684
Cd 11.248506776780014 2.8995141310658363 9.24752217176855
Cd 4.876272233243561 8.595905417072125 9.565777383046335
Cd 8.979658414377644 13.295463459671476 6.649723213248244
Cd 9.265440012821772 12.36914239066748 9.630676541900089
Cd 13.395459139300923 5.003384083224634 9.538828230815216
Cd 12.813228568270052 7.969035302221377 9.570127853591007
Cd 9.306438789011041 9.092330710173984 9.567235656318882
Cd 8.3565334439689 3.7530215473310755 8.705318944211411
Cd 11.392128267487026 4.430939481231689 11.815597355542739
Cd 7.055065840284638 10.55279572510583 10.70854755876512
Cd 6.429342396954488 13.647444779837276 10.693763672105964
Cd 8.490395219154344 5.244296807000249 11.320370029310356
Cd 11.165992391699154 12.324526235643052 12.016167058828152
Cd 4.369556574233104 9.651467546950272 12.338495084241849
Cd 10.654391800800662 7.315940567189827 11.853339394788344
Cd 12.484538437576608 9.669553785841806 11.966368087912603
Cd 3.5495297362512575 12.448581153682088 11.602298231781822
Cd 9.433641481880864 10.004011177191595 12.670173084404249
Cd 8.623971206021844 13.607343168603173 12.729172407949282
Cd 6.655215459836175 7.44981775287701 11.72224161985605
Cd 6.954263190428784 9.440318860900591 14.077300106930055
Cd 6.068414177392697 12.188856181968609 13.397024663431921
