40
Energy = -15.55818329 eV
Cd 12.047902407536753 10.741703018750494 2.739707838678559
Cd 10.092368265457765 8.53371707501953 3.3132691993786683
Cd 7.624874254755124 7.2843923049356105 4.468585059610888
Cd 12.900360676807297 8.350284963930285 4.655430228782286
Cd 14.517273527041171 11.070633699477334 4.718568294134263
Cd 11.228802804580472 12.924105026018475 4.5559645008004015
Cd 5.393861687778411 8.741824664697731 5.570057941380071
Cd 13.80802429134496 6.0839626511886395 6.390645219297734
Cd 8.884538007587347 10.015008056443635 5.5880252748960615
Cd 10.851496668984463 5.923607225522152 4.986588626910667
Cd 8.273718799410881 8.322816820574767 7.967461931779483
Cd 6.568210184696002 11.16606264204549 7.200750619868622
Cd 11.905861306449372 10.787235342762333 6.650183238481837
Cd 11.144161773266505 7.982607749140967 7.294784956819783
Cd 9.25653938211946 12.739200909374542 6.69748634857402
Cd 5.73622554118087 6.546546773888701 8.065617926072706
Cd 8.442916651744397 5.540323196880815 6.749157105419935
Cd 5.98347076567081 10.922492574002376 10.263220137834947
Cd 9.290686229010284 10.022084329521 10.145992221768687
Cd 3.807976450480774 7.105156903863075 10.477926345173056
Cd 13.102604489216692 6.547917112707283 9.29187071909878
Cd 6.996818590050384 8.005550696544033 10.65899220529689
Cd 6.08012050638284 5.079821465588107 10.811932032510388
Cd 12.703144782114151 9.541917429080733 9.552998588773258
Cd 7.923137849406757 13.070650278057132 9.35379605544884
Cd 11.065010682034522 12.21810888405826 9.125557357559618
Cd 3.167296821653607 10.024162165400963 10.968229431804414
Cd 4.3302225177476625 9.277938289129313 8.274798676021057
Cd 10.267033259335307 7.014915103976091 10.098054039107558
Cd 11.720507846389921 10.867915379177386 12.105091047331328
Cd 8.709148976088825 4.467572898665206 9.419077380310013
Cd 11.552770078879618 13.862300937373046 11.5339652284671
Cd 8.779025935849749 5.555044336801492 12.245273712220241
Cd 7.6239129907445635 10.250046226954979 12.89872265809097
Cd 8.914474149899162 12.724468533920891 12.144621851936144
Cd 5.045855996651151 8.727503674549514 12.990150179760821
Cd 10.371387400111288 8.341890775659115 12.814313761265787
Cd 4.016741662496791 5.882480861918821 13.351652461989563
Cd 7.775944188422618 7.573685701556597 14.22218325010017
Cd 6.6227734223957215 4.6895451426159 14.166498169018675
