41
Energy = -17.31092299 eV
Cd 11.692986551640494 9.780601635716415 5.1764872164849685
Cd 12.85539092707841 7.144897685536274 5.749478164663115
Cd 8.121066757970937 9.613985579231752 4.808845341474621
Cd 10.015512444314647 12.036053449170222 4.53609484835335
Cd 6.863441205846669 9.747819253604389 7.597822446109377
Cd 7.609595510420967 12.324066890159902 6.186233301883064
Cd 10.47869085741132 12.943080736346765 7.346661076038674
Cd 8.572821117866232 6.885531564726588 8.371156528330111
Cd 14.274879660518485 8.16645243452552 8.045239461231823
Cd 9.950579185642912 9.664221320219756 7.731510190350428
Cd 9.777134199530293 7.311150178395143 5.619409310667671
Cd 12.81332984589394 10.798100626483013 7.84390616992487
Cd 11.551624320576304 7.795375556953366 9.443256452373081
Cd 5.99357124155486 14.147419498221685 7.775100342053508
Cd 9.54478752223225 14.547938003853634 9.976475166471335
Cd 6.030144565197986 8.1822227350011 9.866316722002876
Cd 5.565495813844808 11.257852805259226 10.25077685156913
Cd 13.446021517274488 5.103970380173273 9.505909164099654
Cd 8.880039242775375 8.857342270876666 10.789185531276567
Cd 11.152449235348158 5.34466868438523 7.405130363816911
Cd 14.739561334781026 7.316716550962174 10.87582927878005
Cd 8.497389815001036 11.702179804540226 9.347569146109542
Cd 14.6324386315184 10.286263109286477 10.295264132683831
Cd 6.6041419612921315 14.173973959652148 10.64651784841686
Cd 10.657856856323368 4.418029676325915 10.209350887554283
Cd 12.312256174773882 13.274858288322694 9.660128444942247
Cd 8.548229028532365 14.625297422252144 12.92450606394332
Cd 8.070395569377315 5.523004959958988 10.986859253415766
Cd 11.39399027261847 10.5577339705185 10.590919426912686
Cd 6.2715909615884575 12.494164871256029 13.077058510750145
Cd 9.195989727625772 11.434494521766762 12.339521299598225
Cd 12.880650739519073 8.790521130707322 12.585281860538323
Cd 14.182359023897583 12.62820746507564 11.97280161666086
Cd 11.412383523509732 13.957539830527033 12.49522904405093
Cd 10.724529190531477 6.716742818001195 12.228962341898306
Cd 12.178103310972826 11.42369785213786 13.83272933000788
Cd 5.691419274625113 6.617108547068898 12.320013947808858
Cd 8.568954669388503 12.50777306147823 15.228583957413509
Cd 6.272469203257242 9.59729678187376 12.794545292364472
Cd 8.190868851233631 7.4299502620097915 13.674446842146676
Cd 10.233820171357337 9.32065384210258 14.337846839494059
