42
Energy = -16.28326942 eV
Cd 11.175420885724332 11.422983356102938 11.91211363912915
Cd 5.601666438446092 9.397965958404322 8.007555951418734
Cd 4.839674172569152 7.813551028536904 5.393325926760103
Cd 9.80570534176005 6.242129937284181 9.863030810185084
Cd 4.410136751819861 2.1545550550069987 6.387035174884911
Cd 7.818635157909819 8.970319771128803 5.996930225605243
Cd 5.317913934749987 8.509355980310136 10.867060299787013
Cd 4.56968509471045 12.269760275270174 8.6149889542262
Cd 7.86453743371254 11.610622581957392 7.736273011697945
Cd 7.727470927682624 4.022362717000582 10.39958654631793
Cd 10.490233886176032 8.48936515390604 12.198503354802789
Cd 10.534879117015524 10.723202380732328 5.976652169161132
Cd 8.213878239545226 5.86454113102969 6.244547307005735
Cd 8.134831227493708 6.570009467619986 12.342922775003863
Cd 10.561416405895457 7.839848254573116 7.009241845098872
Cd 9.972403658615486 3.595793085209357 8.092937752351013
Cd 10.994458943083426 10.614243711691362 8.857771450779518
Cd 7.170191772712074 3.2402279931588507 7.330831659794494
Cd 9.894500961686715 2.1368283826219807 11.148539375740734
Cd 8.107309087123076 12.001464408180523 4.733647052293793
Cd 7.315952107790211 7.2576265486820875 3.3783415801665293
Cd 4.818317154674688 3.46559156870515 9.322341253852946
Cd 12.485411499442769 8.274632879640683 10.060783025198752
Cd 7.878387984715905 9.801624595763078 1.860721215807368
Cd 1.76817138272766 8.661161782255594 4.101408468040681
Cd 5.534365616706068 12.782338634552904 5.882872925692202
Cd 5.161674652141875 5.5338527429154025 11.384870199605299
Cd 12.513839381748749 3.263429134572478 10.149218209719933
Cd 12.51451050984716 5.771116396816887 8.520649617185226
Cd 10.277996525802378 8.894130302080685 3.6108634451794717
Cd 5.552815815054209 7.27004164702706 13.835471528059074
Cd 4.858430528010594 5.2803473066293565 6.751350006096804
Cd 10.01825713490419 5.928983986892152 3.589045323846345
Cd 11.503658360111995 4.945514838876384 5.865522212170495
Cd 6.688054292035808 6.572359214022425 8.82969490513653
Cd 3.586005435501144 10.491592553729724 6.047880885920505
Cd 8.572988611231702 11.976937135954964 10.56533876748313
Cd 8.440822382078553 8.948274428772148 9.229938052615571
Cd 5.637351232674447 11.534229093431986 11.174448441186751
Cd 10.133921768672606 11.812980772863003 2.489185145234482
Cd 7.753204936773478 9.629418467477102 12.299551713987494
Cd 5.701789424261247 10.335561513952277 3.857883971107944
