42
Energy = -17.28492957 eV
Cd 8.434560381964175 7.117998622746804 4.8072986213327615
Cd 11.317636893382934 6.368942595151056 5.233906115178122
Cd 11.281158012289199 14.113873946602443 6.745999970123756
Cd 11.483140009569004 8.969148505572713 6.811505303981923
Cd 8.58736462278278 8.687446950723727 7.451961389313846
Cd 8.957314206727483 4.942004325145147 6.836872716911807
Cd 6.293455262359487 10.620787163084835 7.354508001591242
Cd 8.918268145543973 14.667307651988684 8.420057764900971
Cd 9.366005359116844 11.58094229796152 7.225544495381865
Cd 12.588518089368595 11.545696793675086 7.483703586875802
Cd 13.861493887626786 9.402212626314828 9.129130487464776
Cd 10.588779387630602 6.721512376669323 8.87124463620001
Cd 13.112409320578598 4.320466651333563 6.377174634110592
Cd 6.396100273836746 13.448808398958127 7.828307153482782
Cd 11.186252170518328 3.4371421677557192 8.345324596329677
Cd 13.715517814523848 14.263789393626952 8.505693937437425
Cd 4.8528585270753375 11.848675409452897 9.905018829123112
Cd 6.710245203892697 5.4196000827973645 8.905960414943516
Cd 5.6879100567533545 8.062030046509829 8.537010207871544
Cd 13.570222272793371 6.783434286864994 7.902608069645103
Cd 11.400489800433814 16.158915086914412 9.148584977242496
Cd 8.091777672758079 10.867362401811588 10.083746037018239
Cd 13.888819057787858 9.749453695149414 12.30600570865149
Cd 9.058178090503247 4.187107796315204 10.188003604043033
Cd 10.803941088426374 9.565868258122668 10.041976596384997
Cd 8.283426432890565 7.923127860907226 10.518712029003346
Cd 12.836361412854279 7.207334660868125 10.919391569321293
Cd 10.556359599962406 12.541619292288338 9.982415075150533
Cd 4.907539806003155 6.428418300093587 11.253008212554306
Cd 5.445640965936336 9.334485462871811 11.254547271697161
Cd 12.594664925242835 14.624346050601636 11.480319208822554
Cd 9.705150029181205 15.277661112552563 11.52852111406021
Cd 7.177395061822479 13.775641621123134 10.77046428656407
Cd 10.333183870876898 6.072512291716074 12.138413739357313
Cd 13.560586514287893 12.00477512518689 10.46548081727264
Cd 7.470203556583865 5.3803428722883275 12.436422296997184
Cd 6.059599157962453 11.711960133216138 12.829788836955728
Cd 6.599948304447051 7.871000673410974 13.70077590842252
Cd 11.469226880152199 11.593078865015348 12.783571729051085
Cd 8.718623039666639 9.922228117173391 13.058895734637913
Cd 8.820671609218822 12.940382448407599 13.165798941286921
Cd 11.32819928184938 8.559753638211545 13.285521430486124
