40
Energy = -16.03382247 eV
Cd 9.73058484554663 10.953901760855587 3.694414370390909
Cd 7.14907892470445 12.325899593771561 4.568688079371046
Cd 8.376886847697671 8.362397668620888 4.3162092781203
Cd 7.085077276143133 5.694542533319179 4.360483894034095
Cd 11.988573915193504 11.199459448160768 5.718133543508891
Cd 9.705413372502514 13.419513003088598 5.694241767642906
Cd 4.452808871986433 11.87067143717898 5.7147229769006405
Cd 11.341555262429944 8.413456584186589 5.158915871768658
Cd 12.753584740862426 14.064489911997198 5.264294692817018
Cd 9.698401223353866 6.010256117052194 5.9956704425442915
Cd 8.251613085612506 10.221988462625125 6.687204687999289
Cd 7.754372118373321 12.835472028778481 8.123432111426323
Cd 5.942044846028786 7.9551426823250955 6.083235428602428
Cd 5.295551715482044 10.055338322434075 7.989798360343959
Cd 6.713000941795356 4.9007400134710855 7.108526122663824
Cd 9.192483484213845 4.608375267196245 8.764142281912859
Cd 8.334564393759669 7.559866266526087 8.234338088551649
Cd 11.1065060579619 12.514384685933953 8.282112090028074
Cd 10.975467972723507 9.466823574145117 8.112226203304518
Cd 5.267881088201938 7.022941552176168 8.959947222539341
Cd 8.03496965010874 10.119343712968146 9.736695942949927
Cd 5.48482312638239 4.012408482802998 9.658998282697164
Cd 11.881468037600962 6.5865622597709415 7.924869549712528
Cd 11.377643101859752 5.056842316617929 10.637655984523027
Cd 6.942359781428672 13.948912233497973 10.833125823229189
Cd 7.8848344904782515 4.032288324950129 11.46216602052281
Cd 4.900127731427857 12.06369572451233 10.023270505632123
Cd 10.215305607337754 7.918259980238028 10.651031754008601
Cd 11.651945884078643 10.619078706726938 10.784602208382408
Cd 5.337543489361694 9.2119011552343 11.056667978734513
Cd 9.485043151818825 12.562635832590672 10.821503416061272
Cd 7.4143560692376544 7.112770097737374 11.294158455976165
Cd 14.024168847348644 6.727243489482443 9.938019606198864
Cd 13.906893251877284 9.05343539956704 11.675554130156181
Cd 12.422316897687978 6.783537992428359 12.95066401550056
Cd 9.02586931501232 10.208956681068296 12.699048974239636
Cd 10.22100072605891 4.579378289443867 13.355591934388466
Cd 6.430968098084328 11.525429393861431 12.661867822206212
Cd 7.358232641628268 5.547301982817045 14.020696558205554
Cd 9.592150601962908 7.581828515194367 13.690545007559221
