41
Energy = -16.79262973 eV
Cd 6.085420790100141 8.392799725131084 4.608745631410689
Cd 7.6723280119118735 6.098870109355916 3.537457975657555
Cd 9.825452363313758 10.246006765809131 2.6439934792500535
Cd 10.427988656980963 7.26886199438087 2.9707650760252835
Cd 7.320483974534303 11.183442283551296 4.291948775420297
Cd 6.959025258714737 6.334835035583979 6.84560684601184
Cd 9.823604784586582 4.427436390880053 4.55237600706987
Cd 9.12197765682632 8.395340803956996 5.441279295826572
Cd 12.394248182775701 7.174799292356763 5.259864883172587
Cd 5.144547073752752 10.575851780201827 6.291747017429629
Cd 8.874370496620463 3.9335822258218966 7.3469120639430034
Cd 9.991682724112806 11.235932433475075 5.740846598465913
Cd 12.269383834579473 4.408803191134673 6.408512965458631
Cd 5.143163858805013 8.325232482040384 8.271839581227798
Cd 7.827193110083023 9.724157562962493 7.7052033511416065
Cd 11.67793596181397 9.281129221908486 7.335181363657674
Cd 13.589443127922129 10.923596098321669 8.84236226387253
Cd 10.123417564243828 6.624884241952154 7.512685013699269
Cd 10.875225182726759 12.419950898132882 8.32446513606529
Cd 5.62833975636586 11.950868940456145 8.816074730966552
Cd 11.781825220136648 4.380063312401628 9.31230948690986
Cd 13.4199316751711 9.318116826963768 11.33915254577815
Cd 7.030156843661593 9.78207749379746 10.663050937815116
Cd 7.950738117215264 12.933154571060195 7.054811430145041
Cd 12.076653857554145 12.066035096022542 11.167700819905374
Cd 6.525375583391474 3.8602924919171686 9.072746872427066
Cd 4.213306426432381 11.75177891294315 11.342857011234411
Cd 9.918299431764462 9.837431507224007 9.792234620595655
Cd 8.261554104830847 7.284213327447114 9.656342365532845
Cd 11.700621621796119 7.268444054727417 9.99933921033097
Cd 9.143053100908016 4.382064918477479 10.507431790886972
Cd 4.1185937219100675 8.768780130763792 11.064470198464756
Cd 8.414463374958514 12.579853518770326 10.060807894549301
Cd 5.585426662361917 6.178212961643759 10.540689920530575
Cd 9.79557143023197 11.804412478664757 12.921449172522099
Cd 6.87372956403377 12.311510521824546 12.638714546062639
Cd 5.84257506616154 7.409622666627612 13.217634827673573
Cd 10.641731188202314 8.683507617022833 12.512348030397181
Cd 8.661097105723064 6.415018696357953 12.619179282668178
Cd 7.967239910258345 9.512204338632316 13.586737750461785
Cd 4.9600901836658995 10.20408964043696 13.839389790476517
