42
Energy = -17.36444829 eV
Cd 11.42631205420196 10.87656156012682 5.086616747376325
Cd 9.828683793241552 7.993519270610497 4.8040089196999824
Cd 6.828795812433669 12.99054211580864 4.0516873497086
Cd 9.581668794333327 13.229084187890589 5.375139349069988
Cd 5.5092608655061195 10.599373633827064 5.291302141454563
Cd 8.522942457959276 10.538878074223621 4.205848761405038
Cd 7.282436754276349 8.433891816802007 6.293191598349882
Cd 14.332118133100339 10.596978828360475 5.712596551021845
Cd 12.369058236515253 8.057669697069205 6.153177783827356
Cd 6.693240879267115 13.160627119277462 6.968653511055194
Cd 15.115997995981505 7.998499954799721 7.196360514153163
Cd 11.737531858755386 13.549217636860032 7.4526498296801424
Cd 8.866360416308675 10.865930803899232 7.318547323842011
Cd 5.832538767333234 10.498577681287799 8.278963172038198
Cd 8.445811914050383 4.886021239366747 9.319828860077708
Cd 9.81457590839181 7.682081873288981 7.917756528289812
Cd 6.7399613082333145 7.68769974113766 9.099576237363976
Cd 9.063414884077504 14.60623700557845 8.098565791762772
Cd 14.593415038732546 13.129146686047333 7.485182825580939
Cd 7.5789627441558975 12.492129978832454 9.71915655875544
Cd 12.983668323281567 8.07089913037325 9.595584783201426
Cd 14.744170800369123 10.498232112200684 8.833217765752213
Cd 9.531316387903427 4.451403776860091 12.54839577536461
Cd 10.918951858461991 6.130748568434879 10.317878333767585
Cd 10.601157695290972 12.891951982952351 10.152830881844485
Cd 5.398825204015016 5.034567433617982 9.300769981883482
Cd 12.135372940676875 5.849601889587102 13.165578053868202
Cd 6.519292479357295 9.984428793670785 11.280017668111794
Cd 11.617248604098515 10.466155087359365 8.147170951244094
Cd 12.897980105450168 10.942856175733816 11.025899837208291
Cd 6.699673209672044 3.8743560229329974 11.793893182746517
Cd 8.363105200806814 7.453579686121249 11.682042121627486
Cd 5.137118174299988 6.8639276949550485 11.710623417234812
Cd 9.410608352601908 9.859980094615882 10.078198377855088
Cd 11.249725328431767 8.717707943585525 12.245000141970383
Cd 8.039383303805657 12.470274030978581 12.582183116503076
Cd 9.806120219698633 7.02737052847997 14.673021271545036
Cd 7.005024284939176 5.821718983278644 13.995040102313324
Cd 5.156727596236742 9.04759804658155 13.782252285369808
Cd 10.931894560917407 11.826068264015994 12.999788984550657
Cd 8.660134517338006 9.852922688043888 13.712167402680329
Cd 7.236016016511698 8.197585941545741 15.756238989866398
