43
Energy = -18.1525668 eV
Cd 7.605763963265539 2.0541723423155256 8.470872784594697
Cd 6.502043514934835 9.10807548394129 3.490434626251186
Cd 1.2358440326195188 6.907271505211464 4.501474430589391
Cd 4.672541151955916 4.4951534871819785 6.515814268423056
Cd 8.607178077716357 1.8848233211063927 5.490950947496418
Cd 2.2576245330839666 6.234403568184895 7.323129208254426
Cd 10.576841121079491 9.414606723940325 6.118816936585329
Cd 2.8380857498320706 1.480442310997079 6.5118125471420765
Cd 7.730709359353816 7.367568176097724 5.720150323072906
Cd 2.2343030386995535 9.177257009477419 7.514271701065838
Cd 4.854258146546623 11.004257832347546 5.265207729289464
Cd 1.3808523224979152 3.9622681609559587 5.461505204324026
Cd 6.078162132231756 6.622516501298017 8.1336751294334
Cd 5.267869163763703 9.580640154779772 7.817574889388132
Cd 6.780746028943084 4.198604889332815 10.327587770113148
Cd 3.4949078018180972 5.75497832358964 2.9941662985719346
Cd 5.748565419013194 1.3643472119010134 6.029324304528668
Cd 9.507115833875723 9.46244133919452 3.3121860931929983
Cd 9.631342968103295 4.402174786693434 9.02009708457993
Cd 8.356538840699379 6.891760825323383 2.3352193497924234
Cd 4.58369568635839 2.304092184708005 8.936778317089729
Cd 9.378899115081207 4.077871352802944 3.371684033821685
Cd 1.7677404763651543 3.4758362425574134 8.483564614321583
Cd 6.3262970835492744 5.239665297336958 4.101877831449781
Cd 7.932214149544718 10.85713467680236 5.565611816991439
Cd 3.8332700874192525 2.8216672008300234 3.971580026074684
Cd 10.41008108984705 6.913073674289695 7.674763151335797
Cd 8.519174874341408 6.970165057307938 10.27489591700808
Cd 3.6869615561339186 8.26372469368094 10.092264571504675
Cd 6.547319023686849 9.319291824240391 10.555002867940544
Cd 10.63137765276164 4.23336760608618 6.041735753422784
Cd 4.566042998039383 7.493313899894384 5.478811651129627
Cd 7.647195158803055 4.547823310785512 6.681224661832303
Cd 5.760511321603747 6.63208523814511 11.647019630168916
Cd 2.3503955910666976 9.619590635079739 4.616165998788845
Cd 7.656033432252337 4.26127937097541 0.9830842863950053
Cd 10.673221885903725 6.830799778557589 4.411361361146283
Cd 5.623325897286653 6.552517451357024 0.9363429498763196
Cd 3.816655442788348 5.192417608233965 9.807494882967182
Cd 3.8480903894204985 8.718277119541964 2.2574786020530975
Cd 4.732961527104998 3.6157095936112547 1.2417980248461944
Cd 8.342042235911507 9.258543474693711 8.17381876726432
Cd 6.7388244984062045 2.1676131283211326 3.0749930295913788
