48
Energy = -20.20051272 eV
Cd 10.211321289241365 9.910852070136714 3.836308864582812
Cd 7.218099378829041 5.482329369803139 5.315778779823336
Cd 8.014953073609908 11.37928156402841 5.251112295828787
Cd 8.183815052775223 8.365747327138099 5.599085997188968
Cd 10.747749727842416 12.529176975822374 5.150325535239686
Cd 9.78031093461608 6.114979790519405 7.187557328568797
Cd 5.393797066444639 12.472134154842315 5.87467476729401
Cd 12.891558435452218 10.437309637002176 5.329831959119504
Cd 11.480819115673237 7.713651973817996 5.452715651756937
Cd 4.289816053207579 5.986419294464432 7.925426760883258
Cd 9.181669468919948 12.9988992685382 7.6391803795369775
Cd 14.339342444705359 7.928069657102322 6.2214536452625815
Cd 5.8004409517428375 3.626784725213775 7.195612918590613
Cd 10.034537697465428 4.655150157677992 9.861713553879264
Cd 12.236929063902666 12.55988149321023 7.815007285787522
Cd 12.37337533208541 6.9947420817284724 8.530385707138736
Cd 10.555724666213278 9.827908198031032 7.4835286228377305
Cd 7.5876062918756935 10.18512427441522 8.091990046517179
Cd 13.764867148665196 10.053099476825533 8.304330372350071
Cd 6.424505020406434 13.678981412133902 8.615343189088632
Cd 8.6236114314289 3.2824105297759774 7.6652787215351745
Cd 15.761656928367296 7.415449141101144 8.695451948326799
Cd 7.0478475417987285 7.2311746731226245 8.167409261143996
Cd 8.728584191053548 13.954986014060031 10.585100053134774
Cd 4.5137419359970465 11.429375877753083 8.54504627376065
Cd 10.131191423602893 11.181231906667096 10.126496931934412
Cd 9.545239447369639 8.063637813465624 9.703991808106554
Cd 6.885183605050464 11.464373619140558 10.729350079805812
Cd 4.493842576897263 8.648062881144224 9.251076029530823
Cd 11.748129680037575 14.090853634756913 10.205216249747965
Cd 6.925946454308631 4.751011926711379 9.965541190831074
Cd 15.695817823936206 9.612305580889805 10.864953920721401
Cd 12.284461968420466 9.130424663427663 10.815194004867582
Cd 6.938225341777996 8.393299997370315 11.081859087684407
Cd 14.430531375535102 6.848642761095528 11.225279799116443
Cd 12.497553220627154 15.923163881191574 12.542668309888384
Cd 8.66438863835335 6.04597670941445 12.209153968032412
Cd 5.81842734191402 5.5826360170030505 12.647513337543613
Cd 13.780475751860287 11.93563100139503 10.747366762906184
Cd 11.627448563698186 6.275893787255988 11.71427714164582
Cd 9.826936474313616 8.69940883151682 12.766918628929389
Cd 3.9363976964511305 10.73790066761874 11.507900250127449
Cd 10.295973302925788 13.901519137547169 13.138145553791968
Cd 3.5785225282833424 6.189312107184467 10.861118295231776
Cd 8.709926353942866 11.389575326798218 13.04710284358479
Cd 4.415710227388948 8.185574098157787 13.031564638634025
Cd 11.775254270251853 11.279732505097723 12.83641553736878
Cd 5.951364453244672 10.59954076939652 13.784874473303237
