42
Energy = -16.91887586 eV
Cd 3.6994890571110415 8.539252695192861 3.6907889590962752
Cd 7.460292285458018 3.802291519361354 4.950370617649246
Cd 5.693124873996577 6.1785652477955155 4.222070353088782
Cd 9.634710794028488 12.478754590858948 5.993293077045579
Cd 4.897633676515851 4.488794107674099 6.642217016912075
Cd 3.946638748936347 7.549663118852768 6.6200350288569005
Cd 12.059047553952157 10.609832225823526 5.917824858624393
Cd 14.948553258853481 10.064975403610372 6.3605905104657126
Cd 6.45120119117751 8.91596421161634 5.348540639833448
Cd 11.361320069138104 7.592448985124091 6.210184046955876
Cd 9.39561803617622 9.594522507704678 4.9301644419891195
Cd 14.2648734217328 7.210381365423034 7.116326329145375
Cd 8.505422919350925 6.602032285042851 5.825813552896013
Cd 7.452111715477469 4.415434568382631 8.236413537988767
Cd 15.577059590481383 9.02204254652647 9.187364387095927
Cd 11.207137724756643 12.343162345297811 8.513397819122206
Cd 6.804385886408236 11.589727437869444 6.40171585824462
Cd 4.147753878847703 5.893137519448895 9.200627056528912
Cd 3.680645864932082 9.025676091654306 9.208437592091435
Cd 13.996399248520394 11.550597093592943 8.913997964745834
Cd 8.940728876095086 9.650554871058283 7.954810035273694
Cd 11.810709639717997 9.207115845570685 8.90727733655039
Cd 5.272312239783839 13.361306553522155 8.190561223019733
Cd 10.11372480026763 3.467152009486324 8.910406200101432
Cd 13.572123212710496 7.2233146367363705 10.386439314840779
Cd 9.699759689804848 6.7651098183320375 8.693091043155418
Cd 3.238301533762779 11.907189563837811 9.63413835261183
Cd 6.50554160044937 10.307564898192217 9.545894018515442
Cd 8.262716512635489 12.945418630563507 8.836932300150051
Cd 12.25356613927686 5.096181419584571 7.695070353291558
Cd 6.68673960178568 7.509337465453209 8.168609193903727
Cd 9.680818901196757 10.813150570146517 10.598957366667957
Cd 6.028626962196536 13.102346407111897 11.111829327218652
Cd 9.121293393728351 4.897936579338613 11.46480183166791
Cd 6.260373169332842 4.953546984643114 11.07106420561456
Cd 12.066804696091896 4.770549764194802 10.775226356323099
Cd 10.747062199875725 7.810814052103915 11.43363938146896
Cd 4.432247955975341 10.400648783506982 12.04579945060304
Cd 6.856456544020796 11.663755246315455 13.524528781014657
Cd 7.762805838823869 7.869665967353089 10.99574898938336
Cd 4.833412144777697 7.478609948420377 11.695382229161421
Cd 8.9493798155338 9.61039938137023 13.148544324780781
