49
Energy = -21.9426184 eV
Cd 12.671263240561885 10.120405111733977 5.120407008416545
Cd 6.341925990928269 10.249897867578913 5.230441098190951
Cd 8.702492491280314 12.040704912655901 4.969304395486254
Cd 11.422162898386496 7.359196996027502 4.4570989621503045
Cd 9.203114377278945 9.183147360359088 4.973493921368922
Cd 14.12583808093053 7.421605752539974 5.656637220107507
Cd 4.321820870500085 8.37781578680111 7.018585225704458
Cd 11.483497482685248 12.65898358927161 5.845687599113873
Cd 6.5748635380559275 12.681057095680242 7.181634874032975
Cd 6.541757665720763 7.308221404631664 5.26367071957188
Cd 3.4003139338076696 10.191981373617724 9.438252705021602
Cd 14.798056326737504 9.605388523710348 7.464823378303266
Cd 9.051460389134295 5.783774938644297 5.276840310674162
Cd 9.371707649654752 10.931312003588358 7.920257737611347
Cd 13.62477942749894 7.068237049107563 8.826503383823809
Cd 9.193043565788587 14.184225037308705 6.964313111508158
Cd 6.647598221090388 9.753832861579815 8.474990225131128
Cd 3.9344364302966284 11.417205420014934 6.849879852448145
Cd 12.88379767165059 11.74588148696704 8.298816721845546
Cd 5.899310727721977 5.9504030235752134 7.861788266057182
Cd 8.555919952580211 4.6193450202511235 8.06840956004955
Cd 11.543395657573653 5.682319980082358 7.02616041310577
Cd 4.818132680203879 7.597006208523973 10.061528039311623
Cd 8.633375743738112 7.768930516355336 7.765446987461465
Cd 10.63174290869905 6.755326987988703 9.864153925054177
Cd 11.42772379826457 8.81033371412583 7.566436754219007
Cd 6.861919438529778 5.192771384698203 10.588974430307484
Cd 13.948312132198367 9.74742776238283 10.364245224446758
Cd 8.132097188461826 11.166598653313518 10.677107833867627
Cd 11.186556442254396 3.5212166338674225 9.02195169187484
Cd 7.875470517720119 14.154124673831152 9.596282623019427
Cd 13.015235773840555 4.1426177013819485 11.187193702911738
Cd 8.02984626660881 8.14115731918932 10.687499063428191
Cd 10.857356057463804 13.558376262017706 9.3218396477466
Cd 5.302209176479779 12.508262450552794 9.930281227511049
Cd 5.421277098585884 10.108288915598322 11.851130770633704
Cd 10.667369957507166 9.73988834286472 10.35505831238544
Cd 8.014018639693822 5.864943477562212 13.347580812361437
Cd 13.124792180824906 6.990640043146352 11.782269550112623
Cd 9.708308378461377 4.375630968727787 11.510643021946596
Cd 12.66115217349757 9.585366205340701 13.07045885912261
Cd 6.563161772815769 14.164877904253375 12.27451942535464
Cd 7.157974260641985 11.77869927707591 13.817494668504146
Cd 12.2620686545585 12.144994993916043 11.508922032886332
Cd 10.405286945634838 7.553330932650082 13.00342426393076
Cd 5.352641792820126 7.057467779440192 12.856420558275063
Cd 9.599158659309795 13.364853738707694 12.106491993895608
Cd 7.644902274071095 8.809502194840412 13.822778760699947
Cd 9.972998041463617 10.630067906133979 13.43951467322126
