47
Energy = -20.5401593 eV
Cd 12.506961767415259 5.5855887974976275 5.151072106007199
Cd 9.628865916957905 9.295995560531797 6.012008715246987
Cd 12.43678052218925 8.623340849275287 5.3098333677740115
Cd 9.758488591391583 6.194757524629419 5.905645614454745
Cd 6.833641286782614 10.285851422653744 5.714859558849115
Cd 14.616533556884967 9.909650316676185 6.915628544968017
Cd 8.913292966581796 12.325476724762982 6.358857384089484
Cd 5.48520868074136 12.935129947180478 5.413254970200592
Cd 7.1948002371110835 7.322069928904141 6.6293226256177284
Cd 9.56395025176661 15.011918475890543 7.5349691864403345
Cd 11.649123940361841 4.831082041463853 7.994818563426582
Cd 11.329171272919401 8.090505167710646 8.473728965176965
Cd 11.678353648805697 11.114555926710034 7.2982323152830775
Cd 13.96635035607726 7.035973058457432 7.456443233316526
Cd 9.697730205275606 12.468047306967591 9.471763909302146
Cd 5.052559667090894 9.005389295839553 7.70726800071685
Cd 11.008292201930166 4.954769678967039 11.109379327238532
Cd 13.885338436862863 5.2950574886735104 9.861683594878231
Cd 12.243850515276252 14.164852159423527 8.156011656406656
Cd 6.627225039993327 14.794734433019306 7.350491598049898
Cd 8.614699021303446 9.412768201204083 8.895755155055223
Cd 6.689106500939175 11.793561808381279 8.459782215671652
Cd 6.46734568243338 7.086619303435376 9.78500039282153
Cd 7.66960873932629 14.620449579344161 10.17357907715751
Cd 5.474609110982392 9.868394392827467 10.439715187809156
Cd 12.868538462244501 7.231538548838236 11.804256709861468
Cd 11.6604799972306 10.428946947913547 10.29613749939958
Cd 12.501264547402021 13.574526970876466 11.065112623935548
Cd 7.059232019626198 13.133723591791917 12.856196098949859
Cd 8.353093670050667 10.713007807746246 11.538879993776494
Cd 14.344350089186975 8.955637239074525 9.863038191307316
Cd 9.115788170424386 6.11622982633604 8.95580159302092
Cd 14.137160349175351 11.994838031051959 8.959845634523264
Cd 9.880084845679518 13.857302806686516 12.309375936219237
Cd 5.094923338468088 12.994227022754568 10.640927333363768
Cd 4.815741639154525 11.094593962003241 13.023997871970439
Cd 10.013178528333652 8.192907507412526 11.309263050981995
Cd 14.20970627829612 9.50295104695997 13.276422513046578
Cd 14.789015279169151 11.87644299294952 11.88768202019792
Cd 9.082729900865226 11.950584452083083 14.645435317352058
Cd 6.784571359095935 8.246868325380866 12.64585021522238
Cd 6.710293695515459 10.159507433535982 15.011235273518423
Cd 10.13083949363276 5.8381843517839425 13.956259319065593
Cd 8.067132221329539 5.605286980132146 11.882430179171235
Cd 11.521512766772307 11.148334795466425 13.162980674772331
Cd 9.331406470441769 8.91449772144971 14.31187510406546
Cd 12.06503450344939 7.971287990289589 14.54585732326345
