40
Energy = -16.49760681 eV
Cd 8.957061631383253 8.056140991860406 4.18981294680493
Cd 6.54764402257861 6.107349894418248 4.140730425165402
Cd 11.497503211470054 6.753196914468276 5.449684342933802
Cd 8.330030884614517 10.825274465866489 4.900479973022686
Cd 6.189569548744635 8.696043633513018 5.601359245502785
Cd 11.044181906623471 9.607909655475732 5.918108794304306
Cd 9.388049568851319 4.997452664703859 4.20556220164557
Cd 5.050413776539299 11.390739956293089 5.527775851288273
Cd 5.5825595538056625 6.249520272889258 7.261983795122444
Cd 12.735258486399768 6.123052911112957 8.069022706533673
Cd 8.634814739077735 7.112023232199311 7.157300254251144
Cd 10.30592187514678 4.480081649993882 7.133023052909178
Cd 7.268905435492817 3.928205127959047 6.05266326378398
Cd 10.864644216127441 8.489893286564131 8.722747358308768
Cd 5.344013649016057 11.99761668282001 8.486258188354181
Cd 8.167140289716873 9.928979947777588 7.859557427612103
Cd 10.223182174843265 12.224518454461544 7.1704640775511725
Cd 12.988089934974768 11.128234895803848 7.642484656182213
Cd 14.380396059612048 8.513416427861523 8.272117575451649
Cd 7.353351460691165 13.072425895245853 6.549379299680838
Cd 5.277466249511511 9.017665269460524 8.613272437003449
Cd 10.226283063294796 11.121929661684852 10.070382474471343
Cd 8.125595719511075 13.457698317604063 9.337530296858768
Cd 8.15869449426068 7.847708793032182 10.062621368807667
Cd 7.1751913602799045 10.82691581939933 10.607265281506317
Cd 7.789656017652148 4.65513967488319 8.901073669533897
Cd 13.216742166156319 10.084307215506989 10.485207833638722
Cd 10.437331704572854 5.748810303506784 9.976051091267696
Cd 5.535643980974392 6.352685238438363 10.24736411856371
Cd 11.092980517073151 8.621039237344595 11.891160592654611
Cd 9.699978936181502 13.931076417661096 11.717224401601282
Cd 8.292461497891413 9.194397891126444 12.859260665794217
Cd 7.289743831201384 4.349707641668191 11.761030353835626
Cd 12.203112060235936 12.18097260649451 12.3550643761378
Cd 9.370748817069668 6.291634953044786 12.734445072836824
Cd 9.365779428825576 11.726516445197563 13.809756511531544
Cd 6.443489237900175 6.801669175915615 13.249290543350355
Cd 5.131208020370343 8.975636129713177 11.778496290996879
Cd 11.932380532292202 15.471258259687234 13.328276902422441
Cd 11.811370534266224 13.089744582575017 15.333300876008707
