44
Energy = -19.47724079 eV
Cd 4.143463909981133 4.39056691198249 2.3154063550543666
Cd 4.495038197908092 7.264836654696627 2.6293976330671853
Cd 2.198852550005849 5.912370823963795 4.173280705305505
Cd 7.4821827987871625 8.488389204686001 2.327682760742221
Cd 6.91955612008684 5.490945647051233 2.9135639888071982
Cd 5.025811411487953 10.063834236473305 3.0125008401125526
Cd 9.66007424076731 6.6291465971619035 3.4668810512127566
Cd 6.2327374877883965 2.553287698098099 3.310275129296989
Cd 7.3910074220315245 11.43990530509717 4.0847268540056225
Cd 3.0240670120061113 2.6897399374914284 4.416512162547791
Cd 9.258928532391817 3.5071179283434564 3.3255338179021097
Cd 4.949212271556323 5.645888591683652 5.683406281556984
Cd 1.403374517310495 7.331967939912241 6.747432210619091
Cd 2.9915094928336274 8.864505293632869 4.798209681890855
Cd 6.645757497822489 8.052861825231115 5.33059695088702
Cd 9.468783762020651 9.450015842006229 4.44043228922822
Cd 11.341719778877527 4.8302296000114096 5.14653513128706
Cd 7.935028591979741 5.103412760426335 5.929054576416086
Cd 11.531261211701223 7.741042571436507 5.768975223417614
Cd 4.988889668810612 11.049854418478484 5.854280085449176
Cd 10.768393675473774 10.585974668393591 6.790026438649368
Cd 8.428473712138745 1.704645896038903 5.478313356008993
Cd 2.201906378940114 4.233984259939605 6.788482905283501
Cd 11.400644651436684 5.7424960814936865 8.137998831957525
Cd 5.4079608494029 2.5663705447918446 6.168907703683082
Cd 10.263927370837624 3.1826883193746998 7.327589314789552
Cd 4.5941458452992245 8.124083382641277 7.517747421106909
Cd 8.799967761817733 7.5142452020246635 7.3576527377078715
Cd 7.692456738046061 10.609340009415083 7.040070813439806
Cd 9.5903113106522 10.304219299521467 9.555652907533284
Cd 11.902451076302352 8.544318109486243 8.702827925955221
Cd 1.926006565088735 8.98997142787204 9.441880801518746
Cd 6.4655342146525125 5.937183710798857 8.446321622222145
Cd 2.5121258410527285 10.852938722649315 7.318551412422403
Cd 2.625100604112074 6.064314247327085 9.170658862568171
Cd 4.436360058301068 3.6831037554609747 8.759371634404816
Cd 7.501849895340805 2.665206726806614 8.227716935779506
Cd 9.245195462264236 4.694997712847995 9.848368713623058
Cd 6.933396677195886 8.881071764451049 9.472120116494601
Cd 4.42285819735132 8.175031527742048 10.794581758478513
Cd 9.850294612216357 7.479016988903815 10.652832684142341
Cd 6.738716470350201 3.5466786947710913 10.916561431685059
Cd 4.480090700791431 5.2940398329162015 11.339236372086026
Cd 7.197416817640629 6.597001289329827 11.544685532514055
