48
Energy = -19.20504159 eV
Cd 9.262936640021877 9.96703296976137 3.920928455638503
Cd 8.979356411005758 4.498649790641581 5.410891642904752
Cd 9.352378167870786 7.0758449798277585 3.9909735338879964
Cd 11.361953598545751 6.386432784681794 6.056048122518469
Cd 6.453398430336787 9.133734937046375 4.492897300258353
Cd 7.621409404230761 11.706077812071413 5.669746142884184
Cd 8.791827340015555 2.072813059676182 6.981247828933343
Cd 6.5601910843885145 6.203819206842066 4.985119202559246
Cd 8.366974577268122 14.321821063731162 6.824521852340506
Cd 4.742276298788369 10.787472427859138 6.292131361219557
Cd 5.615506942621131 8.106276276975516 7.29948712442526
Cd 9.491563927036047 5.580916411292462 8.280804292800132
Cd 5.864551981833399 13.248729881964445 7.872508798274943
Cd 8.653318401119991 8.163399730247544 7.000754347136666
Cd 10.480192761292079 10.621817292133032 6.56115870049179
Cd 6.48497378846008 4.968706897703555 7.642804956816654
Cd 7.966063764664719 10.609690801394908 8.576936214151273
Cd 2.4442927201862954 8.732086437820564 8.492808292945591
Cd 14.090048800602414 14.376475819549773 6.949990082263974
Cd 12.493453563132741 8.46275395001941 7.7434938667973885
Cd 11.185739431014794 13.784334292447467 6.9071938779789805
Cd 13.467538812043609 11.364522273984184 7.417759649118044
Cd 15.430134415031732 9.06616687177454 8.698249200288313
Cd 3.5712245373575424 11.508525368287359 8.880351688982962
Cd 6.235505253663447 1.8938750517615084 8.486452877179266
Cd 12.979199568968527 9.836156298226426 10.536289375863015
Cd 10.127197277733634 8.512376121028746 9.749840031571544
Cd 10.82998742589354 11.868011371811779 9.281205159216206
Cd 7.399424262503826 7.217550182620689 9.904587399612646
Cd 9.501132044610927 2.80171714750381 9.757062068398694
Cd 13.490124622052553 13.406136004948687 9.7234443590452
Cd 4.3547315777879145 6.455683769761166 9.472124672678058
Cd 6.050003029930048 12.019142723068757 10.672489039605585
Cd 5.437591467493286 3.9325116772920503 10.50902652491015
Cd 10.396205289936438 10.83939108648006 11.960570635560101
Cd 10.70860942707159 5.480653239315608 10.969898949874409
Cd 8.708093332253593 6.960087782558731 12.805101045448914
Cd 8.441134530188359 13.694067897805319 9.891377359093562
Cd 13.996624746887184 12.413153690767365 12.390015556607882
Cd 7.949583864302444 4.249200001288051 11.910485624410956
Cd 5.056069838221237 9.216764773013935 10.422882507858374
Cd 11.001037122495662 14.135132225358445 11.506847424402144
Cd 7.741516542670344 9.798269485209989 11.701428817749537
Cd 11.667187330574835 7.773712207198427 12.480744118751257
Cd 11.43111421175127 12.665584883039902 14.160271841442064
Cd 9.073317217100639 9.374662443274614 14.361304481957577
Cd 13.092945646047259 9.999880381652282 13.82748587071746
Cd 11.164595672452506 10.272415318739617 16.13449482388772
