47
Energy = -19.05073265 eV
Cd 10.61455445377937 8.47210456578827 3.7554196042878183
Cd 3.093848352972458 9.100063053909324 3.4107972324499882
Cd 9.429717011337596 5.577291615183123 5.1873600572477745
Cd 7.963079957590472 9.720757961790229 3.0714310528905444
Cd 8.324206079887649 6.702073793387238 2.646283711111967
Cd 5.774467468472874 7.663859393608496 3.9568231887540954
Cd 8.898560461056269 11.138080392588847 5.693381489771533
Cd 12.313500932906942 6.654246949292628 5.612561921745731
Cd 8.009472633659017 8.255239426556482 6.123066361967579
Cd 2.905942292886719 10.014161218001073 6.290981622176656
Cd 6.887850538686696 13.453371858447346 5.358898465035032
Cd 5.535140336783993 10.898684719204542 4.347888088148189
Cd 10.963665585979722 9.175763495138831 6.763631171546595
Cd 4.3921046956500485 12.725019567730985 6.756098618095763
Cd 6.660832182292323 5.465064474118751 6.339045751844679
Cd 4.071213828338661 7.178363392343816 6.495349417394667
Cd 11.697803124727496 3.776675720958595 6.2565407723093935
Cd 9.475743968222922 3.5691567789019403 8.061101490820931
Cd 6.014685935017518 10.055744317210536 7.428499562362787
Cd 9.523054388758506 6.6418403248826925 8.355696543596098
Cd 1.8114296580103157 6.462295245212112 8.827162950845489
Cd 7.636553800083243 12.560503531621913 8.227030622601324
Cd 13.060491287518479 10.36202646612376 8.990941893813279
Cd 11.58877297993154 4.789103268453709 10.037138173358334
Cd 8.593311115330879 9.52372473901774 9.209441574648203
Cd 10.5537361929573 11.795921648164722 8.224186067859259
Cd 3.559945648861549 8.812061334707204 9.211743068103537
Cd 9.404911419630444 13.284924229989718 10.658668439718921
Cd 3.75121652274577 11.77491149816745 9.476261878274709
Cd 4.1151343340299 4.642437969196436 8.40030391109384
Cd 6.378984219342245 11.184063199416748 10.68568249047746
Cd 13.834762096546132 4.722551440559448 8.00488731049382
Cd 6.878111967508266 4.382760843723152 9.231721099355685
Cd 6.351444206057419 7.381764343440634 8.848638762130841
Cd 12.702449618218587 7.446773487456447 8.552411473153665
Cd 5.417414897295242 8.415574505718055 11.50312877251534
Cd 10.810452752726418 10.551472931766952 11.213869252300203
Cd 10.336436169699999 5.232958152630083 13.033334857838529
Cd 7.098141814316591 13.245668421842757 12.780550104439982
Cd 13.277154781618515 8.673419256453917 11.414070559680592
Cd 14.62387060287382 5.912222244737567 10.671245529048928
Cd 10.412608749127115 7.573115192518667 11.052396542023848
Cd 7.686468242806841 6.31395860104644 11.644299919932239
Cd 8.99959128947043 3.4932170255208947 11.082707882973436
Cd 13.021984072729671 6.277208693735048 13.172284320644449
Cd 8.103149179560356 9.305336757346323 12.401808388781511
Cd 9.592979987439938 11.793413787832622 13.684179865779997
