45
Energy = -18.64657123 eV
Cd 8.718167976255895 3.884587209550449 5.933513497559804
Cd 10.157380127448674 7.1940034395201256 5.073852317347602
Cd 8.355656859557325 12.990982708956055 5.508789591549503
Cd 9.756959998457909 15.364172590341518 7.15965177052275
Cd 9.36121277795361 10.142033359787266 5.747973067557489
Cd 11.397327660147274 13.423720666742009 5.616793195441525
Cd 12.323922930969937 11.095558689563573 7.027311528515783
Cd 7.171958189811328 6.548010128326639 5.44999888412836
Cd 6.452322258282763 9.272363195527412 6.075191923935938
Cd 6.296517131133507 4.108923969123131 7.6991581970944525
Cd 8.698269685366796 6.55876285727243 8.237677539535213
Cd 11.26757989408217 4.968505341839138 6.894503207890334
Cd 5.630178161048559 7.174793091964479 8.203400052311993
Cd 9.527682745667349 11.86894320581471 8.412041981127087
Cd 4.873136057128628 4.672853256188639 5.000998576916187
Cd 5.7873808775175535 12.004873196579378 6.71763283653612
Cd 7.23991221536369 14.037134910667454 8.351874408947335
Cd 7.843051699941477 9.433304856497704 8.72685711202036
Cd 9.055948793109811 3.6520246754183354 9.007839907648604
Cd 11.904054804066268 13.901847315507576 8.821614482439909
Cd 14.325616192738643 9.381113156211633 8.17153118105667
Cd 10.83587242492276 8.644350775786654 7.921863354863191
Cd 13.317333606488821 6.679496288374762 8.087015438018733
Cd 11.583408354798003 5.278097637364854 10.038642529225644
Cd 14.59296648769185 13.143696240597821 9.644392991603612
Cd 8.864131046559814 10.866350069682342 11.236871772053183
Cd 5.996315355880741 8.249916905108075 11.125597109130057
Cd 6.129206476764918 11.638982539255842 9.713342075355333
Cd 9.64599186989554 7.880982666370089 10.771542757072828
Cd 6.534157127321157 5.253845822657236 10.451197604831853
Cd 14.800494910025128 10.482668646336709 10.856906667395643
Cd 9.357013184272349 15.164640511579655 10.100034044613947
Cd 9.310488565438828 4.66539585824009 11.839600132132697
Cd 12.887544213575474 7.9471781626809355 10.845989873887163
Cd 10.989424246886964 13.417277022902676 11.760504569383988
Cd 11.655933056697744 10.685166750750684 10.165336368522544
Cd 7.459183134286948 13.621821340399284 11.79495408420593
Cd 5.576401957661184 10.847701300207646 12.452598937499957
Cd 11.084442595525667 9.068083306424155 13.192198849495592
Cd 7.027619792197738 6.179254310366156 13.280099783971428
Cd 7.957664067324641 9.066185926646199 13.589895241798827
Cd 10.235957904366858 11.83419280539275 14.169175027734456
Cd 12.953903077715248 11.432208745188516 12.977076439345536
Cd 9.996705546721907 6.50812505946349 14.056579040272199
Cd 7.384362814552187 12.086628340446191 14.411138901123953
