40
Energy = -16.64858455 eV
Cd 9.50490113283996 10.166590638320962 5.02865889886322
Cd 6.47088164517371 9.639563363421376 4.150574003491666
Cd 5.542328027780688 7.934051910027554 6.7030326217721745
Cd 7.892847199176249 7.117766140608634 4.647895414139899
Cd 7.525958104286005 12.432992371134839 4.803367693819003
Cd 12.486025317774567 10.538081821249301 5.259977474657717
Cd 14.691324920227704 9.969872605546495 7.26107966448075
Cd 5.279825767571357 11.138322500518354 6.458253691758349
Cd 7.955096048409119 9.562878469446458 7.5419187696397385
Cd 10.659281659507895 7.49172792900698 5.485192600746727
Cd 7.2190898043245 5.382111689419459 7.016476228674196
Cd 13.637261943760652 7.579411739921587 5.770053070575488
Cd 4.773154479678794 5.771000549731549 8.625966614774873
Cd 9.376993933933395 6.9131378589268575 8.32034313357397
Cd 7.5131747608533415 12.775785703167125 7.841979034745963
Cd 11.922482430254542 5.394108321069753 7.10765700591651
Cd 13.716764966246105 10.352568251911142 10.076982285008535
Cd 10.218714012872807 11.794371809300262 7.519576161985037
Cd 4.111611345523311 9.790956350392824 8.713104007248203
Cd 3.3933384950661942 7.588081561020778 10.477793964078748
Cd 14.06437536328396 7.464347858065402 8.825200804475356
Cd 6.84386162762784 8.010437664678099 9.868061616315888
Cd 13.177901914705068 12.449385478567349 7.828275218320678
Cd 7.396169758092915 4.400200888350962 9.899607615464097
Cd 11.190167892554113 12.26508172289518 10.306794577093543
Cd 11.409272205916833 9.099437183216773 8.058917302009256
Cd 5.073047313632902 5.267720611213992 11.559016962439726
Cd 6.570613488102533 11.163013515755072 10.06375233431691
Cd 11.901721553472248 7.944158025333409 10.915140956077257
Cd 12.535710118877633 5.117598295064464 9.940531898557294
Cd 4.2090710251179555 10.325077184566757 11.703925548891506
Cd 9.351679609692258 9.70141420207298 10.195628032619563
Cd 12.093286480826679 10.465718088792256 12.573838276570108
Cd 8.438238446246809 13.523957871894902 10.758214975396578
Cd 4.935089734960062 7.855465551328039 13.17861743258539
Cd 9.834087578190696 5.683685565724098 11.052106215743244
Cd 9.81222624719525 8.531840622793268 13.10578394152468
Cd 7.559036397841366 6.658223838540475 12.549336475120883
Cd 9.408288286509356 11.766903240983874 12.966127935161358
Cd 7.154205125232672 9.82205716936106 12.690345704708074
