40
Energy = -15.69376665 eV
Cd 6.083296947640237 11.908882983585528 4.28728071164824
Cd 10.334673071946789 9.072622898774153 3.976153609521288
Cd 8.831827176053554 6.67630138395411 5.159771939562661
Cd 12.72774251588284 8.114037184215956 5.477339161550652
Cd 8.913268398573733 11.4988605454826 5.06269043789777
Cd 7.142653747808495 9.041001831782038 4.320335545822392
Cd 4.783832254269254 10.083373445877072 6.251676235473198
Cd 6.666647326825847 7.839448036170537 7.141076688972421
Cd 11.075899404304675 3.0004862557915954 7.910320282338452
Cd 8.729713629500786 3.910852633222285 6.124281716881634
Cd 5.873496791212646 13.986173939834956 6.3922413990832085
Cd 10.419916539458193 12.26290226774242 7.392137872254766
Cd 11.333332970178622 5.81018033342004 6.7777557137576
Cd 12.79489157412639 10.324249545229648 7.486995974616908
Cd 4.398711767392494 5.919239043803856 5.91897906915337
Cd 9.548529267333018 9.16357940377067 7.215522251021206
Cd 8.971476997868608 6.307381425766776 8.599135486499954
Cd 7.221670625691233 11.121553383155288 7.817958910399522
Cd 8.280845473427766 2.399515630124048 8.754427750129608
Cd 4.080930687297907 10.040214434828235 9.134016202994399
Cd 11.607672980032666 5.0186104366680855 9.98556777380637
Cd 6.770679779775259 13.919527703767024 9.216528620521048
Cd 13.963182415521743 9.727483334680537 10.499570939477156
Cd 6.391827872333787 4.673458697060072 7.975477528785518
Cd 4.796045585855478 7.1335419663508395 9.483978542577812
Cd 9.292742740572796 10.67623988195175 10.057141684030011
Cd 7.409848238246452 8.428915164665913 10.048595778227622
Cd 9.774593437762926 14.00894166733578 9.76640765229069
Cd 8.525441128875634 4.447436989182638 10.952771518660843
Cd 11.547485799824113 8.063115503266376 9.128249510727354
Cd 11.98598590519379 11.862763167470789 10.04481075160445
Cd 7.966503701355983 13.65224756549187 12.088353508964287
Cd 6.341769748306482 11.254109718335616 10.798178746862508
Cd 9.72528431488907 7.136573722756366 11.717215725481505
Cd 6.907020577570074 6.592102433817054 12.561419479192484
Cd 5.472202701040595 4.631805802276834 10.903902947856807
Cd 11.312334176459999 9.594150621216675 12.216609797939679
Cd 6.642511665505681 9.41492271248138 13.121897908577306
Cd 9.034739995618123 11.122955889072367 13.329086832065608
Cd 13.110631820589138 6.952102167745525 11.695999544895871
