45
Energy = -19.88303147 eV
Cd 4.39726096203498 1.871355549488101 5.7389687150511515
Cd 9.389417640107695 7.445131830364152 8.562721563883628
Cd 9.901371781187981 6.166154902812404 3.7342013964288263
Cd 3.3214683606652193 10.864932442778587 5.788643222070225
Cd 8.92284172000032 4.581029379421886 9.238953827678554
Cd 7.3012090998923815 3.698631431359984 6.326653770796061
Cd 7.346652356067712 6.482363400287018 11.155265719096395
Cd 3.41758561022282 9.490062244723237 9.868082346367459
Cd 10.822454006854858 8.098260655069717 5.848774870413798
Cd 8.185369204468657 7.197105082534414 1.5253172537597544
Cd 2.6317035533823327 3.597863263664885 7.531636581835652
Cd 8.310903253095148 9.6912724886353 6.973628725602479
Cd 5.594101755585826 7.345162217611524 3.745272332396941
Cd 2.025122274606447 3.084856169775688 4.505397705452743
Cd 4.503894870537257 7.248490668212558 11.453308908513964
Cd 7.194324668880616 4.736139091840907 3.40212742720227
Cd 4.853785007298683 7.9306631096037306 6.521326599292307
Cd 5.07514633190817 5.36471645805291 1.0381424065132425
Cd 6.601863058585568 3.6089174662949093 10.954084108456469
Cd 1.6013051125962925 5.841953029725756 5.92129543698462
Cd 3.789205809968275 4.490157942048934 10.629559703991863
Cd 9.945710260018668 3.260729461892583 4.303612332242598
Cd 5.071590874905216 2.3860982768216457 8.66598637636672
Cd 6.704882681860728 9.914761824820493 2.028438386148347
Cd 6.227299785045922 10.473549099995848 5.040336205804773
Cd 5.845263070856535 7.960381336504989 11.453308908513964
Cd 3.949099953931938 10.493680873742719 2.8883356943356473
Cd 9.253684037126906 0.5841140050016513 5.22986855087349
Cd 10.148136087374283 2.392732412338875 7.360547201162647
Cd 7.627677228862869 6.705280761671997 5.938580933147325
Cd 2.3832347718646836 8.293831602387378 4.464385599028396
Cd 5.2911887545783305 10.924751292373761 8.004313625117197
Cd 6.530102782255058 8.424631690337858 9.046347803873735
Cd 6.770115050183322 0.4809337997089035 6.813340366342061
Cd 10.397928343663091 5.276939720149661 6.684504940962409
Cd 6.875843181814562 1.4606106774731626 3.803626750152475
Cd 3.332090271611332 7.990415079150229 1.4817677220163719
Cd 8.68671703296107 8.996818111466675 4.025245330612795
Cd 3.058846429888366 6.449082099904829 8.509023553282981
Cd 2.67097871185467 5.578080265892618 3.0701299513753804
Cd 4.722544293488526 5.022832002926184 5.4769220523216235
Cd 5.982359029508862 5.5052544543618085 8.23896873131773
Cd 1.78936593354759 8.93334338501472 7.455431182037124
Cd 4.598037579314124 3.1158790467993254 2.884034359640698
Cd 8.014063215070875 1.603795694491486 9.23874102998083
