45
Energy = -18.70181402 eV
Cd 10.348115860249612 8.641733940420922 5.014498629056622
Cd 8.278455109393681 13.481037185850575 4.6254653479267445
Cd 14.76670476257958 7.914987764557999 3.776860973506759
Cd 10.754785396509138 11.820881058493905 4.531970868056031
Cd 12.428396613150898 12.29485580808123 6.8582676594334835
Cd 9.82740078006847 5.935948662452529 6.125713299154093
Cd 7.933332047069052 10.546488469254559 4.237146624761505
Cd 6.924038064744933 5.187786136117761 6.60724411658203
Cd 7.48959310640759 7.781795568132736 5.250028063775237
Cd 13.019265467240546 9.814591288257805 5.344027893381478
Cd 12.739896656945906 6.343999498012711 5.525443847686336
Cd 7.609070523413942 13.961609634479476 7.385122399780522
Cd 6.474507913163494 10.442769692296658 6.794419368732859
Cd 9.398728196758261 10.885358074979505 7.288272144489549
Cd 10.328737511528368 13.500931190722714 8.627220719124981
Cd 5.636674178572063 7.629522067253763 7.64683972507723
Cd 7.027801126893937 11.915941308282527 9.444204805607677
Cd 6.265645939937053 5.47230993012278 9.534902065083166
Cd 8.587467020032568 8.104235217997447 8.247242800498764
Cd 11.472697480427959 8.891618601169151 8.025400714487187
Cd 14.102912685171004 6.705370265574354 8.223632854614616
Cd 14.566700631660304 9.767962113036937 7.88910580622783
Cd 14.817897532647038 8.474023929189096 10.534911657977752
Cd 6.922470826330821 8.975404227125859 10.71856870043512
Cd 12.530250936100462 11.261314070646321 9.596003802330676
Cd 4.428868886992212 9.893708296866267 8.919535785598091
Cd 6.66230731466526 4.53349494020945 12.489781526339534
Cd 8.932629796759295 4.19955577615829 8.498301122426845
Cd 8.935258152442813 6.413565722231304 10.685373552897856
Cd 8.281474467427735 12.513293556593034 12.165395555516593
Cd 9.629986624510657 10.236955940372368 10.279007664188686
Cd 11.291828032273674 5.952082463463958 8.803612322349743
Cd 4.740328905075285 6.821828768672028 11.700907410279482
Cd 3.5316308911683705 12.404118255885917 10.231911684365935
Cd 11.822257928744008 7.9564176736918215 10.948893903733087
Cd 11.03020132977122 13.067588101600961 11.451326977382553
Cd 5.551149816776545 11.572380327875178 12.271653482961261
Cd 8.320250569090259 2.6288158842739096 10.952208580488017
Cd 3.4130413409062377 9.486688754005261 11.619027889499979
Cd 9.544498428030485 8.366299383221133 12.753191403970238
Cd 10.586749818001191 11.037279697846913 13.6359875892032
Cd 7.095307425876401 7.089032079246913 13.82924590580618
Cd 7.662549965273155 10.242280661822607 14.099505178308998
Cd 13.149241890289435 10.374611908728316 12.348159268562481
Cd 4.81826770713723 9.13690176293319 14.143833966541951
