48
Energy = -20.55940254 eV
Cd 8.418356747578855 6.171105947735238 3.089883284421536
Cd 8.288663337253555 11.153428783133426 4.2741681905568125
Cd 6.7462364249867735 8.456492262186833 4.137984572294252
Cd 9.930444513363586 8.771928758273813 3.7121199445753987
Cd 5.1848829139465185 7.051020877652692 6.372495192313061
Cd 11.602373212829772 6.302167757501973 3.2581841093606196
Cd 5.724468782844289 12.422908052400922 3.4128019831523617
Cd 7.334996027033427 3.5101544038232086 3.9401372374612484
Cd 11.09482342261424 10.767322660991173 5.864596267083206
Cd 9.092606815589342 6.737155884177449 6.091518645326872
Cd 6.749287531468385 4.687138309725276 6.4989640774315545
Cd 12.025028311495243 5.081507931636702 6.306064947748303
Cd 8.311442070104304 9.48711755562836 7.038599984502874
Cd 5.305175369141238 9.928880909483114 6.6092112390683875
Cd 12.87949306844626 10.463392240390831 8.217594357651853
Cd 9.133576136285138 12.740013638045388 6.70019712805544
Cd 6.165807787367935 12.732585513326024 6.431037095699069
Cd 10.683963949782783 7.895612089885503 8.484370830901694
Cd 10.23280456754502 3.768768949170163 4.397859194322709
Cd 14.906455711631597 8.532010087632594 6.7268119687336645
Cd 2.5653247492005447 11.02241619208092 7.47639005964296
Cd 12.157879539676689 8.002373726539833 5.74241284888193
Cd 4.692010088269348 5.457605126953535 9.079243801172378
Cd 7.547706758497923 13.020259488414782 9.19252558132965
Cd 4.419348191658288 13.1227625748935 8.819165011624762
Cd 3.9131254794304415 8.283293901456991 8.927658155923858
Cd 10.004232287113332 11.102877217940861 9.153461757387742
Cd 9.485042540322128 4.325546761737902 7.849055079253132
Cd 6.91119134755078 3.37183056053194 9.069958063730908
Cd 7.596624524006301 7.028099529324437 8.708022139674982
Cd 13.792275371118683 7.759405363262576 9.373770168261702
Cd 6.588712092016093 9.97038862478559 9.419250891912467
Cd 12.020142077188908 9.561143333162812 11.032856615063773
Cd 12.256957274572713 5.172396123584511 9.200123769769672
Cd 8.980471589090314 8.716978706044676 10.911190043243089
Cd 4.232576682680603 9.830126380209903 13.029683407418844
Cd 9.61800289340045 5.684589777964375 10.646445568283346
Cd 3.357883248671564 10.791245271895804 10.386077786246222
Cd 13.062620376876472 6.299574471180086 11.830249167434824
Cd 5.85643669565659 7.735507787887767 11.368065219051473
Cd 6.693037017345197 4.8909365749951 11.473971687491236
Cd 10.628837621813135 10.62866171536714 13.398359033126482
Cd 7.923551808426657 6.612431469180159 13.470044864197023
Cd 8.879994265887582 12.35278226254896 11.796680507044957
Cd 10.846857573817 7.4287586963808865 13.217612710474825
Cd 7.247659177591154 10.027567603895445 13.074684390603917
Cd 8.95372665371322 8.801885026298896 15.12934433188139
Cd 5.8203426097541975 12.201300355337247 11.522554325868878
