45
Energy = -18.53719851 eV
Cd 7.391156337634695 11.71338051748388 3.7689626915509566
Cd 5.279033146162764 10.88280242496187 5.731855782546734
Cd 11.681897808983148 5.123668732960035 4.453523858953386
Cd 14.593057605333964 9.035079059363351 6.930381278300801
Cd 9.93754757960875 10.355827021470086 4.716138969488974
Cd 9.339114471989186 6.9263388060783875 4.228661591892584
Cd 12.008789622439744 8.252962722230256 5.062180859084894
Cd 7.158608680252162 8.78082516476419 4.578923124216049
Cd 7.945276320026486 12.861265595192375 6.529037259842599
Cd 13.743832244340279 6.177359934042567 6.391460883785073
Cd 9.546900836957882 6.749433004571579 7.292393204753402
Cd 11.729294699835364 3.941006048022046 7.229245057833751
Cd 4.023761195774847 8.895422716506816 7.641325499129315
Cd 10.887620139506836 12.607385908186235 6.551674715230099
Cd 9.055094103378476 4.08805882670751 5.712047164694551
Cd 6.435669547050068 7.10477072146656 7.090627738183523
Cd 13.386328990397637 11.556908566320338 8.125384519845746
Cd 8.147553259546358 9.678944907075568 7.343947786301095
Cd 11.063707018519146 9.538718567851246 7.679679081219375
Cd 11.567068460891774 13.652305083133589 9.253290068734607
Cd 5.9746270937322095 11.574562063587791 8.491261203610113
Cd 12.247649876012783 6.672825398693992 8.871839542584215
Cd 6.737637693336807 3.922504779195238 7.482478149968944
Cd 3.7156916616532487 10.437802754187501 10.359594180023262
Cd 6.448740367006153 8.80958318032985 9.802224353695063
Cd 8.982630318068068 11.810117478591373 9.26422233794677
Cd 13.754268102323934 9.051555842313572 9.911099310184742
Cd 7.3184871799053886 5.7400926689555565 9.775540791783902
Cd 10.292271072213701 4.651256914255587 9.673225388134933
Cd 11.388526974376214 10.687159223340917 10.67453608355536
Cd 6.452796140566111 12.715816107961137 11.170979692466624
Cd 9.458321508156374 8.202284001642353 9.890842001888343
Cd 5.193947537344938 10.431952486231811 12.875979897619342
Cd 8.956694766466175 14.522485896669746 10.689300075110639
Cd 8.38665928179136 10.192951085146966 11.868576265261341
Cd 6.649701940660594 7.322003498307445 12.347082228856145
Cd 11.890298077633481 7.548259519465707 11.768064937352538
Cd 9.124515378435566 5.369631243270948 12.193262478525156
Cd 11.439346790483114 13.412467065811555 12.201895575468996
Cd 8.620307768133154 12.95465896407816 13.266637234249345
Cd 9.563667413112336 7.868502160514194 13.602072144544946
Cd 6.923073660294952 8.97977755191084 14.790150456862214
Cd 10.892987844155662 10.750185318727889 13.612819365500252
Cd 7.677039445408231 11.679568982780205 15.69854477640584
Cd 9.724043054393007 9.50477449993533 16.1422734071088
