44
Energy = -18.54234677 eV
Cd 5.858794120449024 2.307268689221553 1.2898279478614094
Cd 2.4108522057002024 2.2416472755235874 3.2025914772063024
Cd 3.3130490984837233 4.014240764539127 0.9266624331309317
Cd 6.717227304110767 7.9514000347147205 0.3803117425865723
Cd 9.06742825467477 6.201325239306099 1.0314869528421495
Cd 6.013797149503593 9.553065284460198 2.6694502684702455
Cd 6.022278139502488 5.22159210313124 1.2262200006175894
Cd 3.1460532591724495 9.82361331007192 3.357752835761903
Cd 5.41152737819574 0.8207665867895466 3.665825998932326
Cd 1.3553193059550261 7.393139553485117 4.222722319356083
Cd 4.59516906977318 4.211430503786629 4.1364724117183505
Cd 1.0604875079856146 4.958520859832214 2.5945441288766933
Cd 8.468885162486275 3.3829675953279086 2.266275192769919
Cd 7.802108681875994 10.750548023566774 4.7760370253015685
Cd 4.072427193842838 6.94309725798389 2.760925897768749
Cd 2.96289594818606 0.2842079958553025 5.293537524741481
Cd 4.793349404913568 11.203275184299304 5.627521158273733
Cd 8.665409915294225 8.210041543555478 3.382803040491556
Cd 10.312744654888023 5.298490368264331 3.6121375503985855
Cd 9.891783591982534 9.881113532912883 6.782401457395341
Cd 5.392675420286933 8.07974367263686 5.330885505917917
Cd 7.101687959579627 5.808333738002041 4.188549957677986
Cd 2.0005114592075555 9.765050480051222 6.110478755157058
Cd 7.90477544124713 7.474196513556111 6.873544480866238
Cd 6.116253891352286 0.2433395477602209 6.511354419893136
Cd 7.273901387231309 2.9122583239423467 5.117342475706514
Cd 7.002752173574494 10.638676716065541 7.66817342214836
Cd 9.312425372559334 4.63141061660346 6.592813362262726
Cd 10.652251181284507 7.222097248872235 5.768698184336279
Cd 5.5333970478231 5.568056558889448 6.969532543141341
Cd 3.5801274292756924 11.203275184299304 8.137714917033
Cd 7.631350155814933 2.7142185543436335 8.220302922036133
Cd 1.8302544532336993 4.4425621454055175 5.499459149468431
Cd 4.310767197226611 9.26130756119093 8.035463722863074
Cd 2.7783750452626683 6.8863408222247084 6.911782482902967
Cd 4.621315695711205 2.842788804955475 6.839201336011933
Cd 5.867080172033203 0.694644466811463 9.678771027099483
Cd 6.761249882156715 8.278866292220158 9.575206530011819
Cd 4.233059480913156 6.6965010124688416 9.644727265646395
Cd 3.1022391767390376 1.824411764500879 10.062183544010372
Cd 7.882655601318904 5.533781487873106 9.364369538050108
Cd 5.332908564503438 3.8814727231613353 9.749911240084717
Cd 2.3115771108531087 4.537142932733115 8.881303981016945
Cd 1.7110111106074986 2.0657816819209343 7.248911628929146
