48
Energy = -19.90500161 eV
Cd 6.149795966232532 7.743555734073041 15.532192048907007
Cd 10.254103323410648 7.76416651735159 2.1618313459786878
Cd 10.373886440850113 10.617224494567136 3.0180803235821076
Cd 7.779776554702472 9.443678133066195 1.6913074394166028
Cd 7.339569555515414 6.37833742334103 2.204019842718147
Cd 9.610946745155802 5.043240714532727 3.4770135813150613
Cd 11.763265324765127 7.008544188623957 4.697010505202484
Cd 7.674883741197911 10.903555340295176 4.324280160258633
Cd 4.854811310699293 11.511947174009087 5.190793929999354
Cd 5.915587742581178 8.393667991848167 3.9519329725256127
Cd 8.820552744600585 8.099630986139939 5.32747836950794
Cd 11.620954304619177 4.161113621540566 5.5174434413305296
Cd 10.1533689183505 12.397834468497757 5.737687906916904
Cd 12.043370655081947 7.507292724185104 7.671967993357917
Cd 11.457593958411875 9.780953710923862 5.8120626730213285
Cd 4.064687215642924 8.947554167445942 6.303013304898349
Cd 8.571514747984663 4.915934220741839 6.358830376363539
Cd 11.030131168891007 4.599648196459911 8.353279968543443
Cd 5.0255836092832284 11.78659768218059 8.254251912487032
Cd 6.358146642807702 7.0637355605719225 6.755075562974437
Cd 7.192250173619292 12.857817669561836 6.5259017658161005
Cd 8.893135042169325 7.373419233322021 8.941910797011369
Cd 7.469512550367326 9.845281438646145 7.563784940740567
Cd 4.82761667324322 8.541097006590633 9.169179433612952
Cd 12.910337048980542 9.236826716373665 10.104035006559554
Cd 10.30000049821709 10.093761081096469 8.643408658994607
Cd 5.462316258071941 11.568903592170848 11.04614075965699
Cd 8.721925198170398 2.8435033476287908 8.876982372590206
Cd 11.669775396482452 6.427991704417184 10.492155348066962
Cd 9.13938156304879 12.891077306451665 8.716521949892341
Cd 5.778845352744071 5.962955458926176 11.317545510858523
Cd 7.301501813123507 9.188543098807123 10.793904451152954
Cd 4.196621876702886 10.853206923176678 13.546174435422325
Cd 6.728592789826271 5.009754397836681 8.782142937568564
Cd 8.470982364736019 11.986586070521112 11.355685653549434
Cd 10.483054073730022 6.345652257149187 13.426880008568567
Cd 4.265719242729958 8.264198725592282 12.15747599390701
Cd 13.272447714615526 10.478914885846487 12.854232585895792
Cd 8.867437378161672 5.184101966072276 11.071581719657926
Cd 11.488830179148907 11.91014007111542 10.893133740344686
Cd 10.062316010796854 8.832244186788316 11.623280601215376
Cd 7.659392131487656 7.265536053664714 13.191215820665679
Cd 13.332967661593614 7.49208786869699 12.704958502411367
Cd 7.266613882540364 11.127560418347464 13.9075817141466
Cd 8.80493343624439 8.955606210384452 15.532192048907007
Cd 10.327800379761298 11.12342156379394 13.659903427417452
Cd 5.766183992166623 8.686309370091776 14.918995446221762
Cd 11.647830273836508 8.75613995363166 14.85291071510814
