46
Energy = -20.44933344 eV
Cd 2.1569221680298347 8.084833225197821 4.281858892868877
Cd 4.58841973510716 12.250065742801993 6.333873437081221
Cd 6.982769782438559 4.844324222280944 7.5416461032570075
Cd 5.147905954989626 3.6523950257488758 5.53715861987668
Cd 6.861543971300633 3.585991517228622 10.490461531906707
Cd 5.600933299437417 8.275902765891605 0.9531704954380777
Cd 4.395614665060807 6.348329552087597 3.1552241551561395
Cd 6.3269088656535875 0.7108536026365725 3.3875221580491117
Cd 9.74229829536899 5.5967006242416995 2.396886992046406
Cd 7.032478192835389 10.196566659099396 10.27572875916753
Cd 2.169666631377326 1.9425194591316872 6.126156934965057
Cd 4.431371054728143 2.4787077811617424 8.565954520480066
Cd 5.1373033117522295 10.749256985591067 7.611619864188709
Cd 4.506288392463496 5.253968763048153 9.690207008166116
Cd 4.488249058389799 6.456434401443498 6.617941572704141
Cd 7.067555632396131 5.819915893887118 4.718531260359472
Cd 10.258598870267146 9.053503259314724 7.266925001995092
Cd 9.799798118551358 7.299220395935157 4.888718026340423
Cd 9.512630466419436 5.040892982534241 10.44549556640496
Cd 7.2477103443186675 7.841975355258443 7.325988307800029
Cd 2.7882719097809914 9.049530128797116 7.085178579094759
Cd 4.946453820546917 3.4189756569389247 2.3772084753011917
Cd 8.047764355025146 10.960828503845686 7.52761352918326
Cd 3.7940270901208804 10.784166135989894 4.8543673201228374
Cd 5.863494424956122 8.502969067930582 4.8204071186197295
Cd 9.501415751480693 8.492971543152631 10.02279478551159
Cd 7.24812333250906 1.387800023499967 8.506939014693812
Cd 0.8426152945926769 6.78412448164418 6.594343532039106
Cd 10.023653078719295 6.068747341864144 7.692000698969083
Cd 4.828963004931236 8.288283777752094 9.282314248096228
Cd 2.126991235537253 7.035782230756297 9.266117675251852
Cd 7.1010904550366885 6.741765628750157 10.463269911571926
Cd 6.387385264507051 12.250065742801993 5.2684699270509245
Cd 3.378449435913424 9.73176003336936 2.130053534001768
Cd 5.174411265955147 0.6742426842120027 6.288450271449327
Cd 9.94426378785068 4.25663266786449 5.130436829478536
Cd 8.222452368495988 8.219476898964308 2.5141257810915785
Cd 6.844818724109652 5.617764424531722 1.423969053815152
Cd 8.743416675311046 10.228093897745714 4.675742708235267
Cd 2.389223090082546 4.868303050489869 4.829836910729632
Cd 8.011741862313562 1.9629443312706298 5.633634161203801
Cd 6.292275781159916 10.703489250449008 2.6625887681264526
Cd 2.1814130520011563 4.344380076874713 7.833929293360289
Cd 7.996969657673857 3.257848289006639 2.953132543798903
Cd 9.55619911465933 3.1472251325957514 7.998948068936439
Cd 3.378852618680647 1.3386476879652007 3.6227613148517652
