48
Energy = -20.79237813 eV
Cd 11.589118253033586 8.51518129579426 1.8050384071661807
Cd 5.509267324123476 11.075074847072313 5.184110531499186
Cd 6.529226861646701 6.616612920907186 4.512432196902791
Cd 11.411739837790725 10.02572023936971 4.510261095831952
Cd 7.398422401028879 8.98893017207209 6.290120020309758
Cd 9.292259076543539 7.8932871428016025 3.923678414321879
Cd 8.303259924173378 10.66519493196722 3.93209424940702
Cd 7.897261644676185 12.641142900868777 6.289432659419515
Cd 10.155150747935053 12.9508925737516 4.396199081339793
Cd 11.155570778372004 7.650130730954584 6.4740660523071645
Cd 4.123152131343885 8.232878254290869 4.821992983331252
Cd 13.118814291686842 9.80950141894518 7.005349028384265
Cd 3.562844304982748 9.823377986008838 7.259072533339497
Cd 8.762365943094068 7.39631716296614 8.318819918827023
Cd 9.037157104367646 5.486638112433484 5.736556225435589
Cd 10.656185092047727 9.63737811004377 9.000311162465058
Cd 14.157695824730403 9.249871316427889 9.69245055630102
Cd 6.099598078914595 5.300014719487679 7.115258241260259
Cd 11.401862105744726 4.745896072106705 7.388082106611916
Cd 5.2294827460848605 12.265171951236399 7.960918844806163
Cd 5.531523721387403 7.92812307263127 8.573379383931869
Cd 10.605819714846465 7.167933329942506 10.675047253122814
Cd 4.19073088227309 10.437801504243012 10.107839194610357
Cd 12.85393039359055 11.96851478842646 9.254824228533526
Cd 8.579182360231503 4.2907049105543855 8.59501875072822
Cd 12.088898627352547 12.600037234807198 6.497151115055945
Cd 9.921415066086423 12.682547013983633 8.649182990180961
Cd 13.061262870374158 6.65009052211233 8.92827127907313
Cd 5.676892052492873 13.020415580987974 10.953503895878642
Cd 7.583857094564639 10.469074167706149 8.933350906716287
Cd 5.770835098089426 5.264824749388324 10.024188966359235
Cd 7.731636006992615 8.119504727517887 11.019617294823723
Cd 8.417184050417475 4.962167768602308 11.44979330716488
Cd 13.325941642936744 7.754060873362717 12.074667855504705
Cd 11.378996700470152 13.373358413409786 11.45764564786935
Cd 7.367119145897359 14.167938952928353 8.80371082445094
Cd 8.502296706032626 13.801686481832412 11.55109878957939
Cd 4.554480385196464 7.948606594979691 11.580759975196623
Cd 12.390588215839704 10.61917758583901 11.882282405246999
Cd 6.23483754382291 10.566484526960354 12.361309184450262
Cd 5.908160940700435 5.705713990051521 12.954274465971766
Cd 11.248267817751056 4.152886570873344 10.300832624098303
Cd 9.16261685562021 10.796727468120295 11.485371669855683
Cd 10.57771697189009 8.80175514267702 13.326771197005295
Cd 8.615128640014207 6.779502911135262 13.938925306255419
Cd 10.742325637909529 4.741258469715306 13.472408025616286
Cd 6.19363030316285 8.427477923313386 14.287846213665402
Cd 13.45323063826891 4.89135242092709 12.303623496319652
