43
Energy = -18.40027398 eV
Cd 7.098734746279206 8.9346701071754 4.485474178857385
Cd 8.03710130456949 11.83662425361019 4.898688206549661
Cd 9.270266821907734 6.856119352706888 4.454272499070037
Cd 5.915746040550516 13.600901133627168 6.48083076185715
Cd 8.942620498731214 14.185097752982255 6.546386438125289
Cd 5.590077332808545 10.647279508095625 6.4015401731253965
Cd 10.071089697359522 9.656729066013554 4.994422723389009
Cd 6.5007879267995845 6.0384664341851195 5.178680686496735
Cd 11.100980507109105 12.42238249560041 5.45740883510844
Cd 11.67977974872024 4.970107166580628 8.480766628982966
Cd 9.008379798363105 3.5996311100059444 9.566302849618497
Cd 6.696028903352907 1.8258058902449497 8.794946580541142
Cd 8.90230869485913 5.477014592929443 7.084599306948305
Cd 5.091483226978758 7.8431936989309445 7.036143864340349
Cd 6.039491455179637 4.97725087011535 7.970560410083748
Cd 11.26914437042009 7.440794883103973 6.7617465641006245
Cd 11.03986896710683 13.437159395112076 8.637555297986436
Cd 13.373346419722859 12.121306503824204 7.335624091555869
Cd 13.638022381538718 9.2043233869489 6.79371308381681
Cd 7.867694963749055 11.517941156935622 8.253300826610563
Cd 5.404447038712798 14.202844277813305 9.268625847047822
Cd 8.136849193213349 8.474245030509017 7.475186941510003
Cd 14.544425865565314 8.936872439330513 9.636406353572644
Cd 11.46359886703521 8.254411439183205 9.779074056801685
Cd 8.352367159491926 14.379818892466172 9.488645993623129
Cd 6.267253268889637 4.387288907278504 10.841295911637676
Cd 12.549694757882275 11.186611570542583 10.22215715808978
Cd 6.551613709821242 12.41094031171154 11.347548069945875
Cd 5.265456480896813 10.421437294518162 9.449259108938266
Cd 10.469578913892038 10.296854927298277 7.920433655424098
Cd 8.91981956395516 6.69930711383423 9.846671518004777
Cd 8.503881221740906 9.57705674079757 10.371204138153674
Cd 13.58038855651051 6.174517687588709 10.623981309124634
Cd 11.326939424012167 4.198099236807632 11.393493516693136
Cd 9.736356719293077 12.413096365880346 11.220159226909132
Cd 8.685844336128264 5.119105811714361 12.566078908310741
Cd 6.0381138924599345 7.573031917721333 9.860680769265214
Cd 10.930576244603643 9.967743215319576 12.446213285442466
Cd 5.842718170098823 9.59717347743042 12.410102077527458
Cd 11.224988981322138 6.96770701255645 12.520891943162532
Cd 8.563465580096466 8.18713992619424 13.236340483917735
Cd 6.061382081888795 6.597158845335506 12.767589193000088
Cd 8.208295363886336 11.145747996939733 13.456005724235238
