42
Energy = -16.64569525 eV
Cd 10.609027188073947 8.388404855182674 4.123412707917705
Cd 5.459070739364183 10.798848982988332 5.203892647006996
Cd 7.952163049565501 9.731342688951212 4.190694819224063
Cd 7.7530298296897175 12.845587864683948 4.977199346589221
Cd 10.586391925944547 11.37232497963787 3.751071316167134
Cd 11.881634151456039 7.205750434437036 6.508811908241402
Cd 10.501521137697083 13.979113166949848 5.086634505266214
Cd 9.724612164826649 5.243905068311883 7.578601532141361
Cd 4.11287147713532 11.009114969313242 7.890616226351898
Cd 8.535573300019884 7.950468234096711 6.599209592351337
Cd 9.024185510038759 10.93507755109228 7.092441253951548
Cd 2.9973963200429243 13.931406707918327 8.155835574656317
Cd 13.999945809550606 8.887354726320048 7.743816863090271
Cd 6.597786583812477 5.668002279349051 6.571857289895204
Cd 8.105851928636545 7.256423503145509 9.603631826612295
Cd 5.498916793213815 8.421086343054986 7.032349513165714
Cd 12.020260667264024 10.581280987867029 6.318213134395011
Cd 6.041923752068131 13.215207487929916 7.435881528650775
Cd 11.34928984802276 13.5294393226885 7.847718162331326
Cd 11.874960582060687 3.9360634715665985 9.55942922026228
Cd 10.48355171278267 9.005378551679488 8.810866444203464
Cd 13.227174690082991 11.540510878869192 8.971084996512992
Cd 7.0234520225183505 3.8231951579615577 8.81312319600639
Cd 13.06659545986598 6.552419321175418 9.329017205387224
Cd 9.254856387998906 4.515178808779939 10.660856350143034
Cd 6.878002515169491 10.593437062575362 9.127272368428132
Cd 8.51380978732773 9.716152482788571 11.46529963648252
Cd 8.523053982748863 13.69619745060165 8.813913149534406
Cd 3.3510893001764255 8.827174372932838 9.628803578239742
Cd 10.378032471766728 11.73042942126361 10.200053579083681
Cd 4.96974231305639 6.229871094649518 9.138638641201794
Cd 10.725450318237606 7.2512690533242745 11.270665414169528
Cd 12.96842268062967 9.321799836732437 10.816029028933631
Cd 5.744911989304903 8.376112167307717 11.266588590213086
Cd 9.114006284811733 5.711678384107988 13.357157083922175
Cd 6.466512872039743 5.259587701786686 11.650474372656149
Cd 10.998445362447752 11.055512666119908 13.023400129005479
Cd 6.808874660356771 7.551561448481296 13.838974552613125
Cd 14.089977585128514 11.243480275839723 13.760569600375664
Cd 12.581027628844513 8.366343517043312 13.58583448681116
Cd 9.491365141098706 8.770803066055585 14.214423545283546
Cd 11.195842110230233 6.456313689544745 15.466245117631136
