44
Energy = -18.12429411 eV
Cd 8.141909097852611 8.475367407978831 1.3057079785757042
Cd 6.184902158476445 6.3365259725065854 0.6597366938043259
Cd 9.476255238635348 7.396459915743964 3.72571666996723
Cd 8.133515320249876 4.937728733263054 2.4610889464868895
Cd 5.1916098009620315 8.98147489138144 1.8023008888617071
Cd 9.89216857110795 10.066102393022296 5.525784882829114
Cd 7.3376755821080435 9.654952173299904 4.012026967534127
Cd 11.35568627167367 9.417209802906811 8.03452490332037
Cd 11.057713635016404 6.953115973045644 6.404313877368505
Cd 11.10819176400904 6.567492213669714 9.484441660026613
Cd 9.798866364711824 4.554169092508856 4.84015999028584
Cd 5.422959790610975 3.711132187908162 1.958156492039113
Cd 6.311075409135545 6.686834223026759 4.1013249212494856
Cd 8.64963344197883 11.191392393759367 8.084918981145663
Cd 4.381357203263593 9.109629983765863 4.7244775471479405
Cd 9.674843749707259 4.38868049239065 7.825123500946108
Cd 11.389775251129533 9.539820713398223 10.976492635027245
Cd 7.433950004241929 2.3391089731526846 3.959858970901826
Cd 7.968088217321325 7.087166235363835 6.54969962898267
Cd 3.548894807969702 6.3633967999661145 2.440055547496452
Cd 6.355192271203412 9.601941642545434 6.937907824399549
Cd 8.543863750474712 10.24769667149266 11.574722976541521
Cd 1.7321093724943353 4.627730078787083 6.716571620407646
Cd 2.087808944689924 2.1814051437692754 4.914957936053331
Cd 3.6188561366403085 4.98243711686565 9.149764330112141
Cd 3.961912875892759 2.6508767464514325 7.272656324095527
Cd 1.10052712095531 4.7534743011640765 3.6644506504318914
Cd 3.850048493490129 7.790448501563732 10.471421142025426
Cd 1.6088712435688688 7.215387071392316 8.386097310286898
Cd 6.5325682933243385 7.799917051074892 12.160456493225603
Cd 6.273537713316333 6.4657279853553185 9.237198587992538
Cd 8.547490122895708 4.99559098566405 10.550945700523418
Cd 7.032907659015003 4.284880307898441 6.1679601788888885
Cd 4.6738813230972225 1.12934980760998 3.761251942865078
Cd 4.433374996263256 4.335879374594268 4.703361094250524
Cd 5.998020246699903 10.19851729628161 9.973235431116409
Cd 2.1851857697203174 7.144660236825313 5.122709986027272
Cd 6.3858441002019735 3.404872958887983 8.933509194052407
Cd 9.56552634923601 7.322655520669968 12.183088441368952
Cd 6.269389300205358 0.9694015069611962 6.461495619192869
Cd 4.801318886303091 6.510069700821237 6.683692346399251
Cd 2.604538556941646 2.7989862158251 1.939053149156282
Cd 3.5926359567407617 9.32433906620714 7.824081807971933
Cd 8.58269732865359 8.303172631416293 9.130676720801997
