49
Energy = -20.8791218 eV
Cd 9.844684258628034 8.749899687158551 3.2950225246025586
Cd 7.191214326649825 9.664305957173625 4.369421357254324
Cd 5.597950933038168 7.248104646382677 4.890603804135803
Cd 9.787480578947912 11.496132426929789 4.1820986782287966
Cd 10.040856886591682 5.831506428353115 3.338772295568516
Cd 4.592622490490135 10.887928414032135 5.6519836306392905
Cd 3.2428808823177113 8.377661255136765 6.426660096333968
Cd 11.12536191094078 4.4928938329525545 5.847950956029867
Cd 7.456353636545989 4.951274132958267 4.435697297673925
Cd 9.550291214537337 13.74359078521272 6.12425324406841
Cd 11.643720217882917 7.5236212315456195 5.493633310308482
Cd 6.994672337379926 12.460860765400668 5.496367495660128
Cd 3.3731334747340544 5.208032293080515 5.271618732836314
Cd 5.258708113134092 6.436662467473561 7.853482475246822
Cd 5.654366199026276 3.611807748248256 6.636109500830477
Cd 9.412240526474157 10.001513989260852 6.97142866612641
Cd 11.851318770462074 11.742508404821056 6.470611797975213
Cd 13.497621548781055 9.342764831288074 6.826781013127579
Cd 8.53875932850141 7.19998684074476 6.235874120015233
Cd 6.643437893157881 9.064875389929647 7.774076697686653
Cd 3.9227108870341545 10.468148501769043 8.580750631161498
Cd 10.75805713910968 7.644858375833238 8.501460458950051
Cd 8.476701483257708 4.145043529384903 7.221363401927938
Cd 10.90140353946864 4.590966174718803 8.852085687108898
Cd 2.8581408125471186 3.4870834993701156 7.732710672279673
Cd 14.696461785453723 10.858822869455466 9.645917337586816
Cd 4.594623905042442 4.340298917101275 9.92996233177966
Cd 7.502220898706461 11.91435583080473 8.392115359540117
Cd 11.158553709542433 10.581508051199181 9.385388154096619
Cd 13.030101766692725 13.236109942338409 8.900113981977759
Cd 1.4404030808566957 6.090505558430302 7.551686710292598
Cd 2.902298124065058 7.750668353372102 9.551714600700087
Cd 11.981914759853519 6.331986109885329 11.081969518357052
Cd 5.860946339092761 10.5091269964062 10.76157410805223
Cd 7.941844783649669 6.482142375948856 9.165355407956497
Cd 13.753506396722589 8.038997753030458 9.419621382229073
Cd 10.046669213994814 13.482356956463244 9.005907426820864
Cd 12.992993188150821 12.421731191385675 11.746373138390986
Cd 8.687115939930663 9.160398997331027 10.1931716174319
Cd 7.633191216572864 3.3665916417135757 10.00971934898622
Cd 6.2707724510583915 4.7321618460885055 12.271432998142712
Cd 5.514951052355424 7.505092936956764 10.815199433829235
Cd 9.234061173232183 5.536725101646811 11.721464151690789
Cd 10.51876358308007 11.260038651066669 12.999626080298158
Cd 7.466090796543863 10.262130583648524 13.2238128299713
Cd 12.5133370635249 9.272815601248967 11.83557835501611
Cd 9.93063476549688 8.23636617889526 12.823294079779746
Cd 8.442778076862828 12.33296093709206 11.218181935422946
Cd 7.117905820581043 7.370904290031692 13.31683044657407
