45
Energy = -18.01052417 eV
Cd 13.91440363521706 12.955496383392235 4.789532297931464
Cd 12.813817094486735 8.732998614455736 5.2643286486393475
Cd 3.9648544963019003 11.43804498650891 6.521175979751431
Cd 15.332692727841078 10.313178492239405 5.364939368437821
Cd 11.544999994125499 11.357861367872317 5.886822186706038
Cd 5.3047100465630805 6.662602857987566 5.635044039162987
Cd 3.2388733185855805 8.6612331482819 6.708677570851585
Cd 9.52385158532597 9.344171536804481 6.69044461085744
Cd 15.864043956979476 12.683819212324881 7.126239507847768
Cd 11.771267156723233 7.197368477608964 7.456774323712604
Cd 12.937282111345773 13.406089043553006 7.722492403633312
Cd 6.5884458053851915 8.928321012354239 7.0090618459554745
Cd 6.340901475800396 4.7015102637083075 7.559835585910316
Cd 8.852947556623853 6.661201650718472 7.727341098205898
Cd 2.861822884027869 5.537552227639842 7.082470962929039
Cd 6.655305839373498 11.854044627210998 7.651740885240536
Cd 15.507215289521065 11.983340702876784 9.898091798903902
Cd 9.728931723371694 12.239067243184058 8.218717977777194
Cd 2.9412585819350605 6.583908141020722 9.919860449297284
Cd 13.154138443236763 7.244314553932856 10.08679004886111
Cd 4.321262965012115 9.182429843581389 9.507992177550566
Cd 11.269209359523837 15.113027014414794 9.332530121282337
Cd 11.104786357926425 9.663275855822285 9.474960182584157
Cd 8.509414055740285 16.173309186058013 9.460116863703396
Cd 5.258491097406933 4.742814448453124 10.394330412485498
Cd 5.103190057049316 11.76576416832285 10.544706810698736
Cd 7.286939869132338 13.54767426400618 9.969336203604392
Cd 14.698573816312209 9.46919698546826 11.221265553497174
Cd 6.728218850221456 7.374867469604635 9.680337359017157
Cd 10.790122318165263 5.24077143667046 9.69898363138325
Cd 13.749210796300057 9.856998150637764 8.126894270795514
Cd 9.511944402508348 7.643054857791555 10.991933240636465
Cd 8.149492502876042 3.8463772052759713 9.762438959657981
Cd 9.952310622135862 13.11859624725232 11.27163090274071
Cd 8.14729722863609 10.04379640258606 9.702410699584593
Cd 7.029383471989891 6.444010927942624 12.52254213252385
Cd 12.634145960780668 8.454913167651574 13.020232101915276
Cd 5.731829550329827 9.139656172225623 12.148212305425703
Cd 12.613863788333637 12.165219468381247 10.553002231406415
Cd 12.068043898512286 5.5774145653779446 12.425793548421911
Cd 10.686271687238852 10.45806428335026 12.473007256320912
Cd 9.250321205086385 4.500325122490864 12.413882674293511
Cd 10.07568810526764 6.852938396688189 14.271732290362266
Cd 8.237896969126957 9.04305584889593 13.815408725802424
Cd 7.684824422244961 11.530821048003615 12.330434834321338
