40
Energy = -15.56527697 eV
Cd 2.912976612738379 4.905075455113206 4.775959614466015
Cd 5.04088503820408 6.30296308524203 6.739468993109221
Cd 8.788769714995995 9.517463041294677 3.821549178104201
Cd 11.575656304081424 8.434788246276304 4.058890347615935
Cd 11.738957193895542 5.491665921369339 4.4715731247273505
Cd 6.258430616467003 8.591656343705806 5.007043807927331
Cd 9.707008522398061 10.110068334461007 6.531344035225925
Cd 1.542725971119137 6.496171729352938 7.231214041984799
Cd 3.2027688286000253 8.087146794441944 4.326505070956471
Cd 0.40395284003622106 6.70249053928803 4.345652181106262
Cd 12.00673067396372 11.663103978232089 7.7081052934777565
Cd 13.37788092693504 9.669677980697701 6.01457373420971
Cd 8.688134606194778 6.566569097064193 4.273025545459163
Cd 6.803163369154808 10.978005444406921 7.104764222761653
Cd 11.175783775396726 7.3969600666491075 7.114836202346164
Cd 4.244275231423631 9.363458727823 7.044795775587794
Cd 13.85158960939106 5.079507875963299 6.47200503208455
Cd 15.072402828717264 7.552813362028626 7.356075390900132
Cd 7.98590127306288 7.388703979319867 7.311973738190705
Cd 3.853629541004504 11.265498929358687 9.188072738753254
Cd 6.067678335847425 5.814342270664724 9.472812000340278
Cd 9.475479799211215 4.741486110567192 6.437716733425662
Cd 9.130310704392716 12.107998440217045 8.750483857702589
Cd 3.546395209083532 7.472546852019795 9.289779537667666
Cd 11.441214718646831 11.222767025278417 10.586697370008595
Cd 6.37057519172033 8.988640088781148 9.55250225759235
Cd 11.825384069068377 4.405766208923316 8.457747095050975
Cd 8.967836515855579 4.976450953166279 9.355630104738568
Cd 9.698240797945953 8.828938771425118 9.393076930402643
Cd 4.691842294386266 11.250229296735249 12.147768532949545
Cd 12.990079925895301 8.85007072089415 9.134418687161544
Cd 11.45346727899945 6.489629946918126 10.496968780243538
Cd 12.977608650224992 8.842180681073838 12.130305111782485
Cd 6.459632325505981 12.505868469963096 9.963502872078895
Cd 3.4501311638698757 8.40490430354004 12.028291744974206
Cd 8.216960152384452 10.579304723102572 11.479746279967596
Cd 6.259542262395715 8.724871560236455 12.944510763170708
Cd 8.161153093689295 7.055029121717726 11.367335667453773
Cd 10.51700172668598 10.28459007218664 13.292823390016471
Cd 10.469944781481992 7.29269792557303 13.22255668934993
