46
Energy = -20.1151704 eV
Cd 6.837434467028036 1.6202504401176576 6.547216292081519
Cd 4.453600990861841 6.76057114602856 6.124306251062744
Cd 3.5703161113336264 4.812235777993242 10.50875069896124
Cd 8.826288052794057 4.644408796705123 3.1869538999057188
Cd 9.971847981595294 9.303307528978419 5.436649633256655
Cd 3.924106341296133 0.44090873686636767 7.339815601060996
Cd 4.702895942344108 9.083666949565263 2.43137334529198
Cd 1.8694809182189864 5.362646465174506 4.680170392378578
Cd 7.205251969118025 2.2307316807980095 3.572125842055504
Cd 5.002345452473762 9.77113407608774 5.356984583331268
Cd 4.924328568357078 4.243711363759545 4.513953938163014
Cd 7.610927505971174 4.67228774679549 6.112740775928527
Cd 9.628425856515507 8.175486211953968 11.533874157542705
Cd 9.498001735778221 7.773632731177317 2.9590537166814332
Cd 11.23257758773939 10.604895876682374 10.756942024388797
Cd 6.456674517344192 6.767476275040613 3.8053590950969642
Cd 6.339927969828312 4.067819643197769 11.117261974433712
Cd 7.430833336083531 11.13314129000552 6.850451425416939
Cd 5.903201853779153 6.542663012902469 8.9660600120376
Cd 1.9382042976259928 4.776665418999687 7.671674915677512
Cd 6.229810227252174 4.231129941071038 1.415955564770333
Cd 8.319937730444554 6.258518998559473 0.7079404245414324
Cd 7.691417066692269 9.261293110680365 9.394421005700194
Cd 10.139280590610364 10.680798700798885 7.98532239343135
Cd 10.233322682969401 4.583311888218596 7.745239730816531
Cd 7.322915898441747 7.7268630629752115 6.453907530398628
Cd 5.453560003858935 6.935651095777137 0.2471423171652705
Cd 5.6249387780627 1.6831102895496584 9.40558940336517
Cd 10.038881059110114 7.5956748573329325 8.05276956005709
Cd 4.976851089113361 9.387027466983042 8.328470073762032
Cd 2.175622455147148 3.11335837697765 2.676255842694237
Cd 3.6098807040235794 6.073506108553732 2.3859519872349106
Cd 10.253200138693838 6.230161975332135 5.322468462285973
Cd 0.8728673552527101 7.362496384302884 6.632099007382549
Cd 2.603856262922122 2.2871396525775998 9.192087864233612
Cd 2.371210251707125 9.830715215209471 6.930655554017836
Cd 8.569238921932245 5.806175224510916 10.022234704917285
Cd 7.527093250724187 10.194883805681052 3.9006999530544433
Cd 2.362247249464298 2.512779359485206 5.767009755141763
Cd 5.002001000078227 4.066232963401984 7.509495638438929
Cd 4.650963190812205 0.9454084539156754 4.530905331450282
Cd 2.944568901420435 7.2922405508501384 8.881958989743156
Cd 7.393884133649026 9.065493209732995 1.173454232249549
Cd 8.239092480125628 2.8864207025535267 8.91567931629184
Cd 2.4528421746915257 8.334658573831359 4.227166322074555
Cd 4.575819251840971 1.8292831674334793 1.685374765153439
