47
Energy = -19.82501399 eV
Cd 9.759165945822556 9.98254739495364 4.001147430439794
Cd 8.832451215821093 7.290371525313628 4.082909590414894
Cd 7.222918649584348 11.174075226502767 5.152258842756597
Cd 8.130875690872665 14.571616060224677 4.346393560085192
Cd 6.365302656497824 8.183388244665558 5.790926171236633
Cd 8.908082596850278 5.962921530661916 6.612908380746436
Cd 10.699406232583115 4.048367253244502 8.269679546109229
Cd 9.9685040321198 12.399368851922386 5.648762761345178
Cd 11.623376111772616 9.792123998583095 6.302234949501795
Cd 4.754318423940572 10.676322028363197 6.600840621638496
Cd 14.527954993370436 10.366594599020134 6.991661675300918
Cd 11.129613714583726 7.42509038467294 8.303355182290032
Cd 7.582797292964736 12.182533854129886 8.01591935117688
Cd 5.752271195729496 5.8343365559623255 7.486847264290352
Cd 8.748026388103366 9.250933289374027 7.360626892920958
Cd 7.704394937412513 3.594191396448171 7.977660414050135
Cd 12.434474490936074 12.984520100588494 7.130924682891954
Cd 8.327353882792405 7.117478035824864 9.501351640392512
Cd 13.54527656336493 4.401504212335932 7.594555373879351
Cd 2.170023338363694 10.261123992934657 8.08457882870126
Cd 10.580892483971699 10.936732953429123 9.044207533217122
Cd 14.03995876834702 12.043947824730695 9.36307647245092
Cd 13.887227169404827 7.494593395242555 7.044036137324567
Cd 13.274982488311897 9.186533986972679 10.092290531974818
Cd 9.733533094650138 14.247602866383662 7.968971946904068
Cd 4.869332167069695 11.637831940782956 9.438380826260966
Cd 3.244257301701202 9.205741120898121 10.644706192767813
Cd 11.635968110137108 13.917502133041513 10.245796254933673
Cd 13.938330910878845 6.284796426103184 9.924835329419615
Cd 7.736976267095902 10.049660987465579 10.259137283425382
Cd 8.882577601225396 3.514563724447956 10.719389948214426
Cd 6.151171932093833 4.921553475799272 10.296182135563773
Cd 5.547969573943233 8.524198911607472 8.757306669059172
Cd 10.329824243763507 8.774018657822312 11.09816033743318
Cd 12.534236858305292 11.569704861826628 11.868290305147491
Cd 6.7064610578680295 12.718569871763076 11.493721274721242
Cd 8.551445838331178 14.827457020292057 10.630408221867707
Cd 9.609084655906367 12.088725283386928 11.982731783384832
Cd 10.882526417585987 5.648087746832283 10.953276655682222
Cd 4.930271709248433 10.64879612388112 12.615400719469658
Cd 12.496979714764626 9.22542523975708 13.459575842223973
Cd 5.3727491221555095 7.456365474901662 11.71842436306411
Cd 13.07780446154346 6.4960323752204285 12.751466501193004
Cd 7.474487690675742 8.949322882361157 13.272209069621375
Cd 9.748318651177405 10.443566521362591 14.387002253920778
Cd 8.047824307913768 5.9216397285876505 12.443148685122488
Cd 10.131972841042813 7.3713737219727005 13.876077358062934
