41
Energy = -16.35927627 eV
Cd 6.724956672655179 6.00498143722699 2.193169127396328
Cd 7.418283560045751 10.552716829463334 2.3408835034919653
Cd 9.841480497956125 9.697132394476977 4.000243105918597
Cd 5.398654176221726 8.528104598174812 1.6094697029279006
Cd 9.470118953929171 6.752081343784908 3.003826108735183
Cd 11.286498980068648 4.754480804401117 4.145136869817441
Cd 4.673028095032997 9.624796544019214 4.271923159682553
Cd 6.134683766439783 5.225162078264882 4.904923109037876
Cd 7.172045765563748 11.396727994950588 5.236376780615154
Cd 7.481955526247454 8.10553150598038 5.077210951633161
Cd 10.128791927692113 7.558736561458752 6.2712956296619495
Cd 7.168056483750127 13.385019935293741 7.444490243259874
Cd 8.772794096449443 4.630189842131848 6.091001293106556
Cd 4.871868087079172 7.492638963773217 6.465566361083889
Cd 11.535357738369946 5.0044005042375455 7.117723595496121
Cd 4.964106176294736 10.450232205457127 7.17890513870544
Cd 8.043486816456136 9.49954065802186 7.734955745790676
Cd 9.8249927973084 11.95352018957508 6.5312758266418784
Cd 12.054065141613892 10.036726578905052 5.938737500861244
Cd 11.952146495888273 4.893343980746096 9.966332009774597
Cd 8.790116078788902 12.270481256921155 9.601407509776479
Cd 9.155904383673157 4.189753859255989 9.16185844419355
Cd 12.277683757723656 7.631260437752778 8.46447360453052
Cd 5.844816799616822 11.596580383908009 9.664169277486755
Cd 5.771748212947216 8.024820023890754 9.261348341563155
Cd 6.378887971043206 5.286243699275715 8.024005929135333
Cd 10.896583559895198 10.234081805867671 8.841719641881557
Cd 11.748932320237627 5.519666602551687 12.712463156683793
Cd 7.953159740524192 9.497249209732857 10.943158760740982
Cd 11.268165983174804 8.425187080725804 11.425429650558883
Cd 9.091518276259219 7.188711135657727 9.220403731030666
Cd 5.442265893098739 11.253290528735695 12.626045597582833
Cd 3.8460068765649393 9.19618766521418 11.299900407283655
Cd 8.930297945089626 6.656504428280875 12.258418215719978
Cd 6.811004865981289 4.819594570564824 10.951698214448186
Cd 10.539118957569121 11.276133629376831 11.734353948995098
Cd 5.983090797893953 7.367475245187685 12.305687217995676
Cd 10.794312480958844 10.142269357903869 14.465437077085566
Cd 10.845680317880305 7.3120544666474965 14.822053896147231
Cd 8.152685754892516 11.368430212039936 13.540449264048192
Cd 7.869394629057656 8.506706808100235 14.460819707407328
