48
Energy = -20.53941746 eV
Cd 7.971856085946543 7.642340954331008 4.301113714525337
Cd 12.770647847051016 9.22247298135985 4.464023419744697
Cd 6.986831337454596 10.545706026199236 4.532433706169631
Cd 10.721199718632267 7.268803926832923 3.321932124852105
Cd 13.384963443575176 3.5206751299747587 6.053590177634508
Cd 5.05607737221127 8.043446305756452 4.916066337536062
Cd 9.917227804453203 10.29490542507441 4.42535916789525
Cd 7.8966505291873474 5.633046564239016 6.672646526903254
Cd 4.085056597889719 13.540673556334374 7.71111294424901
Cd 4.580172354788714 10.82404117768273 6.178833020654781
Cd 10.086011227043569 8.010125140725481 6.582403403568669
Cd 10.23389754287552 4.73860214664036 5.071943383694779
Cd 10.777908164638022 1.9285735137743558 6.67926781033778
Cd 12.921094183509656 6.267395478524405 5.022768512537243
Cd 3.431576202279664 8.32904947033029 7.498040378638506
Cd 11.72974286497056 11.168936289028949 6.7625498559429404
Cd 6.3155735177161345 13.266937667904717 5.5969802544900515
Cd 12.824695433893238 2.6253511447820457 8.862973189583855
Cd 8.702273184280585 11.723839596624707 6.955022492804751
Cd 4.97468456210026 5.863011372208714 7.0337674440101505
Cd 11.578380384560294 5.7051708547023345 7.80212594141255
Cd 6.13118848415123 11.044558060758964 9.019810768460268
Cd 9.31906280797085 3.7151832981663953 8.62020577233632
Cd 7.291687480314987 8.837353256624224 7.276431243382318
Cd 2.3136747790318495 11.115660678730663 8.14500141234412
Cd 13.119412846271128 8.352301398595335 7.340226157129361
Cd 11.491900250176391 13.031134716252005 9.178953788964606
Cd 9.816516017163154 9.796125924100396 9.020818132280326
Cd 6.634594198959964 4.937102287006774 9.374289315203567
Cd 6.897821598198479 14.415050001238429 8.22443922060872
Cd 5.631901997611937 7.878722940900359 9.613013071651876
Cd 8.538977094589985 12.847550304325456 9.972166718433703
Cd 3.5469707326789304 12.531512924835727 10.462961894726806
Cd 8.58468262427813 4.021805574861361 11.558418522096668
Cd 11.484367669634675 4.421775237932226 10.779033642807109
Cd 8.840812566113245 7.118147188414965 9.523994409881864
Cd 12.778720525583246 10.299699391477454 9.5821243460963
Cd 11.985337478868376 7.461026752002494 10.138452652725501
Cd 12.145249060144668 9.325136852499885 12.43733737895049
Cd 7.791510741762563 9.672404205839898 11.155198074464726
Cd 5.052503088967888 10.619641458332012 12.041549581920746
Cd 2.733009985773401 9.031325944187302 10.369315394570405
Cd 10.33538428140504 11.47692607586067 11.72603749314681
Cd 10.122076993666273 6.597027920096208 12.34490234925211
Cd 6.954034119560452 6.424422641560865 12.144344083986002
Cd 4.284131361375345 7.668166082553117 12.510065590047377
Cd 6.539600242287505 8.816622027561637 14.04745800341977
Cd 9.427688884192586 9.119850402043868 13.687835443714865
