49
Energy = -21.44393308 eV
Cd 10.513081217339797 5.787108342903204 5.806229686741159
Cd 10.32641565341284 11.502221524368101 5.029586740975904
Cd 7.884572899435391 9.751168847309266 4.760947893327011
Cd 7.900845775892277 7.11424312418888 6.196029991199462
Cd 10.669031803892796 8.607380555563935 4.967712356295797
Cd 7.961079876358686 11.581081613494032 7.069022011145384
Cd 5.698410702945192 5.305548556795408 7.659722002698544
Cd 9.444094518777714 14.059264446888344 7.592552070919456
Cd 5.756341449194835 9.162373363073778 6.791890826351402
Cd 11.83337602324103 4.588741204486792 8.245573445195454
Cd 11.772731754970495 13.961753935775684 5.729499319619056
Cd 12.364041347766312 10.826339856658555 7.156690663272017
Cd 12.39924815612576 7.674433026555303 7.240662650291832
Cd 8.743838794543823 4.748628662142504 8.046554901225571
Cd 4.301912179322435 7.612996379145567 8.974675697792273
Cd 9.639996327942587 9.198255191304263 7.9185073797131995
Cd 12.755468467845894 4.112612018893481 11.101604016275106
Cd 3.766491071582846 10.718082647688522 8.535602412777173
Cd 10.248518878474579 15.350925202600841 10.242494117295495
Cd 5.595219431851052 12.940580919713595 8.063148475546777
Cd 7.826945160749508 7.180981497615331 9.449834992221815
Cd 14.521647853617855 14.033000901465583 6.673720977487209
Cd 14.055213473257462 6.3609010398315045 9.721283956860937
Cd 14.823323706591177 11.970331141214926 8.74140287710687
Cd 11.786462359039245 10.038251401372246 10.11521802816158
Cd 9.081913982817495 15.569227631694657 12.961184250651323
Cd 9.40042681147741 11.778672255047779 9.85445922204839
Cd 14.520891963963047 9.084468992312482 8.65526880453918
Cd 7.439858860633715 14.231723868252159 10.05188447017769
Cd 7.027489844237506 10.012094322172414 9.588158993948952
Cd 10.808659325609478 7.144835525655897 9.889731826607397
Cd 12.19414188067763 13.53857971904482 9.000366779528662
Cd 5.242479729576906 12.20252986907257 11.028386680147745
Cd 5.822276831136658 7.411906009253195 11.621455962308989
Cd 3.8150765982502843 9.535701475726915 11.284703798766117
Cd 10.687161993365669 12.920253739118001 12.374915645090212
Cd 9.256971008597986 9.127603562501168 11.522158269889255
Cd 9.781125956511822 3.677576114803632 10.619648601735076
Cd 10.888874873691396 5.7045633029006675 12.740479769224136
Cd 14.791407880693825 9.990706577136036 11.478199825308009
Cd 13.545197379379154 12.66087564902792 11.496653943985876
Cd 6.521907335297448 10.05976237593615 12.803706164828316
Cd 7.9925690026717415 5.571246993924732 12.189300909294499
Cd 13.026987358859918 7.687193529138744 12.2699788989987
Cd 7.612929214380111 12.858160520919052 12.819356245622254
Cd 9.256895141160243 10.763340378255728 14.153432399793342
Cd 10.748266959820379 8.175310113055634 14.355419329063524
Cd 12.235727846517447 10.493518959459836 13.24116887206455
Cd 7.834723020961061 7.735212799000593 14.292082530340913
