49
Energy = -21.61076222 eV
Cd 9.39029402727622 9.85190349079457 1.6219708070533263
Cd 7.629538140621066 7.440433388217417 0.7083780771152629
Cd 10.16542928255496 7.723127775129439 3.5626960189823316
Cd 6.851269494460868 10.171221255540072 3.4752832713731685
Cd 12.016616811004731 6.516061027084227 5.604726561761365
Cd 7.145196114558884 7.020971826446162 3.7017211884589027
Cd 9.605848087756637 11.575749871760319 4.011744727022862
Cd 5.638381657562564 11.836640941008607 5.64532667976345
Cd 4.736191830922642 8.343540390595868 4.736404114867182
Cd 8.257834871617769 3.3983389269356845 6.979527984671792
Cd 8.649147739368484 9.190338319964198 5.795590737526153
Cd 11.119530667918523 4.144429629867763 7.047447310779677
Cd 9.156922139696066 5.157937672317395 4.827065425561272
Cd 3.781372565241776 9.92986414860708 7.111561649183422
Cd 12.50138567272734 7.893966007399192 8.123269648486605
Cd 10.43354185805864 12.317178636353354 6.724548095937054
Cd 11.728520505775053 9.525980700559906 5.463181764606678
Cd 7.892822197917754 13.717405802385512 6.801550330595634
Cd 6.445091677979205 8.088273876747738 7.514033681012393
Cd 3.5267857869585924 6.738322388621707 6.908190412706692
Cd 6.135316059698148 5.382055046160952 6.0513179594136695
Cd 9.223391922618754 6.803961236793102 7.482807585772338
Cd 11.436848881177296 12.519367102582706 9.540296434527415
Cd 7.281444029517947 10.921736885679438 7.969370388028182
Cd 13.147633801591317 11.055212242152782 7.478256040701235
Cd 5.881378838660087 3.400732392766682 8.509174346110662
Cd 12.10226044177885 5.277986796691996 9.543459947182082
Cd 3.886316284809545 5.333103317496971 9.406691489596337
Cd 12.626202385826277 7.426848439376783 11.497088514749462
Cd 6.515333752440932 13.418890825672909 9.489019181953205
Cd 4.0346745001845274 8.29193906087846 9.714806417850497
Cd 9.968952071168227 9.773994686241242 8.53948984744717
Cd 4.429905390547879 11.255606803512595 9.647655427266509
Cd 9.403123397575545 3.867947214703258 9.715322279489108
Cd 5.1356967102306 3.0487770383289607 11.379945680472591
Cd 7.305625452949772 9.164316528093387 10.302090097227465
Cd 9.735594348316244 7.471275822497379 10.32033542031658
Cd 7.14231633716974 6.087211555982366 9.557830910362133
Cd 13.30796948541134 9.96307501580584 10.165251834771608
Cd 8.880792549972698 12.400869257026725 10.972175448057083
Cd 5.002895828389231 9.172970049777687 12.506696495583954
Cd 7.736317882466262 4.359891349603399 12.180167608743686
Cd 10.927298189142121 10.369823307343545 11.752788624538542
Cd 10.444598935598382 8.037579995060964 13.539546162854228
Cd 10.61367448377921 5.165144113606352 12.379198790128822
Cd 6.084822761863899 11.838372436753131 12.076742143715498
Cd 5.145886135130623 6.2320861108337375 11.965316896210272
Cd 7.661402839936828 7.311851360413589 12.925478976961891
Cd 8.312810618552142 10.247893378311165 13.209666008987197
