47
Energy = -19.95962989 eV
Cd 3.7290524392198368 8.511156251964435 5.294295495791073
Cd 11.191640362695342 10.082903627359892 4.467345444742869
Cd 5.631078194509258 11.155367805271561 5.1857780512804625
Cd 11.697514679920923 7.859530709645688 6.4564923907764316
Cd 8.362450592465269 10.760737026283927 4.1099680287792255
Cd 3.2178693165165697 11.024119542235313 6.83132272082951
Cd 9.59639299697637 7.67445666411086 4.078603605187814
Cd 6.726634191573315 8.260554254699588 4.915114133431723
Cd 13.028018630315735 10.603034633757852 6.763894498481495
Cd 5.415221506958105 12.750769945821927 8.160900067700577
Cd 9.887887627176067 4.785690573807904 4.901426746209899
Cd 10.590936673135774 5.071473445042651 7.856616086973049
Cd 11.020098549257119 12.687810494529602 5.878819131075731
Cd 11.096329818580031 7.817186130307146 9.487492221074806
Cd 7.9654845747340834 12.576627140654194 6.510817354712468
Cd 9.624129050261624 10.113047530652139 7.711104816199492
Cd 3.754316510306402 8.416696207680776 8.321513592611142
Cd 6.597149265847401 9.755543973258408 7.793500773275293
Cd 3.3120735935630687 11.36214562030923 9.839363477084564
Cd 8.631908688999912 7.3216333346706834 7.092497841714664
Cd 13.491047505729819 5.587538214763887 7.708993681337854
Cd 9.709287015309691 14.61880862855249 7.6922167519776385
Cd 14.65085365897914 8.324688165023021 7.73967985850272
Cd 7.791893917946898 5.139460302582812 9.12602589155453
Cd 11.53282123057397 12.059953938323053 8.90242601154502
Cd 13.65591305560496 10.037362145659605 10.008238524024234
Cd 10.252548635122967 4.794965276821448 10.815642003403081
Cd 5.722673488882466 6.375512147783598 7.0803376525381525
Cd 8.091748776524064 8.3172853836801 9.924965409104344
Cd 8.100233891463104 12.028184348012617 9.643934759921533
Cd 13.895983169603033 6.837605845912785 10.345703822096857
Cd 10.208556743427376 14.337892354655386 10.506728312046224
Cd 10.185816768732213 10.19553326001981 11.171979449716305
Cd 5.465975565871184 9.540821272487895 10.696516521109414
Cd 12.743552170574487 12.61972746930419 11.50620920972877
Cd 5.375737660206003 6.560390670111865 10.008280555218027
Cd 12.71657004830255 8.457825131021409 12.440495511331541
Cd 13.006646531116418 4.731811892821705 12.17281270173066
Cd 9.617207105873655 7.288308354196425 12.255819700305112
Cd 7.435700681542265 10.868707580812428 12.377609590946717
Cd 11.862583569035172 11.020576951250826 13.724106605544476
Cd 9.435715608611714 13.091384229145355 12.90478344308889
Cd 11.170837055471546 5.429042196483169 14.349861753528403
Cd 6.431034114341766 6.7060933937273255 12.665979246924561
Cd 7.849627922539348 8.601472523961663 14.311107570644856
Cd 10.925920128622135 8.4013385752277 14.84827395468506
Cd 9.243906209229554 11.083804327842389 15.060984521762105
