42
Energy = -17.68624296 eV
Cd 7.433863808328453 10.758930456456241 3.9970092927371748
Cd 9.644620875469752 5.22920709776452 4.908196067696304
Cd 8.471206552754868 7.912769857616199 4.049096491969128
Cd 9.095761167458681 12.654351382933536 5.702227399821173
Cd 10.600723603708918 8.135323982988357 6.164943100144059
Cd 10.442625438108177 10.310476845355263 4.114237321668068
Cd 6.581798565947477 5.623891117930687 4.08266351044537
Cd 3.9369626740786243 7.077375739777259 5.009446138552292
Cd 6.294874310729511 11.719760699789559 6.673930713434583
Cd 7.22243020461421 3.197869982980826 5.941908668066764
Cd 11.35542979800851 5.405420925777843 7.43026378573563
Cd 11.804872360524065 11.708321655782397 6.389113672641625
Cd 4.313943625759763 10.235857808425887 8.582379533570531
Cd 6.749140742325988 8.32375088233915 6.55029319854439
Cd 8.856160244046144 10.22463662708583 7.52087769966282
Cd 7.892325584159012 14.370192526026644 7.6868909527124485
Cd 5.31541673692958 5.200736814275065 6.890697799348056
Cd 4.682551347189974 9.869938968337271 4.692725297332356
Cd 12.501965912003017 9.874779419505051 8.471787441595623
Cd 9.95885743028111 2.8034648715217574 6.847146348886683
Cd 8.24871561006554 6.005969061640423 7.695888088113576
Cd 10.647015006706182 12.503417356015579 9.088155145580371
Cd 7.388803606519109 3.2881332796533975 8.981505456605024
Cd 6.588921661049713 11.612019546680111 9.772271549066835
Cd 7.068490818468117 8.130081369935073 9.501449933906224
Cd 10.379360238839576 7.7505322318874885 9.065198220807659
Cd 4.102977805400455 7.375937843349436 8.42065199652448
Cd 5.061165167673287 4.9081622047783915 9.902879146580116
Cd 12.613982110730456 5.384372931167531 10.2429700259786
Cd 12.14607996954859 10.640303863178332 11.496026442747153
Cd 10.356708969085274 3.5456315572277135 9.745741084575785
Cd 7.4618838287467275 12.370254137257232 12.871156532377617
Cd 8.32987026179633 13.96718805015915 10.521965337745803
Cd 13.51467697099236 8.139996979840513 10.594317538178776
Cd 9.149453290060077 10.082348098597306 10.418786028884783
Cd 5.687736657274997 6.802775201452879 11.943631362332535
Cd 10.460525771538082 12.864740446087088 12.325085196588462
Cd 8.457111448547707 5.604952864678419 10.846916900165366
Cd 6.5479945866217095 9.658614951819649 12.219481592151132
Cd 10.93055130192988 7.484314147434089 12.090308371983706
Cd 8.289911175683814 7.315749956268397 13.316207279627633
Cd 9.578613131122646 10.093526629049235 13.39965270574086
