40
Energy = -16.54042808 eV
Cd 9.309867326194208 11.124998597710167 4.17914125250666
Cd 7.511643184908631 6.5817115073405885 6.2753163911064345
Cd 9.844151662759627 8.19755467265113 5.021984920873711
Cd 12.07755797528579 10.550252702647882 5.176469164028526
Cd 10.216167857195236 5.412299666384928 6.176508070004888
Cd 9.53160909443092 12.663198916486204 6.68906374708218
Cd 5.043007301912167 7.945758882622523 7.1065514768819655
Cd 7.367422381417043 9.583007244942449 5.965786393663552
Cd 12.628867347443482 7.580677109567975 5.9776364144751994
Cd 4.885660480952561 10.9823936762122 6.866595086029633
Cd 14.135133415923665 9.913701647073092 7.367825135707835
Cd 6.525893308652936 13.38851429132987 7.518368771079263
Cd 10.531513041052465 9.696931672283252 7.842644823812596
Cd 8.479011397962042 7.987404650204154 9.11726191247693
Cd 7.915967637021742 10.88845876938113 8.687364995400428
Cd 12.462640516481368 12.376993109908394 7.685059863002337
Cd 8.460449905692592 4.9593172675058135 8.59683069140585
Cd 5.844120385007759 6.2341048313649905 9.471940883000675
Cd 12.995117910672159 4.549696168091686 6.664006950050262
Cd 5.954448594737893 9.279889942413192 10.214896823910737
Cd 9.031647543248933 14.641914480230827 8.958945374362893
Cd 14.445977397755742 6.858245689863562 8.296924578181386
Cd 3.14552622535091 7.53460126591998 10.813796972357158
Cd 10.635261389619233 12.372514155524039 9.969609030385122
Cd 2.91380878182349 9.432147154747733 8.66046088606927
Cd 13.591356388151732 4.081588302954215 9.510877664751906
Cd 10.768175601252684 4.3225862896743825 10.356939418264535
Cd 11.219788681797406 6.915526751676348 8.74421008955252
Cd 13.240845370239258 9.069093282427037 10.05108315476244
Cd 4.41109521758448 11.933885511230597 9.68443162080511
Cd 13.633655630596026 6.3340934446802635 11.39635602818126
Cd 6.756938526536255 13.670194771450554 10.613810832123322
Cd 8.340118077309224 11.397133403637724 11.770563450282216
Cd 5.604260925165409 6.781732111724598 12.468314119653584
Cd 10.723070145860712 9.78610119979681 11.303088179923042
Cd 8.152522923992532 8.411524796946946 12.206436022413767
Cd 3.9787247031974577 9.232827725783064 13.164481465125448
Cd 8.108763458218421 5.424896297637076 11.550082026701881
Cd 10.73159368096195 6.905215233038929 11.993745435600681
Cd 5.4590652796326395 11.609759478932146 12.497036558000913
