40
Energy = -15.68705664 eV
Cd 9.959179664192753 7.177822976090902 6.060621785186671
Cd 14.140892802127658 13.242615713214736 6.845195284060437
Cd 11.81522015868056 11.478249082660534 5.432843053055615
Cd 9.249764452271178 12.938692919729936 6.324477374027391
Cd 6.580806408979394 11.076778624983664 6.925265237279097
Cd 6.6274055133775835 14.341461459219415 6.325605603229396
Cd 9.328759272706037 10.008757721190173 6.23434396517848
Cd 4.237398996186591 12.970229926796097 7.597843785741321
Cd 11.627391868209711 14.636385704928923 7.388423351878251
Cd 11.140388380239271 5.8544781466912905 8.49325104256565
Cd 8.06227000157824 5.274037246774256 7.155544641283568
Cd 11.810530462571293 8.711281419000432 8.139145283506858
Cd 14.01846124927605 10.341178810398752 7.19047898379544
Cd 11.806740527468591 2.901853842402531 8.57080826304612
Cd 9.106806098860785 2.527658525102194 7.1569023942847645
Cd 8.832971178353937 15.269292036172931 8.326839680366232
Cd 7.222932444322781 8.182253723359926 7.5319960404520785
Cd 8.235853308241182 12.319674019981028 9.402423116216031
Cd 5.354249495471258 11.379750699915528 9.862457358412623
Cd 10.85564248383982 14.390845758370515 10.388890303052388
Cd 10.98340662042456 7.661029138889733 10.961623483767468
Cd 11.110647886595647 11.762547951914165 8.639559671232577
Cd 6.015058144646661 14.763682764179478 9.34979639915415
Cd 9.208131630137062 3.4735698030510993 10.128135300212955
Cd 8.221434713306483 6.476175852289767 9.919425955265801
Cd 11.892162920724177 4.571251044908411 11.240516905440284
Cd 13.587233039980607 10.726968759609427 10.108183407730415
Cd 6.220687405555848 8.63820115323047 10.368256903431199
Cd 10.682737238976635 11.473615275533376 11.685964076426439
Cd 12.803502017298367 9.624321925895542 12.679232766258648
Cd 9.193835639289086 9.518366896049592 9.572405934316016
Cd 8.096505804502607 4.567147607496091 12.571165996322357
Cd 6.135529273143873 13.482835039742135 11.974833885906746
Cd 7.478893982118598 10.714063737053161 12.32157821708459
Cd 13.35365430896506 6.560192719322221 12.838788100144116
Cd 10.417113180083387 6.035573099793153 13.743531241646096
Cd 12.107645574215757 8.200807888081238 15.249373991688934
Cd 8.997140859746583 13.73098316041638 12.62161537262581
Cd 9.794324714038133 9.35171169419589 13.785473955815595
Cd 7.638910468276125 7.595876320346667 12.839402077895217
