48
Energy = -19.66838442 eV
Cd 4.376281080491851 11.336168535435672 3.132910332553339
Cd 6.5376967878187795 9.178650741245018 2.9684844932742998
Cd 3.584982965677894 12.746308094304847 5.677015802252329
Cd 5.895222297174884 6.452893438618257 3.698953594028179
Cd 3.6003578235190536 5.863733607039957 5.6904066860502125
Cd 8.646216406771158 5.659583323840665 4.525634376003
Cd 9.013588753766985 10.39871770822751 4.031489436207262
Cd 3.559387242380466 8.315209113025134 3.9512351736107805
Cd 1.741595970203013 10.680983850686731 4.541954058768334
Cd 10.41926078270804 7.957306755624218 4.968521866371403
Cd 11.007231450522557 12.531225969114644 4.818206780139959
Cd 6.698413602747059 7.641922868922188 6.456847687897705
Cd 6.325028485900616 10.565755922185758 5.710717250595085
Cd 8.718402259424227 3.6204004202969546 6.726350968200897
Cd 12.15748055263347 7.833248383018855 7.8139493774186874
Cd 6.072128598700218 4.286243916887984 5.821434484191145
Cd 9.340953124347847 6.601243336247812 7.485953968537647
Cd 12.162733685980184 10.473772673217974 6.521524353014358
Cd 5.715749288887878 12.941444562383708 7.681821527619204
Cd 8.446952890927735 12.806970996054265 6.271415164217785
Cd 4.231866634714259 6.956574005274845 8.408049210204442
Cd 10.352187032680604 2.940473389263806 8.908402836439262
Cd 9.094843876045289 9.709417774453403 7.128670816002049
Cd 14.20972927716181 6.343624607561919 9.869166588965703
Cd 3.7104693809573304 9.373267308137217 6.772748570105984
Cd 12.948682219443311 3.6826478276386054 10.143346388137308
Cd 13.674220481480427 11.477191030330717 8.953167302545529
Cd 3.564131091590524 9.193008574056456 10.38823378066425
Cd 10.7146509005702 2.346426406215803 11.78351001017164
Cd 14.822902053722661 9.14875536610685 10.351283566207853
Cd 6.501293954552553 9.71783525268467 8.613820183491516
Cd 8.116736675428953 12.598126604580058 9.232822443263125
Cd 6.094598920164212 7.4200173296244865 10.683228957878045
Cd 6.752288329415676 5.35168817391081 8.595337301342914
Cd 10.649905195478425 11.219966438582203 9.245883385420553
Cd 10.905922399326947 6.079871905622067 9.952828554772017
Cd 3.2512428521431174 11.601543455027128 8.714991470328249
Cd 12.187113181292819 4.96996580012943 12.874496294254826
Cd 5.525113916920278 11.54475776432636 10.81895083119287
Cd 8.884019350658084 8.507731252749657 9.955879120769062
Cd 8.370720942733069 4.521867798428735 10.879552960818074
Cd 13.672489078313781 7.5607672353790285 12.805151794927719
Cd 8.329500801975197 11.211447352991225 11.768642350676894
Cd 9.365228400780266 3.9442190923746505 13.886867739169519
Cd 10.385833001724151 9.539633076786018 13.387655249026631
Cd 11.79916680228335 8.960406410170725 10.84980989529453
Cd 9.621861419893428 6.687151950256435 12.736148154113376
Cd 7.411194548740967 8.6674093717348 12.964103633638885
