47
Energy = -21.06351533 eV
Cd 8.932919566589867 5.549066566717196 10.881594886971437
Cd 6.114033254317529 9.945538796764584 9.770121629122803
Cd 5.927631295949393 2.687287488984106 9.681116815831993
Cd 6.7072599521950576 5.828910245508255 8.502054482194325
Cd 6.977226763124657 10.322221901549797 1.751602974613564
Cd 6.821797808907976 0.6725675139627342 5.088781261965414
Cd 1.9839589721586501 9.363219864862673 2.9359971581025115
Cd 9.85925188201363 8.234386829158892 3.5920069916876747
Cd 2.7258663770432556 6.361736665715998 3.150681920393499
Cd 4.086348354141259 1.6878053522537093 4.649508231307335
Cd 1.0377909157717793 6.532909170591066 5.618039197160419
Cd 3.3930289057662577 9.860763471706303 8.567659323651968
Cd 4.414750337793654 8.861556875652829 1.2986564225451471
Cd 4.3181347369790934 7.487314034149655 10.34874684666759
Cd 4.848779334873492 6.00498324944796 0.808351799543123
Cd 2.2271480239312202 7.1773035808105545 8.293324481246056
Cd 3.6359231318519574 4.694726970653583 9.64677687254093
Cd 9.839130900873194 3.7295627122648582 6.050056584346232
Cd 7.847770142643036 6.365966908629725 5.6670616925036414
Cd 5.140943937549666 11.399263766591682 6.7645899860389385
Cd 8.930349918814356 3.2712967111215208 9.00477011749258
Cd 9.87744978058529 8.671346600411896 6.546869972959221
Cd 7.928912515533178 10.695802964419512 7.485719150111801
Cd 11.310604820666244 6.269367622456431 5.376057323842985
Cd 7.486929034038915 7.295180590595355 1.9920372486936953
Cd 8.9204129283915 0.9694358604722798 7.2031424527348635
Cd 7.556051446106453 9.807432644503026 4.704664971165412
Cd 3.6311389459553234 3.6685010160666067 2.231023648873255
Cd 10.115278461969362 6.008590428900415 8.107009739163564
Cd 7.002377404307839 7.71191981281634 11.56885601775914
Cd 6.047020967353637 1.9260764539145636 2.407963460973879
Cd 4.6518473734925205 10.71094555488488 3.8573390591466525
Cd 5.8486105811014895 8.184325819352456 7.085302380742636
Cd 6.638158414592024 3.55567053816684 6.573729926171614
Cd 5.877755471985403 4.75596251771079 4.067655433015159
Cd 1.4031270045240183 4.3383800869371285 7.728078460350837
Cd 9.463262679755548 5.28274873427266 3.216196205119391
Cd 8.704903462758713 2.491389791781005 3.6239731116607055
Cd 2.209193048639591 3.876591422117245 4.902441730518987
Cd 7.309936090482821 4.379688371812399 1.3069684961138435
Cd 4.3107991345495815 5.629906623844512 6.490643497736865
Cd 2.894253894489545 8.905711609674738 5.805140152220721
Cd 8.753098143078807 8.39333538968844 9.265480917058447
Cd 5.334140885359244 7.6319175403083115 4.212392747262944
Cd 6.052834998497024 0.31724225133586054 7.9617166953774925
Cd 6.025144566776011 4.8934847416534195 11.619345033158494
Cd 3.757824823209845 2.4717677262934488 7.469863883629122
