40
Energy = -16.00571938 eV
Cd 8.452853837058479 10.030533477799446 3.5819780098629073
Cd 7.204637468605469 7.361902172881804 3.8218887297814765
Cd 5.917333606243668 6.790600669174834 6.436933143336561
Cd 8.775407057394734 12.021799292193531 5.924316117061687
Cd 11.748699404034259 7.709792983025929 7.428614036739415
Cd 5.650680602863459 9.875605383569917 4.723716662227116
Cd 10.411729903438445 9.474742461767843 5.63712236700391
Cd 5.6889306107597735 12.14746051728516 6.6877089403016114
Cd 9.058317718708146 6.779241042236537 6.212284087201685
Cd 10.62711065360539 13.74177669131887 7.595034117210573
Cd 4.7456066484173665 7.083632461091367 9.152452579476185
Cd 10.644733190559112 4.258158581623218 5.889443947293864
Cd 7.386249437827116 14.497470674311492 7.067276398884964
Cd 10.752696520744673 10.798545727609067 8.427892432208857
Cd 7.5512356829909715 9.25479720679036 7.291507667042721
Cd 8.924251074379827 15.749409098557889 9.218778525222344
Cd 4.309274524780107 9.529434347975029 7.50019716632769
Cd 13.31972047065411 5.00558283769008 6.831081307778553
Cd 9.397580961611252 3.346040893570794 8.48177141082075
Cd 7.820063232648528 11.591228184486805 9.045995252257864
Cd 12.478926284720954 3.617174934264385 9.441175161609731
Cd 8.885492981196956 8.639786724924155 9.853077800638514
Cd 13.794611367045805 6.524860402193069 9.319681048276808
Cd 10.571639466604843 6.114709754230083 9.707793590105679
Cd 4.1559861555894395 11.893934768956726 9.275851309605317
Cd 6.430537624301741 14.155496879686764 10.076952222859475
Cd 7.656788362635981 5.886920072593267 8.892028617916479
Cd 10.223410890260975 10.690454342866758 11.754028871052531
Cd 4.653394770875403 12.649433317051498 12.055172592674682
Cd 9.817613201628753 13.32931424656765 10.60288554941492
Cd 13.833985512653024 4.813800651332831 11.995409474426117
Cd 10.884516395744058 3.9547703257376408 11.92455605584684
Cd 12.052916661859259 8.858236649197691 10.382636415797807
Cd 14.547446252128285 7.725428024544493 11.959541257213445
Cd 11.729754107656687 7.110004521723665 12.906971638676652
Cd 7.8579424122664765 9.071760421879462 12.844466585360456
Cd 5.919743358691585 9.636619170218934 10.361151771880277
Cd 8.955418508355333 6.21257530484486 12.495164277711671
Cd 6.2773473227452445 6.726071325833978 11.577373495029653
Cd 7.513157689370829 11.968635390049933 12.245831299517548
