40
Energy = -16.43342981 eV
Cd 9.150532213054445 10.834425796050363 3.8106778343473886
Cd 10.92836704407969 5.93062657345462 4.466526323882576
Cd 11.468404391231505 8.615065072590747 3.4245301357328923
Cd 8.518575482241301 7.836179247112891 3.1358767710247974
Cd 6.581391766057712 9.622088491428936 4.716562661303485
Cd 7.499170178743114 5.2313208286148045 4.370498868904511
Cd 11.716771416231863 7.981623073665292 6.720770252209675
Cd 9.692178364498654 3.5328015983973438 5.766780476693641
Cd 8.730625101371281 13.182974463070337 6.1855285176363655
Cd 4.234849177188073 9.582165433785608 6.394251867125663
Cd 9.267331516826378 10.193592655697847 7.006313168110959
Cd 11.775427343095268 10.760991146242329 5.401869335494959
Cd 6.350633457719767 11.636236154974808 7.439394740028043
Cd 7.568843715927806 4.680346241057906 7.50956597314408
Cd 13.35028096640595 10.699117661772194 7.9300525978142336
Cd 8.52936756535981 7.489760585629267 6.208804627976275
Cd 5.472383091816883 6.728224144043591 6.479083955812491
Cd 11.47909788383088 13.101047416034119 7.306518302757497
Cd 6.891949335674535 8.76334259584007 8.451613159875683
Cd 11.072392525292429 9.339987093743465 9.386451461942382
Cd 3.9055040666412615 7.998535633917429 9.01795440504645
Cd 3.6868277781917507 10.96586716334904 8.930832183112512
Cd 9.290018016176854 6.823499929986058 9.003149437308487
Cd 11.474881595983204 5.103941807669228 7.653048420991939
Cd 11.490372374645377 12.27060977120439 10.136064307820059
Cd 8.600433735228636 11.675873609232509 9.520641417663775
Cd 5.142660097277684 5.278819195538853 9.150789692061105
Cd 5.976047080050645 7.2314773737881 11.239345743584865
Cd 10.799807032402056 4.579451472083073 10.708382135172348
Cd 7.722333685068712 4.765610103879816 10.655688794024837
Cd 11.419846697691595 7.36766740664337 11.593866604789232
Cd 8.501244157806129 8.90220298033824 11.013664547432743
Cd 5.958567031741494 11.051821398505561 10.820063612508735
Cd 9.46510615045206 11.834967290321318 12.414107253352315
Cd 4.864195633168114 9.341418698169973 13.021731654846725
Cd 12.177787902818627 10.292041037916668 12.307038445417097
Cd 9.205637276477772 5.71566072099803 13.096039283973381
Cd 7.250543771614872 10.823187609413553 14.054662853868903
Cd 9.90594963448918 8.89460620206005 13.782329967449682
Cd 7.182854351124232 7.640014927475342 14.068118813455152
