42
Energy = -17.26892901 eV
Cd 7.380476914616305 12.166011558482808 4.031568405960964
Cd 5.745026017668582 9.89522891628376 3.4544553287594844
Cd 8.52835967716942 8.866168443641762 4.813275813521281
Cd 10.090943659133975 11.593334362995938 4.806578902759597
Cd 5.32628118737108 7.143716117399486 4.071224478293399
Cd 12.793263358287826 12.066599394782978 5.828711852009602
Cd 10.016625094098703 6.251692228232819 5.5218785860420185
Cd 11.48902999338658 8.853239272560954 5.347980712142457
Cd 8.98242370165603 3.467291449550329 5.6833448528165595
Cd 7.621570742337588 13.28420634232019 6.736279463949866
Cd 14.220277915376107 9.531186924907928 6.29637022036662
Cd 6.41979611473068 10.170956183913882 6.5708352936038175
Cd 10.309232232237218 4.503156764100153 8.107624305141506
Cd 9.724044074247916 10.160329019950536 7.591204897177826
Cd 4.996261868158091 7.647060439900988 7.126163538994619
Cd 7.322792904816061 3.675469367358728 8.298672769617692
Cd 10.561577421602648 13.386148108482333 7.395028583481525
Cd 8.055269444923116 7.214615076284223 7.610045362592462
Cd 12.69738695266006 11.579190166913737 8.807427442541867
Cd 6.550284877453934 5.229327324517434 5.810509834784299
Cd 11.330009080032909 7.4474809811452936 8.193806450283237
Cd 2.6355455658810047 7.188474486528784 8.926773273362926
Cd 14.29739712556676 7.954553283688139 8.742916407130537
Cd 4.550416775188856 10.23302336637062 8.917477709252429
Cd 10.04308957545594 12.505081643946072 10.151524345871923
Cd 9.085569718167656 8.65819732899767 10.065144842831986
Cd 11.486744949559073 10.178091860845973 11.378675180052717
Cd 7.426888849449124 11.438366205860438 9.115192922032168
Cd 4.144961658804815 5.777368339564868 11.199555703640113
Cd 6.267793700192563 7.667919640371369 9.944917787299596
Cd 11.403729954407284 5.216147034196659 10.686232246377115
Cd 4.668146652812491 4.907480533432298 8.442551791196166
Cd 8.41576398379156 5.352678564961915 10.440878303233472
Cd 6.329885777338211 10.227655486046807 11.516767354584905
Cd 2.8344202143789623 9.238185981189648 11.075545773547953
Cd 14.452998947489936 10.126831273174497 10.734832160281167
Cd 9.018911094616417 11.135523469771796 12.585750365593016
Cd 12.919665235364237 7.557080137927525 11.39568616766318
Cd 6.760547255425092 5.955258723705744 12.794678432365238
Cd 7.794316904870221 8.697391169051572 13.690105891338796
Cd 4.752244219154229 8.16130134185594 13.006604345835287
Cd 10.03595767512301 7.176910749788005 12.571130966670257
