45
Energy = -19.67881763 eV
Cd 10.001123811605229 11.910905036734635 5.305805467055315
Cd 12.194012726827133 8.00986891161124 4.339083962400094
Cd 7.231974313774014 10.906510952106508 5.691556400607327
Cd 7.407745536850457 8.35242258149956 7.092632144320555
Cd 12.5646109139355 10.527850008080799 6.013347181946135
Cd 9.47729458935755 9.058943653263798 4.847592941235987
Cd 11.32938964708784 12.70199546313464 7.772812527735429
Cd 8.078359397352324 13.497197569319383 7.000711889766796
Cd 14.326016542237465 8.130173600736029 6.49294956719062
Cd 8.945262646152905 10.764568231693431 8.541164566965273
Cd 12.288973714644278 5.868446015518241 6.401927202719742
Cd 9.384352127372239 6.26254720729643 5.8548997360227455
Cd 9.535425892319205 14.963751642717519 9.016689303549365
Cd 14.086190332222253 9.71270009198276 8.989143064426935
Cd 5.330915975866207 11.933123415934377 7.689252854112384
Cd 5.264044817772485 7.268580333455966 8.97842236247914
Cd 7.238662360272286 12.876034658857774 9.883953302042745
Cd 10.799229007086094 8.643033931603496 7.773163318273036
Cd 10.49179991046683 5.442876392521591 8.815776770336301
Cd 13.126659353656091 6.8706314287002455 9.108950892261246
Cd 8.65720846867519 7.883971187527583 9.912583032879489
Cd 7.553054738329636 5.432463408654727 8.027032701157129
Cd 6.087785122364665 9.951587653262795 9.96283048729604
Cd 11.307691724404144 9.319859172277145 10.599341740391527
Cd 12.15149079753596 15.095756498509651 10.305477337968608
Cd 9.127044066509422 4.888932575593634 11.389825729866335
Cd 6.322156608492972 5.111808463404548 10.764847413904526
Cd 6.306790532529538 12.765923186259439 12.723669641137459
Cd 6.189821752975315 7.622910949801924 12.204350854412162
Cd 14.506121750132511 7.7633129329360315 11.624403048269208
Cd 13.598893663546118 12.513505643343874 9.63974988266903
Cd 8.60122803322582 14.529504808477817 11.928619218040117
Cd 14.073918693431594 10.625042907359608 11.996888703481577
Cd 10.564507932380662 12.193175843566454 10.733899370781952
Cd 9.300212633062316 7.5373356140887555 12.934588076657278
Cd 11.767813175461466 11.616912976463407 13.594463049124002
Cd 8.522226114725719 10.373048745014302 11.786227126406764
Cd 11.800930328960316 6.173322756540498 11.675925599920152
Cd 4.987087590045314 10.259959229842 13.011054178896206
Cd 11.176076582063343 14.583225944076386 13.211476668479506
Cd 7.081985626057521 9.036724706327574 14.7162385061085
Cd 13.820813933489026 13.631811553817123 12.401607099181973
Cd 8.890985893139712 12.486047265309455 14.238107269959894
Cd 12.146226566222735 8.583838577969908 13.495013179175533
Cd 9.837812888896124 9.799785106323961 14.993873461904371
