49
Energy = -20.1415373 eV
Cd 9.302243063855538 3.4733824773823496 0.7997678105897779
Cd 7.400382428055969 8.232178932372797 1.4694876719415657
Cd 7.5567245497460656 5.280798445270766 2.6039748735113175
Cd 7.744544330961582 9.481852400010713 4.357409729910912
Cd 5.178564497525498 6.981683272987762 3.1238584287668063
Cd 10.90002613357881 4.904821128104869 3.005166989705466
Cd 11.027770432077382 9.811765449080697 4.661698112134221
Cd 8.107038354654179 11.611094951918554 6.381371380545728
Cd 9.868381646454603 7.636340264162331 3.143932687878388
Cd 4.696236931033567 9.350643038162884 4.9067370638250996
Cd 8.638513221579638 3.4851186087414003 4.745178834809834
Cd 6.8411921940117795 8.7736012727504 7.386771473379984
Cd 5.306425642196392 6.468783892139788 6.056855814477637
Cd 8.4224189480876 6.533256159099645 5.636287982909373
Cd 11.758065890951507 3.6236332413430565 5.541897787952345
Cd 10.190425196360511 8.409365301096036 7.3205768104442095
Cd 11.02544744217319 11.42902780717484 7.033566657349661
Cd 9.254983115777192 13.242111579699106 8.732102249426356
Cd 11.966881942973258 6.5958505156235585 5.685601558412012
Cd 9.987341920559842 1.4487108683059546 6.5255369112954265
Cd 4.950544926019731 11.420112584064665 6.8607341398919175
Cd 5.470684630412522 6.410341773504298 9.049682789195366
Cd 10.086098667595188 4.830864503178057 7.79763300093128
Cd 12.146499810995385 12.600542335286748 9.509769694848469
Cd 8.440912901734524 1.5198319100526283 8.973211396188587
Cd 12.470095566688547 6.746484888475644 8.849376611492408
Cd 10.08107946934712 8.408399204982146 11.56705791295222
Cd 6.352965158477899 13.493596986653104 8.45841591593731
Cd 12.063866105530504 9.59146684294229 9.4132923629947
Cd 8.750283917304849 10.232777854349115 9.382292549585907
Cd 8.444684547084517 6.993908893512033 9.324364793743857
Cd 6.980727325323744 4.227828538496479 7.19101839699943
Cd 10.654240584009562 5.507723885041753 10.824738404979955
Cd 10.383538991260693 13.976338533556163 11.443879605116779
Cd 6.626361518981926 8.612734747985263 11.311953689294546
Cd 7.680577097667653 4.073301716599782 10.090463877719225
Cd 7.985454671877998 11.648236064938162 11.808363392273755
Cd 5.563565637498531 10.821073561629072 9.763007233864672
Cd 5.932059470788506 5.700234872878114 11.928886052829709
Cd 11.219350851449935 11.15257267797732 12.007451934971977
Cd 7.3265803273569245 14.70023399555925 11.29646081182395
Cd 9.049895142937318 14.594584917137276 13.918493214313031
Cd 8.129999073984159 7.410128849423136 13.698535579248096
Cd 8.70024131780032 4.672208831484077 12.869622986782145
Cd 6.489817455412173 9.896207714773306 14.124674918272477
Cd 4.578674019714904 13.49456683931206 10.891925505428478
Cd 9.610981072070858 10.069113323896431 14.238764767818145
Cd 7.837879142432545 12.344998475422388 15.238479845737595
Cd 5.287845972575565 12.544678328408036 13.518781042445758
