49
Energy = -21.86597897 eV
Cd 12.416211652811526 10.691102915355483 3.711957632453344
Cd 6.137557335094454 9.359438079759265 5.015332178926153
Cd 12.610389704130835 5.783259319801732 6.813408750257434
Cd 10.49309383650378 12.897038810351756 4.0118386272238205
Cd 11.915173598891329 8.177181006670006 5.191823751713031
Cd 8.01240476815517 11.600166538639584 4.952869807841333
Cd 6.948009532192773 6.639328588231072 6.085504665807494
Cd 9.849216201752167 14.089704257448943 6.812812363845884
Cd 9.84962538188114 5.704864995515225 5.891222795511073
Cd 14.751104407889926 11.110847171458314 5.618759312523201
Cd 9.040978901586165 8.598728501949193 5.173186766355361
Cd 5.387643401330784 11.287891691764782 7.126093286196451
Cd 4.622416662065955 8.319315476952731 7.429310576566062
Cd 12.538177396607992 12.953726724120337 6.450847604225516
Cd 13.49095172431938 6.614709278327494 9.514336693948723
Cd 8.109360308337921 12.064841188470977 8.00155526309488
Cd 13.839667033190626 8.710451339929627 7.418299953599911
Cd 10.64333746825704 10.591018141699106 6.742720666664781
Cd 6.186586051329596 3.5129864640887334 10.097004905732852
Cd 3.846264564093186 10.340311444494159 9.578286819241036
Cd 7.9020103100723915 4.102453296844903 7.435165069579554
Cd 8.680647102594968 14.30905628694737 9.928322437518878
Cd 10.576065414506619 7.999747686096917 8.317447878719337
Cd 5.118545747693627 5.529715764842204 8.261188764875575
Cd 10.262656856896747 10.87538194142195 9.72244211542219
Cd 5.707814760029603 7.979723395539003 10.207851767276537
Cd 7.755595258776428 9.112794484261931 8.101394936808642
Cd 11.501559087536396 13.713342204194442 9.379486103980888
Cd 9.635123827747007 8.437117892409898 11.335403019613725
Cd 8.281252901846491 6.508514578990489 9.41978427177931
Cd 9.049081186081528 2.799244100881242 9.835023611078126
Cd 5.6902383212351655 12.863808699495955 9.701205020876563
Cd 12.043454623377498 6.538750643646296 12.09881583134231
Cd 11.058273154438911 4.905342184785791 9.265432870842169
Cd 9.476233489803894 5.011886807548995 11.882909613470403
Cd 7.019718318269469 13.583545382515013 12.213740124440266
Cd 12.885071455023684 12.314188065476982 11.57147503017555
Cd 13.541571590191229 11.378069820366045 8.756081406605054
Cd 7.472310858322388 10.442554554897246 10.84068144754567
Cd 6.080942558906181 8.709536923664432 13.149840567501418
Cd 12.704723661434626 9.208432088241468 10.697399982632938
Cd 8.37107497736268 6.943927552282324 13.899534307279279
Cd 4.418760885293789 11.168364051653176 12.289732852559132
Cd 9.792377544733409 12.372459185337792 12.48539904815901
Cd 6.439570689333739 5.6803977992601915 12.014959973729368
Cd 9.022931498821551 9.86998671368807 14.09329150854986
Cd 11.890902123030532 10.27435274119998 13.418554470238494
Cd 11.15214090236659 7.653207452098621 14.707398573767637
Cd 6.656767407622455 11.542772210153586 14.208451415674945
