46
Energy = -19.72266945 eV
Cd 4.66998910584592 2.080914666760047 0.9253414176749117
Cd 2.026109377827958 3.9567114698237638 1.9371729879679236
Cd 7.641473499504876 1.4504103131802604 1.6728544108687606
Cd 6.713003639201907 7.1311149642966685 1.0539683629785763
Cd 3.985405696349163 7.686238012907156 2.3376379831223626
Cd 7.519104414292995 4.241803591156122 0.8255341080381796
Cd 4.616190956925203 5.065323369040706 1.2120560706090462
Cd 3.062658927869225 1.768736055852576 3.652820980521037
Cd 1.428883890447399 6.559345891788037 3.4846110701775728
Cd 5.490058838298734 11.790393288213302 2.0665974536328604
Cd 9.190176733633338 8.017524598794873 2.281586279865586
Cd 6.340702118185201 9.259778991680529 3.2066410780705077
Cd 9.885868056130327 5.031729459335561 2.34012431962324
Cd 7.103025837493905 5.918551782279595 3.9774421294158495
Cd 8.030669856870674 1.4260910658989807 4.68844678130825
Cd 2.3372929744484052 9.281226983094527 4.257152011360701
Cd 4.1351218382875246 5.500350628198939 4.650274864309796
Cd 8.995570728939288 9.396618858446145 4.920469574264716
Cd 5.427380469473567 8.0038351113083 5.846248044696326
Cd 3.602730893240435 2.941815791040137 6.36182602620322
Cd 5.776937498212413 3.227306340217936 3.7595596475703763
Cd 1.1525025460855953 4.032404827073605 4.913003625854043
Cd 9.59683549638821 4.009433988032568 5.102400763636031
Cd 8.347867729363276 6.752314758792169 6.537592251773484
Cd 4.571438317248626 5.895079138943908 7.73779623779961
Cd 6.583150703936978 4.1140900968758185 6.5306299764173765
Cd 10.71579507826331 6.785752401894193 4.655938636652474
Cd 7.731215949536599 9.636640987616317 7.6431304241665154
Cd 6.242213399662823 1.020047495962589 7.243445396533543
Cd 3.776280048380736 11.209189927649112 5.772079575458784
Cd 6.717631925837028 11.298078629849272 5.375693346232165
Cd 9.312172300187871 2.18396350102553 7.373033878246602
Cd 1.8966580013012433 7.250654977442778 6.378077834480607
Cd 5.067357685250701 12.268831348698125 4.901223062928898
Cd 5.4220430797553005 11.7903932882133 8.226351494608409
Cd 1.13236869641975 4.624383090137908 7.845535321176976
Cd 8.547294006133471 4.82058476949155 8.742804235863009
Cd 3.571187583920921 9.211853938009753 8.198430820861068
Cd 4.507413245916067 2.622623544053327 9.103669763626579
Cd 7.256558155273952 7.406096663539735 9.465483818297919
Cd 5.973428569875436 10.01343051460426 10.407899592504288
Cd 7.396981359966502 2.2955779776568326 9.659324684691867
Cd 1.751307159519454 7.151524526780434 9.340853541973038
Cd 2.778554762071681 4.614395764091653 10.409813880338175
Cd 5.9165607915899505 4.877807660544374 10.421381663339742
Cd 4.307389385629667 7.463565808463327 10.806601899253046
