41
Energy = -16.89519973 eV
Cd 9.80480807107843 7.602382105412047 3.644944049364554
Cd 10.46134971824613 10.562067794529089 3.7635879520553064
Cd 7.105161471020517 6.834715271916275 4.621004908147619
Cd 5.873289363867212 11.700628062361332 6.291263950989593
Cd 9.31214737943441 12.22218119387195 6.030128226876483
Cd 7.775953317700254 9.87016315690959 4.915462387741976
Cd 12.52079421512974 8.655851887885408 4.553166720138432
Cd 9.357947893246386 5.456952160923444 5.928553849999007
Cd 9.927371212083152 8.669072457493474 6.916493554435475
Cd 12.21738358871207 6.323915997010397 6.327699330634413
Cd 12.208065858676278 11.375222259783909 6.184550064834286
Cd 13.212809056476136 8.937699009668354 7.530230726143628
Cd 7.8460673313137494 10.307176322371667 8.288881307707236
Cd 5.113969906475652 8.654091292683857 5.807634971309879
Cd 9.742186765720072 6.527879260281803 8.94126293533255
Cd 8.67482443105105 2.9171751332861287 7.333081878831385
Cd 5.500086342817654 11.978889047773709 9.441599990125683
Cd 8.649606465482883 14.314170309970747 7.931171852786793
Cd 3.672705951030525 10.017792479092346 7.857801619509072
Cd 7.036966504824072 7.3864439364282575 7.842932443858567
Cd 2.929591942784363 13.093724469190805 7.974473667002837
Cd 9.223441086458664 3.6423513738965827 10.260875903516055
Cd 5.725269403295272 14.430085775911905 7.527932330626964
Cd 9.711489698707428 6.053911377384609 12.096170784968816
Cd 13.318483470527305 6.480568562694668 9.193252474633413
Cd 10.479281674866549 11.75339704359578 8.843197279907205
Cd 5.2583217235996464 8.862970404533216 10.058382187566822
Cd 11.449006821518621 4.08947453776499 8.136648577747456
Cd 6.673478743043565 4.619124513934914 8.853331786640846
Cd 8.24122900858518 8.495214053984505 10.682296429907371
Cd 9.623061690109502 10.93809712292061 11.791762529627313
Cd 8.08307433476909 13.1958217702749 10.563470953935958
Cd 11.250617501959974 8.98636391012198 9.85048513700468
Cd 12.61554809394865 7.282398064280728 11.996216371449092
Cd 5.537710102615927 8.362191474170546 13.016631289690128
Cd 12.05482739034666 4.454255613956274 11.113734178016546
Cd 6.643938211262991 5.930499327879743 11.534882836518946
Cd 10.570704805655986 8.663009093330123 13.58931414696116
Cd 6.481847842906169 11.104573965335621 12.063046874775804
Cd 7.902511176810833 7.048862101591999 14.232515200108756
Cd 8.050368717625767 10.035934589377666 14.307224624357346
