44
Energy = -18.38548053 eV
Cd 5.278538290773893 7.636801799110366 1.5832505358201596
Cd 7.025897848810576 5.225914984097439 1.9470429070035422
Cd 8.342620864042175 8.015481464537109 1.8440567401700247
Cd 10.2251062946195 5.745613415098649 2.808455501145156
Cd 4.298178906976772 5.144504306410917 3.2883686300403574
Cd 4.126835453494923 10.01433562229793 2.9319440807243113
Cd 9.039499038335292 2.951265971694839 3.052023666475802
Cd 2.306627528595567 7.567806726484811 2.9834108876706376
Cd 7.122057097842777 10.295063871931841 3.5519305752425114
Cd 3.2510603043347928 2.8924572853375423 5.366173859945444
Cd 9.2478301043755 8.432649425028577 4.736586386619093
Cd 6.126470951302835 2.899012070035506 4.094628038711921
Cd 1.4101496486669562 4.967680457753219 4.377601320529206
Cd 5.9239197602757905 7.703124809376805 4.630856646336922
Cd 11.37393277342395 6.381278273543337 5.47381848090192
Cd 7.931505150852601 5.642708285330567 4.743254211956585
Cd 3.4769957241914407 6.721682203853525 5.92361101813542
Cd 8.342097761136486 1.466443098029902 5.639233093192952
Cd 5.047018007561884 10.973741188731005 5.678916221852639
Cd 10.882414656867246 3.4029235100635495 5.438732638857604
Cd 2.3288052877275187 9.494359605265709 5.40762327399566
Cd 0.06854583079513007 7.362264305892836 5.548478235547241
Cd 5.565226303851568 4.851861671907978 6.542694049851975
Cd 8.313868195422508 4.0723812945242335 7.117046999386415
Cd 5.402353206591269 1.303635955281245 6.667566710701631
Cd 3.1391200861763067 10.797440250559088 8.013177950779093
Cd 10.696277295908132 1.7229773488483042 8.008229589943978
Cd 7.811109302407248 10.112185637857769 6.7549283362293675
Cd 5.336263502189234 8.19951859186265 7.509665607995046
Cd 7.917271525549496 6.941641440953347 7.479185318944525
Cd 10.656937997155119 8.286010804764336 7.674290878006138
Cd 1.5244580300670518 8.029259105561842 8.15467259896735
Cd 10.948910438385765 5.196407353254766 8.195557847693456
Cd 1.5342475507315865 4.79373940950466 7.406092957068585
Cd 7.442821418897309 1.5627513354441056 8.738695956770016
Cd 6.014431793516762 10.627730468753334 9.219396044112091
Cd 3.855711015443938 3.0372196661638173 8.466054036739171
Cd 6.363881972218483 4.468720782713237 9.555629894139676
Cd 9.261455362490894 3.5298881362085774 10.091689031295198
Cd 3.6388059569842843 8.850755797341805 10.209965382609939
Cd 8.653240568798275 9.335987543477131 9.633098749734728
Cd 3.713339487452776 5.973772142293901 9.208684189515244
Cd 9.20886389213281 6.461247806477411 10.467495918485795
Cd 6.344117087822027 7.426574051537104 10.355004275351893
