40
Energy = -16.17663566 eV
Cd 7.217778550448922 5.664217004347986 3.768249499263337
Cd 5.886233041431001 7.530432036576735 5.6346512554989365
Cd 8.692580835883582 8.263032296624967 3.211668939322573
Cd 7.807631784065829 10.11611724480119 5.341623835325621
Cd 10.931617919878379 8.516872196504895 5.358998363117954
Cd 12.07943730161762 13.415726959225907 7.662313604384413
Cd 10.330952298075703 11.047926900387703 6.866013474204445
Cd 10.17781413334648 5.77245725759825 4.235254412426504
Cd 7.524170169570671 4.584165339606213 6.531330862564142
Cd 11.516130799759605 7.967138639302836 8.325600965036347
Cd 3.6728142284701546 7.72848313743711 7.826554880583637
Cd 12.964617178292466 10.594192338801161 8.346373835297493
Cd 5.3020700263251666 10.21617697474439 7.00956279748086
Cd 6.3051631751386905 6.44093374756087 8.750941539774416
Cd 9.157381652219977 14.56432215628336 7.768253273861373
Cd 8.61668150645616 7.485027176925116 7.046247318713681
Cd 6.914543301462754 13.309328424036122 10.132325227821486
Cd 9.780249563549622 12.179984819498648 9.985069269701384
Cd 8.852009543727974 3.7187561610532867 9.09409925873534
Cd 10.709064375053037 5.033704001165507 7.020266278082694
Cd 9.006459181787116 6.959343171760383 10.094666044816684
Cd 7.1944727436137 12.4862211907501 7.229595948655569
Cd 11.35916366675644 15.509894607823114 9.697292105297109
Cd 8.171459333299405 9.823605468698625 8.83638498213549
Cd 12.707778055563843 13.074182450642148 10.723920698568252
Cd 8.974479736813088 15.429354941256651 11.331761212190283
Cd 6.933595967623777 4.639172919986054 11.235876787233053
Cd 13.156692860193278 7.361499477270434 11.21821645524084
Cd 9.550177597166517 3.5450628466324527 12.139285320083133
Cd 11.53597545607886 5.245529691675381 9.837392799246574
Cd 10.420415102630137 9.426521876556867 10.96540426171251
Cd 13.315060783776005 10.219474382063105 11.284574428392903
Cd 6.31250877743347 7.4524634038687205 11.937081915571046
Cd 8.468214078781175 13.047208921907853 12.944949469701454
Cd 5.375222019371684 9.316339754657529 9.851962003620374
Cd 11.032570184604 6.007759194965753 12.777514807334104
Cd 7.312720130360192 10.48609916201344 11.80563802333264
Cd 8.910488343024626 7.968775634759926 13.180183335111163
Cd 11.36949210109077 11.88695293005658 13.104512451195
Cd 9.105436722740308 10.616867387655807 14.539712286846331
