42
Energy = -16.63055449 eV
Cd 10.60165964552287 10.845892186733586 3.9388831113885305
Cd 10.506481339852558 8.004204991558053 4.839665987739667
Cd 7.831238635841881 9.745912895766587 5.172814839581811
Cd 5.328510684769701 8.285071705355406 5.782675096911131
Cd 7.744485304285031 6.614058801497844 4.992495385551497
Cd 7.943023826800664 12.318184168734586 3.4273103328998418
Cd 3.615351392821227 10.570876003555743 6.8020010232991455
Cd 10.10138291901653 5.014521501148431 5.7246096323411395
Cd 12.810707211437737 9.379681814352958 6.196425834359173
Cd 10.406982981287635 13.745023285156918 4.586276425754238
Cd 9.384285537381963 11.62767507323258 6.938118583478608
Cd 9.360140423199379 8.801067585377291 7.665857822665277
Cd 5.738595995857005 12.041696668521954 5.4067944191409465
Cd 12.333939939319606 12.283830178737421 6.60364574176414
Cd 10.274577191731318 14.87121546130426 7.38593498298522
Cd 6.159499223384276 5.9821536643520465 7.44627969894682
Cd 7.63864366025701 14.273930317887272 6.100251384510018
Cd 12.708610701220675 6.203562585804486 6.536232587334575
Cd 5.581953258911731 3.3614766583106657 8.593505668986106
Cd 3.8514893213871355 8.161357646348353 8.491014852145055
Cd 12.114531334692398 7.9075842422580624 8.862014093859985
Cd 9.19043217292995 5.997440638705786 8.430440737578504
Cd 6.743785492762413 11.979956005520918 8.217645632879703
Cd 12.207461456197674 13.615831516603077 9.364474521789917
Cd 8.53356407567857 3.077050979617557 9.2347368072942
Cd 11.56649682509847 3.809925431570019 8.193902777336934
Cd 5.12056556911798 10.319877292329208 10.025100086741979
Cd 7.134068597961807 7.994048700062503 9.509968305712803
Cd 9.20702508178446 13.352142601507538 9.852609111821497
Cd 8.24933965945288 10.669029431965347 10.577013325057347
Cd 4.549439690676371 5.957565180573922 10.232285091092137
Cd 11.201598770833211 10.785145698666753 9.247159808186746
Cd 8.429413072113325 5.884802466677827 11.40153373236145
Cd 11.42915613477993 5.851083261064575 10.953467822561969
Cd 6.323964722239254 3.7265247193171134 11.560144452359292
Cd 5.2945280779033155 9.71291611487922 12.851065025515414
Cd 10.45719164496747 8.624612483204931 11.261821253142907
Cd 11.014380981571954 2.9641135131601017 11.0172031446689
Cd 8.071502933756822 8.637704625310187 12.931144419470291
Cd 4.484089578127951 4.029406721776806 13.993701786723129
Cd 5.767727165346066 6.638397286286095 12.816193717545023
Cd 8.534859251162235 1.8801293786467752 12.382262417956044
