44
Energy = -18.44142836 eV
Cd 4.947652544570649 4.988857926735174 1.8919765692438177
Cd 2.044931278275057 5.19480283479659 2.545459104779076
Cd 3.818135395131885 7.612921421447652 2.965325922933258
Cd 6.8523994959157655 6.825855515163838 3.654363201162948
Cd 9.55250356150041 5.4491144593065775 3.754342909551495
Cd 7.123174871000381 3.628006752902846 3.4392961114367284
Cd 9.531467549223478 8.346161286806257 2.885635002682418
Cd 1.5051451344770668 6.439313206562169 5.3891469800989915
Cd 11.982317844578464 7.592134225407778 4.490484519700581
Cd 4.143516231242802 2.668129447920385 3.653889480274775
Cd 5.7899620693612714 9.636224447980732 3.9724675247109427
Cd 11.66523964792252 5.003593932830081 5.9912794986488205
Cd 4.401542020777749 5.372149709254817 5.203499632977006
Cd 1.4093278177997468 3.4561238434200203 4.8801115230753105
Cd 8.635640750783175 10.944190469831925 3.7729858296489445
Cd 3.278586170637984 8.770799459227637 5.62661579166028
Cd 9.530121047790555 2.9748404855379413 5.484463251581938
Cd 7.1359898551894085 4.692059574302563 6.370895236275349
Cd 6.318865798691165 12.542007943369018 5.020054047061655
Cd 6.422726951266561 1.713902887021101 5.742289266042853
Cd 12.107070473578657 7.566211563014955 7.540609155498266
Cd 10.633702614403285 9.829961063402617 6.0251795995451785
Cd 9.009415801881962 7.030597350851723 6.383290198508997
Cd 9.21824620994941 12.744371568100012 6.1188750791319455
Cd 7.689528321603247 9.629973287076538 6.434781732456471
Cd 3.618870409353643 2.430668291402543 6.616485372789286
Cd 2.918275772719592 7.299948352298286 8.18142523480434
Cd 5.841993690020418 7.427757295322915 6.832234379389292
Cd 4.637229313054287 10.63313644624673 7.365971749156129
Cd 8.473428701727503 1.6039770384492646 8.05562286985341
Cd 4.842769005618886 4.74258161372019 8.15862092885179
Cd 1.6884063882917943 4.482480011228126 7.824297027707409
Cd 9.785573908773967 4.463298059692668 8.206858306742133
Cd 6.87637131004539 12.370803873162327 8.072640279505052
Cd 5.5592304768537435 1.6392648701446892 8.754542000063354
Cd 2.462995315616753 5.401074431655204 10.596207449126723
Cd 10.37610134957091 8.584102563610996 9.67159807921572
Cd 9.572000031712012 11.21313891479993 8.698782056016611
Cd 5.178513949253673 7.014446591866425 10.233891696767515
Cd 6.77397320173525 9.476172402893877 9.377087325947562
Cd 2.9704650831621437 2.4518686770823974 10.101860175653075
Cd 7.293182313898166 3.9107347624361277 9.77008410235679
Cd 8.054640606756807 6.764816141864686 9.280460075427362
Cd 4.996339808232881 4.104995093803187 11.631583815890794
