48
Energy = -20.30688356 eV
Cd 9.970779928405822 8.731916327695076 4.469305537708461
Cd 8.443953186592452 6.2165459979282405 4.441397579989595
Cd 5.561972512488306 6.073761604687217 4.455377339386681
Cd 11.337668931845375 6.17831723437656 5.436622822124574
Cd 12.210209011658536 9.616182250413667 6.279431744193364
Cd 13.899838774676997 7.631786263140594 4.0668361398260044
Cd 9.78938898983684 11.52006775131145 5.011180833635151
Cd 6.849207478676373 5.912440944845913 7.848640219660505
Cd 9.328459091315079 13.467866279207424 7.1269353429130895
Cd 12.039696634831682 12.460645958124989 7.128813827322217
Cd 4.474836800156515 8.75737853484236 5.4991506425604895
Cd 9.701599210956708 7.32544222534119 7.936125976670716
Cd 7.529461825695475 8.666758205447797 6.230426385722845
Cd 8.981801438367135 4.276878801238786 6.568996563771201
Cd 7.038251161990585 11.59478605179425 6.681986441571686
Cd 8.886972768200701 3.8496118746031565 9.44728718830262
Cd 3.9661579574042682 6.103130844658545 6.913893155871965
Cd 9.560164384208917 10.295298442960519 8.105031199721497
Cd 13.553599559459368 7.078061780658768 7.180197134844328
Cd 8.55095444331 14.844985317875274 9.454495204017514
Cd 4.663950643363982 10.284241862292806 7.978905623018867
Cd 14.504801159368904 11.21207159885201 8.1374995187435
Cd 5.9454325662447305 13.227722622357376 8.956167217087092
Cd 11.62054103826394 4.728068395475144 8.130206855121763
Cd 6.977935618973028 8.765134535285766 9.241053434842472
Cd 3.272446370862686 12.139388580632998 9.896309853045544
Cd 15.119882254066681 8.567248051284832 9.313572882884404
Cd 8.002119176916962 11.446393625602187 10.36538335540168
Cd 13.749255410890697 5.81667995547242 9.91139190606032
Cd 4.420860273336966 7.019059300398688 9.63193130966275
Cd 13.91088020946917 10.687822482955948 11.117088947948693
Cd 11.845267307405331 8.82497800938712 9.391571328849711
Cd 7.823506454526591 6.165687604888654 10.877399995065403
Cd 4.440501760789233 9.610412965470612 11.094308829269476
Cd 5.337822887212437 12.26633464802583 12.100028798170015
Cd 14.508868297338196 7.519634970082296 12.203385530700368
Cd 10.841666667026825 6.197095789038313 10.715863875099782
Cd 9.924803448271204 13.646558475088552 11.967573170754878
Cd 5.571327344777973 7.136184106323526 12.398765766962091
Cd 11.282010527985182 11.88723720878767 10.035507244020401
Cd 9.281446338863393 8.916552348095472 11.182666250293401
Cd 6.865870170356477 14.756432818410747 11.816804096551163
Cd 8.160930044080256 7.358147787810507 13.903934815525144
Cd 6.9210978900902065 9.86148693465894 13.04951626806055
Cd 11.9546894141785 8.88122846169424 12.55589708650338
Cd 10.823840696535651 6.2976427500611525 13.711635840281993
Cd 10.132729501192532 10.924485972653013 13.572586989881874
Cd 7.7869186905884336 12.620581700814354 13.827288183432406
