45
Energy = -17.98577482 eV
Cd 4.516702369857419 11.261113665345711 1.888188971283424
Cd 2.9551453398638166 10.184532384365918 4.465138270162189
Cd 5.8781023544873054 6.727079355488874 5.018141688626986
Cd 6.194045170533046 9.277001908110686 3.633129695715999
Cd 3.8781284931821256 13.280998313805695 4.13383308712068
Cd 9.027480641406 10.519497021990764 3.9105986854361214
Cd 6.996859074013186 12.683733093329856 3.723734091882771
Cd 8.741911108359329 7.491605156516123 4.041835060822325
Cd 5.56505785546162 11.048748295566165 6.062767670511326
Cd 6.6448831301538 5.9288051530161905 7.729050439044242
Cd 11.271438867662589 7.657068079095851 5.629665749395126
Cd 13.800614438974057 7.43605865875786 7.428885807105496
Cd 11.184897185854847 10.70157368247899 5.854415925224459
Cd 10.982391328604992 12.966964273206285 7.874577830197765
Cd 9.053812655174292 5.342433240818511 6.066979901282215
Cd 7.928179612025104 8.99613231439366 6.756631664283421
Cd 8.423970844115354 12.052231718990308 6.682126046182029
Cd 12.95182119762183 10.419098291194487 8.23166712570926
Cd 14.508581572284742 8.751642992876189 10.046447203022803
Cd 9.845856642300083 3.0865036728182464 8.002929036079953
Cd 11.567523424292816 5.532492393594087 7.885350930699023
Cd 6.353705436050338 4.4696666992164165 10.299408929812106
Cd 5.941494318570198 11.953135982839374 8.775003485993075
Cd 12.191499750646644 12.445467724703775 10.453630558728365
Cd 8.927565853669922 11.42411977502946 9.687545182357779
Cd 10.402184495273517 8.720187096789516 8.341284321289901
Cd 9.06981072493062 6.170005468694586 9.625079639042838
Cd 4.9302838193099685 8.61189768515555 7.6333419782597876
Cd 4.287325799261668 6.656528170143542 9.694666292212894
Cd 8.916571066622113 3.0159659610490457 10.817607070718077
Cd 7.574065850240323 8.740686584085088 9.660878384826718
Cd 13.558740107415405 8.786232711947564 12.864595372784725
Cd 12.033301959701287 6.806844205092224 10.46233373205305
Cd 11.067624147128727 9.619116154967243 11.03614826361502
Cd 6.477384702933407 12.071503382688766 11.592959690182573
Cd 12.393566401692677 11.543503636765989 13.19719027405628
Cd 4.877724113117829 9.625981452149063 10.604877865181539
Cd 12.916873467713364 5.892077082298126 13.234930580884157
Cd 6.176362760825605 6.9992813475105615 11.95259979575056
Cd 9.983831556465917 5.086647283102043 12.526416443548145
Cd 8.93195976523766 7.9422835982796745 12.280773988210559
Cd 9.024959619998677 11.205647481170937 12.784026579415235
Cd 10.576424348555038 7.019465446206907 14.726418490813117
Cd 6.480224927532057 9.614471473988953 13.404561905013118
Cd 10.649983221719959 9.894841451209482 14.938497816305237
