45
Energy = -19.16343724 eV
Cd 11.288378829212776 6.803263415687677 5.356088092273864
Cd 4.5927898540994105 11.347895480433223 6.419188523624757
Cd 8.877540843112445 5.3214195536055655 6.090083859295378
Cd 9.893233900677183 13.623753220029522 6.222426088946084
Cd 12.433148817497036 9.434472998277151 5.0700159574735775
Cd 9.837527369397325 10.751123923203647 5.730678634870392
Cd 8.259584436036459 14.077561902925114 8.57525532002816
Cd 6.190782018168466 8.913540290055089 6.451018745877193
Cd 8.534164504526327 4.97453836632563 9.059654280394726
Cd 7.125640339040583 12.527453821140295 5.475631998400708
Cd 14.806715491645692 9.852967349804937 6.96300638421229
Cd 11.292713171628174 4.874323255316667 7.876032965858858
Cd 12.19041630577828 8.355782499797991 8.397321626246061
Cd 12.465916692759228 11.777063406755278 7.121172624826411
Cd 14.117163091492891 6.790770354483522 6.47708757958899
Cd 6.089977733419188 5.955392359581261 6.736188833656576
Cd 9.269096989169645 8.278982499802307 7.1585017895317
Cd 4.899935835209527 10.105146160847257 9.293562399346767
Cd 7.8565541606487335 11.018925576164028 8.163104516820766
Cd 14.165086646771208 10.418840073286816 9.79016988824485
Cd 15.870564272249835 7.795957133664029 8.808461040998726
Cd 5.36666453572561 13.18801583363574 8.647998578547071
Cd 9.920363321388894 7.74132873737719 10.152014247566315
Cd 6.889043060753388 14.276474434054878 11.143116627895504
Cd 13.588237613661315 5.74601544752663 9.395590420670235
Cd 7.067411422276026 7.946309417565784 9.238428772974878
Cd 5.079782835782507 11.97620621005731 11.551903238967787
Cd 11.315384987354312 14.010812858068054 8.819842993212598
Cd 4.180449201984719 5.606056859944004 8.902399700532294
Cd 9.132666449612802 5.123274522535768 11.966625544273032
Cd 10.563346830271538 10.68220905498481 9.332615885148682
Cd 4.2702144036406775 7.701738202767711 10.970442746539769
Cd 7.985831000458824 10.301036512898392 11.017928596189858
Cd 13.141247462059809 12.954578924742199 10.85305685957941
Cd 9.690352978850298 12.980681934120401 11.162633201652753
Cd 6.262072310173755 5.165698675683017 11.006337151872795
Cd 11.93936972832558 5.976267074484975 11.956063419694866
Cd 12.191513173693282 9.938967569163534 11.968642071543448
Cd 14.217351640068442 7.8326109497555265 11.430192161443111
Cd 7.231504129526251 7.623720718997466 12.38319032245178
Cd 7.878879794416509 9.757850675145892 14.466560028514017
Cd 10.347853840004474 11.386306057872304 13.6962441963449
Cd 5.083032327812082 9.56836372942608 13.207172899122238
Cd 7.530571483865481 12.482381990289843 13.34667208609459
Cd 10.132486260370005 8.096482062333116 13.212239193268543
