42
Energy = -17.07352648 eV
Cd 4.050744667009961 1.534009286281537 5.029917477571853
Cd 6.596414883744122 7.1679299647757375 0.6080250774033716
Cd 10.489776872049429 7.106078266261981 8.013025420373195
Cd 1.6222707087471049 3.6055691535689802 5.3837862496902265
Cd 8.428076499245925 7.6726472735419255 3.093842393582493
Cd 3.863432547636864 5.856068503619806 6.02386850973576
Cd 3.245501108316766 8.614124480652894 4.35767249354967
Cd 10.676935425380373 4.283284096346308 6.751036644962555
Cd 8.199230487164957 7.417842775848136 10.242446585989175
Cd 3.864945183327218 4.854833684247679 10.34634488600039
Cd 8.746137179770793 3.3008737028358395 4.488782464844177
Cd 1.3436807119496241 7.774015183812734 6.702854742081309
Cd 1.420324016649473 6.345787253585177 3.9538231130419543
Cd 5.9921276968552935 5.940517653299106 3.8671622313973453
Cd 5.85586223975805 8.138655341018318 5.941005777874763
Cd 8.561799385486808 1.9209900399516948 7.239533412192063
Cd 3.4628234876518835 10.160324758279074 7.017959565682008
Cd 6.8419873911940385 4.942012402013226 11.392001792118451
Cd 3.5475333162804983 4.162478812315852 3.2321701121457647
Cd 5.348029483196665 4.513704455146689 0.6985209315936638
Cd 5.7657642141887 9.070166551183505 2.7382573654871702
Cd 3.3617356133720064 7.4899657135618005 8.823935270323263
Cd 6.207267224129358 2.7455852118374953 2.930841699790383
Cd 3.6619357556552248 3.040423752785299 7.693883766890909
Cd 6.018486019053953 6.070195017586635 8.143706212399008
Cd 3.653355483684191 6.8412913710148695 1.7007038676618063
Cd 5.236458058418309 7.397797656148792 11.3244319227366
Cd 4.9119647556091355 11.2539497539108 4.568096572217968
Cd 8.683887154281958 4.693488415993691 8.875230682262297
Cd 8.305362934658792 4.90522128460106 1.7325759043274362
Cd 6.348982827706702 11.432110312768204 7.119872533668123
Cd 8.1469769252881 6.155349196322153 5.987583175751793
Cd 10.567557765737224 5.53800031327949 3.921801928051128
Cd 5.678557254756904 0.6570015483156015 7.454583931438323
Cd 7.94662612552763 10.407445066172171 4.732349842371466
Cd 6.154269856589327 3.8721791323929096 6.06962785900195
Cd 7.082629791093139 0.6778438504391222 4.879061644512282
Cd 1.5433651322476178 5.033314786328683 8.132360928344594
Cd 10.378732910646544 8.361610651331183 5.183513129983603
Cd 8.367407621318232 9.068263918542275 7.478793552670171
Cd 5.802169121587534 9.263982587994873 9.079931175862301
Cd 6.246625154017098 2.940817811070063 9.272828143401577
