41
Energy = -16.25841117 eV
Cd 9.465475972691696 10.932542021838184 3.6265761698175396
Cd 11.900624676334104 9.234131404762115 3.84188481028831
Cd 9.286508032935494 7.735355725320281 3.558862814724946
Cd 6.1189367529631635 6.672862931924056 3.7549590784947533
Cd 12.99594773145043 8.426112293016477 6.459930259722798
Cd 6.789387526941436 9.524744862467987 3.007941936299198
Cd 9.897700216412177 13.129090499533214 5.7902461872713165
Cd 12.24435479794163 11.461206434710977 6.124408233577071
Cd 7.1298732822663275 8.473670776579393 6.247368848359521
Cd 8.514272596525398 5.801379862400569 5.691396843740993
Cd 11.0297771588681 6.412187041446096 7.392864078187357
Cd 9.884525537432058 9.472526281833842 6.753498464045134
Cd 4.876235142024497 6.085355481086543 6.549008899516615
Cd 4.737721308783157 10.744767062193635 4.763823888052858
Cd 9.69760135211415 3.474168826659055 6.974121456104289
Cd 7.3663005378652855 11.597495190246546 5.868502977188222
Cd 4.248307130087412 9.003453390109497 7.096590339387698
Cd 10.768057309791013 11.616006235246225 8.939548271546322
Cd 6.713667587444264 4.031578141610348 7.610645726149646
Cd 5.479828450056711 7.365231326914267 9.452916708511495
Cd 8.19063996280002 13.25399888529267 8.28525407255551
Cd 13.284914230800792 7.714909103177564 9.35449469381251
Cd 13.627994508444926 10.645671081583625 8.654451626436863
Cd 3.771356896424001 9.974394814928118 9.832823734806864
Cd 5.793317039853477 11.199846540683753 11.57367918303957
Cd 7.406623437150803 10.122687132981197 8.722792534390155
Cd 8.248128367262154 6.734643803742233 8.669097431390874
Cd 6.621274256619133 4.687582650247041 10.61512621624662
Cd 7.976661918032721 8.792591379655445 11.407492371889779
Cd 10.35208318943984 8.646259387295123 9.608435463005591
Cd 9.274489760791951 3.2590601624084043 9.801726131421002
Cd 8.521813948075357 12.033764451375093 10.959955643430552
Cd 12.288304078350247 7.060446131821846 12.122992984876756
Cd 12.522658716306598 10.112781102130706 11.355924408845965
Cd 4.833736527982266 8.290477128654672 12.297223947397345
Cd 6.961980269784234 6.336781737234603 13.065649112491428
Cd 9.616601681850337 5.797914350568058 11.223686569818312
Cd 6.35214386061609 10.015804321170304 14.33376267122457
Cd 10.116814286186344 10.599762295629397 12.96029406103471
Cd 8.978796987042463 9.66131893539994 15.57025123242873
Cd 9.736650756067373 7.487526594930837 13.701877699281328
