40
Energy = -16.42475647 eV
Cd 10.207878026546709 10.191996756274596 1.5968878817975056
Cd 8.782780590361499 7.793373402337067 2.830468766762056
Cd 6.0844847972826095 8.32051756160518 4.103328498542248
Cd 10.653939034486756 6.393273951286397 4.614132792165077
Cd 7.897129966387143 10.832596129737007 3.877384569910035
Cd 7.4394418173200005 5.897082711849132 5.023784836627393
Cd 10.614806911529127 9.68524866882566 4.580732991125902
Cd 11.8092882212027 7.654224337508849 7.042792808241029
Cd 8.828400869550817 8.398203661275337 6.904128530998708
Cd 5.552382405000611 10.520654970782271 5.884325811307499
Cd 8.457869828381813 11.568031133682057 6.886587218896308
Cd 9.850012767949476 4.511840512629951 6.744469083305753
Cd 7.10837116252567 5.007842592948646 7.797787600559801
Cd 11.436073956738811 10.994572487154636 7.028612442495575
Cd 4.193427095462915 10.150339978174248 8.510147283613547
Cd 13.466966070647683 7.126471198614301 9.449360539179821
Cd 5.904468036129525 7.806603035499061 7.504820906856161
Cd 10.396675247510148 12.682237279986845 9.22893254152656
Cd 13.888802050187326 9.773457243689258 8.147749480422169
Cd 7.600088594886899 9.82719945305516 9.19798129508162
Cd 10.581028381225966 9.481173222480662 9.525004316248763
Cd 5.675997855774454 12.70348188566962 7.876034906979611
Cd 9.766788845990636 6.403692269000742 9.112334682492254
Cd 6.817547945556795 6.136377683258478 10.52836461117428
Cd 5.219317295693087 8.661665224209878 10.848385760547293
Cd 13.418466433305925 12.26204006648898 9.683873537766608
Cd 5.60522616076706 11.6622637159796 10.788498844573791
Cd 11.387456777895457 11.890033104559404 11.994545533267445
Cd 8.711705440828183 8.300479458758323 11.516835100987853
Cd 11.594121334887872 7.1652123477251655 11.698244455346703
Cd 7.706004033027186 13.592536961902956 9.749340334548208
Cd 13.224228701291414 9.636075732587523 11.290413605405705
Cd 9.856679831952137 4.736134377126709 11.644296217498917
Cd 11.4433967746923 9.429133415921086 13.837742977621362
Cd 6.24232897947483 7.562594555702525 13.466557881022842
Cd 5.949185099355833 10.58445186922731 13.51062511861215
Cd 8.547248865758986 11.354577679987594 11.749305941518474
Cd 7.578283128010667 4.97171590189726 13.475296043105105
Cd 8.535089300473919 9.492310087038218 14.405869036960528
Cd 9.904764774302553 6.776436783915459 14.282168625260338
