49
Energy = -21.55589199 eV
Cd 6.867529104360889 9.488304220741137 4.675336667167865
Cd 11.207388483691624 12.189312690443893 4.997508063168529
Cd 11.387275443181148 7.431263280624382 6.413371085905867
Cd 9.043942216657872 7.49817330975477 4.669252939561178
Cd 8.670006251865763 11.625647303829703 3.8519708165466255
Cd 12.582995209014685 10.083070658597121 6.673636216689798
Cd 6.495215763584117 4.58480097764109 8.451502143486023
Cd 6.446768237108355 12.197008485081318 5.907655244081756
Cd 6.065702649585467 9.653422862855964 7.530381041269634
Cd 9.484998767054895 10.072614834335186 6.7910362954772925
Cd 6.4859252877401 6.886924830758255 6.2963882982027615
Cd 11.851624371201625 14.440496103697228 7.01449437794893
Cd 13.95087570101675 12.711833877241972 5.993519269814187
Cd 11.415908238168528 5.617693341214711 8.737326898655466
Cd 9.025529001990481 5.390579351199684 6.969641979020359
Cd 8.924025641472225 13.337701489811407 6.9580959887686875
Cd 5.355312115797404 12.398206926675204 8.590762086833992
Cd 8.506770642448332 7.954873679282615 8.737843910770751
Cd 11.098019731401521 11.884495322090967 8.811532288479823
Cd 7.729556937231976 13.865013512544683 9.825162071065638
Cd 12.68185518800492 14.227755934981863 10.067186315214334
Cd 11.37704084296121 8.927790844415949 9.341604840755641
Cd 14.744423786470163 12.529100065863382 8.713280990064014
Cd 8.18947674267507 10.852225677616888 9.46439147191357
Cd 5.092960921928149 7.161870878322646 8.95663126699165
Cd 10.081845834433736 15.47070602313395 9.00843334550611
Cd 13.39287976325089 11.13714120566922 10.975768679650516
Cd 14.748397138052862 9.535417269977502 8.663108405059281
Cd 8.874678678094318 5.020534628146111 10.219241581413518
Cd 5.071505331249526 9.723097310630633 10.40034417573737
Cd 6.669685348178004 6.965518573851591 11.392406597186879
Cd 12.097758611105949 5.633467702708759 11.602796999922475
Cd 10.025817421645458 14.182338180704951 11.750819094323703
Cd 13.954810256248132 6.948110189298135 9.549826586366722
Cd 10.191164123079915 10.938491611564347 11.568746980061006
Cd 12.755623714611414 13.38026469399899 12.911079813103894
Cd 7.327844482665102 9.832056078671025 12.387877839178921
Cd 5.703505676312857 12.402742845814302 11.511128199868235
Cd 9.620941511709132 2.8489585606322017 12.20340827375831
Cd 7.871525447851399 12.767048762029189 13.353904640194854
Cd 9.706556203098812 7.727203937792593 11.496212663268851
Cd 7.893433123762044 5.143723469248665 13.410015777481846
Cd 10.890262122407869 4.83683922121273 14.159470734017068
Cd 13.043361152535583 8.43231702098281 12.079831629801568
Cd 9.263651390475813 10.329722212484787 14.659932701678285
Cd 10.487578725701368 13.027054006343842 14.748435845381593
Cd 12.330884057716476 10.604371996817106 13.978150903323359
Cd 10.925143722130036 7.807757627999614 14.271863751671702
Cd 7.836503103941933 7.741420627537889 14.70416643106432
