45
Energy = -17.94955481 eV
Cd 11.046739911272281 8.074529696546396 3.787994947366694
Cd 10.36540834183421 12.279343202376795 4.196986878176919
Cd 12.880298981654096 10.365451735597002 4.402669544883565
Cd 8.205351157760864 8.68534817772716 4.456988370646553
Cd 7.600033794576743 11.62014105277357 4.790245651939995
Cd 13.780362692377675 13.285350230421935 3.7490331609871186
Cd 11.682793651763534 7.303220981795365 6.624160462094713
Cd 8.704913222939503 6.494265975431214 6.540499662397403
Cd 12.201217053105143 12.923051840880403 6.4250179626936745
Cd 6.001650841371832 6.808256969532979 8.008319343829163
Cd 6.060164408377855 9.564186739726644 6.407927286501502
Cd 7.99463923182431 11.890628336916446 7.792271155057899
Cd 13.35582085459282 10.050714879972931 7.384720835059354
Cd 10.26696183874247 10.122278781290948 6.443637737326976
Cd 12.77871835322531 7.777758073169426 9.314938509233732
Cd 7.6335720864571215 4.415800792491275 8.49633538841195
Cd 15.89208809875781 7.677823692556019 9.320812785860136
Cd 5.112711158209132 11.461520070212812 8.619819150913454
Cd 8.319928775119793 8.889651678775516 8.455156360551227
Cd 10.377077838144135 13.486724208521043 8.792937168631122
Cd 3.76791799936019 8.74021779085694 8.290838181765771
Cd 7.781341269174963 13.860961480914773 10.20348047350575
Cd 10.8660731262041 10.442853018158514 9.43315295837919
Cd 10.472831343359019 5.441229247195536 8.864100215615807
Cd 4.477961704656666 9.685606718303294 11.122692047447423
Cd 10.005069193245559 7.77112178087503 10.7683192974907
Cd 13.073315807154302 4.80255734749445 10.265325911776515
Cd 7.510643485537844 10.80794953560115 10.886994399837286
Cd 14.524963168168508 10.284701923769381 10.382850767431998
Cd 4.906621335989391 13.539805422477665 10.672192509676666
Cd 5.5226449785517095 4.93703524443014 10.698414147825526
Cd 3.284965864763403 6.858341313988416 10.55634027721021
Cd 13.276377495851849 12.721911859599313 9.227812763449334
Cd 6.98254969747945 7.803582394331516 10.81756620412051
Cd 8.484437083948821 5.116631715240589 11.276651465822562
Cd 4.967816207245565 6.89480368477396 13.090980663697904
Cd 12.363279433101754 6.457353749209858 12.760644679531971
Cd 10.035900418998809 12.489616589072662 11.671306170633624
Cd 12.276297330536602 9.318360411364552 12.131775804145823
Cd 12.91638661838504 12.339082441269351 12.25688451869788
Cd 6.41608680011525 9.523768309301436 13.725986709848279
Cd 4.960131606291969 11.996291626511551 13.190759688506766
Cd 10.11080847452917 4.881645857786589 13.758491335263958
Cd 9.461489832692834 9.83862220595827 13.02957199348966
Cd 8.206079974883638 7.182343757131376 13.818836994596024
