49
Energy = -21.25666543 eV
Cd 4.566938490876881 9.805571045389367 5.549099727283523
Cd 8.734965185948624 11.972942601936579 4.538160802608442
Cd 5.711403698772233 11.824847032217246 3.5930096264938074
Cd 7.168473181704995 9.323822742035276 3.88214059210979
Cd 10.04659921767462 9.196761649956992 4.705155380607524
Cd 4.217995546591317 8.081387951072966 8.076311693090863
Cd 11.30716594438514 11.563861084853135 5.992940415228614
Cd 10.886549158559298 6.0942632401798855 5.545889827689041
Cd 8.392479387669695 6.651443727117251 4.243489224247055
Cd 4.095845800721219 12.854349322426918 5.814671090613271
Cd 8.27477749201052 4.648658864155796 6.445080725149783
Cd 6.833229419856092 14.205554628845386 5.229088463516002
Cd 11.757386030418226 8.629598178861745 7.1440847495788455
Cd 7.124021881511271 10.933166003968294 6.893442301234057
Cd 5.97781397966112 7.163072565950859 5.828490914318661
Cd 4.140076581410769 11.031347340418671 8.309763403744142
Cd 13.395021774351681 10.829535681477052 8.44162511483419
Cd 10.187876780156852 6.144442123505458 8.571906824736717
Cd 9.688937734825812 10.76872688447631 8.635717282758712
Cd 8.506279497197603 8.293021941190208 7.356396033253621
Cd 13.191747525093245 5.719378526621618 7.279782260773154
Cd 8.184947296341196 3.398452298649599 9.132067490021312
Cd 11.806256558951311 13.374808843531364 8.231977950684902
Cd 8.87189778008863 13.503943676992813 7.43957402287169
Cd 5.870860187166515 13.610016206165964 8.075196487450112
Cd 14.102448514191899 7.822769492227177 9.144496852153857
Cd 12.795187718978143 5.026153231009955 10.103813008153793
Cd 5.693669879650645 2.2113624011558346 10.675097307209475
Cd 12.026213345296044 11.859102099281188 11.052686863398998
Cd 6.6083168097161655 6.166276030947814 8.629435436159163
Cd 4.636792744087648 11.82812493700851 11.08692537014288
Cd 11.224546131223194 8.784949841802929 10.151272886054816
Cd 9.972934806379653 13.853546704358145 10.449602909592437
Cd 8.53747341154263 7.661765540780385 10.698826844640934
Cd 7.1760135750237675 13.260013285078106 10.601946588823722
Cd 11.498226163095874 6.776945575592048 12.427965197528957
Cd 6.82604374993932 9.766418229309217 9.540247922876196
Cd 15.22522926319507 5.377663154899762 11.690100880244142
Cd 14.349127895915002 9.980508864071709 11.216386549677532
Cd 10.016710767423438 4.52465128555682 11.137804581300136
Cd 9.063268463275822 11.006147168992449 11.637376617203934
Cd 5.038130781351971 7.569930631309863 10.906689995372348
Cd 11.890111094783476 9.7580649559362 13.247996480277923
Cd 14.253491199390377 7.732307139501381 13.106655904486725
Cd 9.069771343258527 8.803293736682036 13.642100784929275
Cd 8.869119848627502 5.8428038843283945 13.5483397768262
Cd 6.862452292578393 4.980736764696381 11.431166153845771
Cd 6.279891280663744 7.119515517150802 13.50714510335002
Cd 6.277909903682993 9.896602481542141 12.64348469606912
