45
Energy = -18.63559813 eV
Cd 5.115046911564789 2.677732003956708 7.082013131044389
Cd 9.421904173044176 11.14391646829778 4.764777268975558
Cd 9.789330622233797 5.046943817932766 6.18380324342717
Cd 4.334019765519224 5.456040001289754 6.211854563280277
Cd 14.620484396737208 11.510943388241667 6.037820143168725
Cd 7.0841623655887735 4.217973173327707 5.500699781307416
Cd 12.015699279793619 9.6897393968298 5.258292265195229
Cd 12.076867143252866 12.829183252697057 5.117236022681322
Cd 9.432328033789688 8.303871870252555 5.875864192671497
Cd 6.993486866437892 12.263370151357869 6.179558489053131
Cd 4.982532624493464 4.0373587574350145 9.66298903902974
Cd 7.840949916438446 4.963750168836655 8.798705539099046
Cd 4.054000957595543 12.806282018095185 6.783729338125757
Cd 12.219200498851752 6.712716294863532 6.399186460708776
Cd 9.551947656790002 14.070588816530439 5.86010882657331
Cd 6.925066769106063 7.059039041377189 6.672855064737102
Cd 11.589200344966802 9.074078306211769 8.561463373676252
Cd 9.240699352596904 10.905366966170185 7.915295078625934
Cd 14.386214162496753 8.757400474184633 6.982604429990133
Cd 12.17573394671245 11.982990138415236 7.954348433167451
Cd 8.04763835028652 14.31134024884015 8.290396034265605
Cd 10.234886619107758 13.106818250566263 9.958151334313545
Cd 6.266919413659426 9.72010057253408 7.890664686033639
Cd 7.32023215103087 14.344180392702794 11.073247343077464
Cd 10.699292936166627 12.047591624020598 12.747782703656686
Cd 10.880564980058825 5.814333910773045 8.959886229900235
Cd 12.779125387428557 11.272071598216382 10.755738573101658
Cd 5.832800346597253 12.27471762358738 9.359111182775955
Cd 13.831288970999806 6.858681505204453 9.14277784492626
Cd 14.307814794100588 8.861370263723492 11.298264018600538
Cd 12.232933867900897 6.427431529480352 11.609232162367038
Cd 8.359477163337344 10.830758981057286 10.73640246594042
Cd 8.617440905870339 8.08973812298966 9.190813841693588
Cd 4.577216054974478 7.147779571575251 8.740929882278063
Cd 6.076993100373995 6.128688189518669 11.253096213543735
Cd 5.923444102254031 11.494774269474755 12.401918972772505
Cd 10.687905283567169 9.114100824749247 11.362133446139797
Cd 10.191145501545932 7.358598915647727 13.769829436470555
Cd 4.953983755333405 9.188834628831565 10.864781039925788
Cd 13.411154621614228 8.081615280091448 13.974941157185974
Cd 8.057143707744947 13.312710160887267 13.63346567957913
Cd 11.34430227927307 9.980903373306484 14.798797220435436
Cd 7.591434202384282 8.29681169946511 12.38433970825714
Cd 8.428606005585895 10.405761823119054 14.22391380370448
Cd 9.181056225029861 5.7046786475702955 11.459856848754725
