40
Energy = -16.27313321 eV
Cd 12.109544148104684 10.649823826818743 6.047964160488593
Cd 9.356430152395273 9.986639656172146 5.466062320322429
Cd 6.733332241091089 11.540853800092485 5.313118223251034
Cd 12.015858898700408 13.392179967597981 7.735600573450719
Cd 6.751196884015527 8.545580547639414 6.2164118914549755
Cd 12.283226313669607 7.690236700288883 8.37781343619421
Cd 9.552834581883458 7.558215909785874 7.183973757187733
Cd 11.49065530506773 10.72615067181412 9.176702267670924
Cd 9.322235516111245 12.918705103732373 6.1768228917961885
Cd 6.778945944701985 8.01290840145531 9.248048798323401
Cd 13.02886765795546 4.647650609897533 8.318359260440731
Cd 14.483076801211592 9.553258785082106 7.587353046780836
Cd 14.645861193269148 12.399917266594437 6.672326668607128
Cd 6.666986893489919 12.90326724481598 8.14993142196288
Cd 8.458708182556876 5.5777927636347 9.17881530769269
Cd 4.915799675134938 10.458298346602637 7.500919832912465
Cd 14.414074477202961 12.328630102163187 9.643195453797597
Cd 8.599123764450805 10.474495016286244 8.417178058325756
Cd 9.876792487212027 8.413284343286385 10.292875448246026
Cd 15.511188352742975 11.703549556567348 12.316734521721378
Cd 6.019452954711451 10.788274993834683 10.29220184366359
Cd 11.629133362615557 10.030493118731576 12.428528155775272
Cd 6.708806192452646 13.857602650894712 11.062643841584151
Cd 7.1977752551621 8.597233916872973 12.135473434064176
Cd 14.016103535660347 9.401683178544316 10.540777567104064
Cd 9.455092260090794 13.577269813687566 9.16562421493264
Cd 9.152975696904276 11.321245233183156 11.23947127586664
Cd 8.759225602842548 4.722056596683165 12.008259898780148
Cd 11.219381222746817 5.6495692730015135 10.638673319059695
Cd 9.584779763508154 14.570490301236406 11.924466777708002
Cd 12.106692443852134 13.079269433594689 11.283776760964217
Cd 6.627342954000736 11.499361110040462 13.081040749137687
Cd 8.051667374238015 13.737339605413306 14.282269615875657
Cd 12.941081046370277 7.224754693051764 12.365876552643893
Cd 6.314178898543411 5.918979377746046 13.239172471026121
Cd 9.832806401048341 7.348704325657818 13.158885973830467
Cd 13.584518136005107 11.984431965217718 14.604930353808415
Cd 14.594684109891269 9.214750713615407 13.856650037475466
Cd 10.77661268535419 12.545559580380152 13.979444805900597
Cd 9.026228050600494 10.042768915849866 14.28490242773709
