49
Energy = -21.10499702 eV
Cd 8.059577696014886 7.793735167286695 2.709876513954115
Cd 9.756226588449994 10.38514988458496 3.693926394416031
Cd 10.786942814011896 8.19762033865347 1.6471032984960887
Cd 6.691964628261802 10.45804576173154 3.4608762824118164
Cd 12.531647526462688 8.989210531659852 3.9312586843026383
Cd 5.732877176151535 8.26603585569148 5.090963702486708
Cd 10.39741723910763 11.910899859490842 6.330413576021342
Cd 7.6198019948481095 5.914500790422785 4.9272126582106734
Cd 8.121489777635958 9.457850502286558 6.730865161061145
Cd 13.2144755435627 11.188536251087294 5.752228902213861
Cd 13.550826282759257 8.129414617145267 6.6491704527930615
Cd 10.173023835882645 7.600340969158945 5.169470032019993
Cd 4.83233962943538 13.347066872253846 4.020180107681997
Cd 7.397126921107583 3.5630596880619674 6.627979030942987
Cd 5.426299650997202 6.153237016561481 7.116270375101323
Cd 8.007633113754151 12.754356533741747 4.742450413455624
Cd 9.158367710145809 6.489399944614608 7.6818050916111575
Cd 14.33623770851233 10.558503377407925 8.448425329153547
Cd 10.920114010138867 9.298995217616461 7.872765102603557
Cd 14.087364450307893 8.304149846234672 10.163517702265889
Cd 6.209891664010438 4.53522046215121 9.384383072495455
Cd 5.615628416005091 11.515690420543208 6.309304785846627
Cd 4.980845885201854 9.117906116412504 7.885917373911905
Cd 11.9965336798997 6.413801802507544 8.648504507894007
Cd 8.033122168496305 13.039373172190984 7.7712802618408094
Cd 8.601549586838091 10.523607109667145 9.552339953811162
Cd 12.452378965726803 12.825884145826093 8.298090264205646
Cd 5.64861263343446 11.96736040191829 9.29600620700465
Cd 13.12775996114801 5.98247425169826 11.530003151057938
Cd 10.067974161107085 13.311706396622695 9.951401452490295
Cd 10.094808272212484 7.931524269329646 10.485052166550389
Cd 7.161195314442529 7.778292009757373 9.48305284677299
Cd 9.205317234689332 3.7475920662953364 8.95475997616908
Cd 4.874429324219621 9.41808005679932 10.843082615248704
Cd 11.844981179918467 10.6468028976053 10.502766562635454
Cd 8.18711474606455 5.4383082094633455 11.424709794074776
Cd 11.018073566292868 4.116250148127293 11.085245524751299
Cd 7.882155230606833 9.00046849162769 12.262227831201018
Cd 6.559253946007257 11.8131901290993 12.048575939193702
Cd 4.838471434953383 6.376998800763386 11.335562788447048
Cd 9.616133089736415 11.561173750991731 12.405969332168166
Cd 12.351181604034666 8.735462422717053 12.686901762661432
Cd 7.605294112956621 6.49284269144463 14.197355937039687
Cd 10.454616416030236 6.379196761247933 13.140606651034531
Cd 5.1957117508061055 8.226853612227501 13.667885138513496
Cd 5.722629421431029 10.964764994708336 14.730696236062682
Cd 8.60242801130846 11.768111947136557 15.277988015802865
Cd 10.131207789182762 9.201448262903495 14.511361890214971
Cd 7.560433315667059 8.850992352500388 16.00369632966979
