49
Energy = -20.73587311 eV
Cd 7.771715066719238 10.489912314288015 3.954275867397958
Cd 6.332539969683244 11.892131356375586 6.17721921191806
Cd 8.701288400365717 5.609776843183233 5.19003714460694
Cd 12.642815761012692 12.617126188916462 4.948240328892399
Cd 9.801975854817565 12.509306684239512 4.358072981454411
Cd 14.773025018483814 10.82819606482265 5.825549588290266
Cd 11.507943606369638 6.540692644619678 7.409951017771941
Cd 6.843315525239522 8.069599540052424 5.589493272997257
Cd 8.581408981204369 14.337341944729934 6.371398586615138
Cd 4.728036289474352 9.531023598200546 6.9663591224299175
Cd 13.894724334142957 8.360801486958245 7.383631069355361
Cd 14.253926870827849 13.376950319119663 7.506467631663771
Cd 9.647995201701699 8.20250033874516 4.274108854328275
Cd 9.549583652927778 4.348434657637343 7.605442374451726
Cd 11.328606265442547 14.211230007181642 7.344327993125533
Cd 11.63998481708884 9.74118181176207 5.777161388464549
Cd 6.888898060827569 6.425333616122424 8.286987149387047
Cd 6.957309155884829 10.069826915669845 9.000212337565719
Cd 14.98761253010291 8.510880783045229 10.610672842870988
Cd 6.9696069269685665 13.557474862168556 8.625020335772872
Cd 9.217929748017882 8.405967620231436 7.513521213390139
Cd 11.969901115319901 11.243304488495093 8.466364880778183
Cd 9.245000449243243 11.325843076484144 7.319240248814066
Cd 13.530531681516937 6.030451751745067 10.019143849496627
Cd 11.761971941198476 8.581233936142487 9.716812954507493
Cd 6.550263436611259 5.622154965949759 12.099652589591253
Cd 15.418724686248087 10.748349668597683 8.727704576165348
Cd 3.511833211156515 10.884263611499028 9.29034449979983
Cd 9.193252092017563 7.160199684783978 10.253256489779142
Cd 8.46938863414576 13.199498781765703 11.183419843132187
Cd 9.50240353748034 10.369244874052931 10.41547895831981
Cd 8.021221814053867 4.1464603722000355 10.077692593904574
Cd 11.25261338321339 13.608316052392258 10.272524845342703
Cd 9.31568095912988 4.215049109016975 12.857089606836656
Cd 4.568583739600648 7.916658644030866 9.498203964658382
Cd 12.79444684117466 8.997363246943324 12.717867202703303
Cd 5.473999020292348 12.44498804714473 10.837518392279884
Cd 11.154404599921683 11.704921328853876 12.59108317697357
Cd 13.580355814986065 11.357691618403557 10.971229020515386
Cd 4.336312980835118 10.05570353211361 12.225790269550233
Cd 11.061829620911086 4.535963481109153 10.227052499456317
Cd 7.108469360224293 8.642627498125655 11.651397229554917
Cd 8.398023004240303 6.609656348199782 14.361715375234542
Cd 11.203130207075516 6.558448971446474 12.523175320522984
Cd 3.959777644961091 7.1396156478980535 12.23969977710386
Cd 9.766800163746819 9.171849337234075 13.444010038082812
Cd 7.07998998382002 11.331694412623857 13.115061797978486
Cd 5.370461534400058 7.250137703914722 14.765564789898825
Cd 7.283277969014613 9.415511674606245 15.316646360111816
