48
Energy = -20.01128939 eV
Cd 6.583624061390499 8.56899515137474 5.577223945314187
Cd 4.98321303161588 9.755007673970074 7.927639621575755
Cd 8.421725765962652 6.075649804499544 5.042307824889514
Cd 9.740964165447798 8.737524476949405 5.4509751777140005
Cd 5.376033955977902 11.863161617302534 5.914384109622852
Cd 7.088402725964485 4.727415199029184 7.342587255735097
Cd 7.71375830231481 13.748162613599197 5.97674739116574
Cd 7.773755349487509 11.042443159519898 4.2527664092576885
Cd 10.068574590844179 5.1737334588567405 7.538434005770318
Cd 5.061033897004235 6.7569999273097725 7.543008645196857
Cd 9.711876489605743 11.563786254543704 6.639157579457263
Cd 7.06193551615411 12.126914640292885 8.59545547414779
Cd 11.988264663405717 7.375963536253133 7.282298779926088
Cd 8.182971032548217 6.551028666723176 9.665677182480843
Cd 5.934381566146971 13.64220654191512 10.971325473765598
Cd 10.223540410463594 14.51494271316323 7.551163983176688
Cd 5.4696663159052585 10.567282744788715 10.795235775943123
Cd 12.381717041898886 10.131253019724788 6.27603561916235
Cd 12.233759774085145 13.05588176048332 5.579709600928345
Cd 13.298990555338992 14.881545104347667 7.741429510106505
Cd 9.0502960937107 13.744027993332896 10.219866528938027
Cd 5.441394042371389 7.59863571071547 10.331612862667857
Cd 11.278627521368442 11.639170741637633 9.10858054762791
Cd 13.63666887239637 9.387912473625402 8.987107609636638
Cd 12.451736724780913 5.837945221683403 14.602380759118917
Cd 10.423619826167986 7.707928536028277 12.661833439297405
Cd 10.193056810209763 4.299479918695952 13.243063091527628
Cd 12.947976328404634 8.709272608613851 14.116106067138835
Cd 11.693543828822023 11.358977695129054 15.098462175814243
Cd 7.628084765908851 5.7422512049139405 13.49085789283043
Cd 14.495348282693568 11.297845534059697 13.88406454508665
Cd 14.825200011641972 9.298269220366413 11.76999679286041
Cd 13.056974803675697 4.055055590495255 12.143841283528085
Cd 7.424363987201851 8.495322690684922 12.312058463522233
Cd 11.623175926673683 10.528086233940268 11.892961511453766
Cd 9.231272810942983 10.091092430062215 14.053246236618728
Cd 13.081968196291667 7.102361269862321 10.929466881704597
Cd 10.745087188626895 5.334063965311428 10.436252727543144
Cd 7.376745501617667 14.643223162261483 13.340104320692433
Cd 12.686770988306089 13.433939169869955 12.927079759741856
Cd 6.665628304534532 11.54244708533725 13.363219648490002
Cd 14.103989855314682 12.04090084248733 10.669377279367755
Cd 14.31287619981792 12.081502252905564 7.703373400066485
Cd 11.98302011118283 14.471147430498743 10.303668013947766
Cd 9.786027433413192 12.936906275519535 13.092038174207866
Cd 8.783502892254251 10.820682733865127 10.847060528781462
Cd 8.169244632905901 9.268825280183066 8.108546470364375
Cd 10.590856438486046 8.658076254549753 9.685457213371613
