49
Energy = -20.95882548 eV
Cd 9.940778747610247 11.111781981412088 3.991815979304715
Cd 11.181895896525909 8.964629965983576 2.5291174251792237
Cd 11.922443580980334 4.060245705249689 3.108160327695369
Cd 7.341170094739158 11.654648383696676 5.270582704505454
Cd 5.90014556215532 6.412035644814402 5.290190303256639
Cd 8.705236248185091 5.663353269680749 5.441250598354618
Cd 11.137366565892545 6.652550069432265 4.288403307833944
Cd 5.547800411396593 9.447540958215509 5.7016320666314035
Cd 9.112862778687358 8.767746066444385 5.882055763887653
Cd 12.396137323788002 11.148923085683991 5.828758270483041
Cd 12.183867461882079 5.4320691288654475 7.190920878890457
Cd 4.3854826498111725 4.782124673085803 7.567359192435214
Cd 11.108426972015396 1.8573446256500639 5.000889413507876
Cd 6.845195735836736 7.829116649500678 8.019453847551897
Cd 9.965765848714266 12.665361328127291 6.553502818787455
Cd 12.625062637720262 12.909712140451857 8.27098998100202
Cd 12.416995784205525 8.312074315007422 6.270138833136016
Cd 3.6122095324173626 9.745912451096652 8.566810155261493
Cd 9.981641241176918 3.402701377690389 7.21509257969325
Cd 9.68246439406356 6.867973762267787 8.35802493385937
Cd 7.217997907155657 4.301576887139818 7.62545715889917
Cd 3.510249385078215 7.504812582011568 6.743966307873578
Cd 7.581095941609159 14.18514547057033 7.239464323259101
Cd 5.44257016066018 11.914046111374045 7.581770015341568
Cd 8.127899405803737 10.54551227319827 8.326262667951301
Cd 6.729990783873623 13.555298322338285 9.979162707610366
Cd 14.140169487128203 10.347594488100343 8.268231265586898
Cd 10.954575051509705 9.593226045829102 8.52285897223859
Cd 14.196984400051125 7.36013277817104 8.46438516464727
Cd 9.892049052569385 12.88820255215197 9.50285547339431
Cd 13.61503561435099 9.075709934335382 10.893757649636308
Cd 3.9275316825272317 12.22702183058092 10.182224382989494
Cd 12.012710451115986 6.363625260185239 10.248205238698239
Cd 7.396684638810732 5.7041836539656074 10.215346444165897
Cd 10.49422692708019 3.6118059191593015 10.00405175144137
Cd 2.691641955516617 7.628468985085744 12.10095901015998
Cd 8.849173298667916 8.544679431158679 10.701238777700715
Cd 5.550595548819778 12.59130447726002 12.685526321976678
Cd 6.064253478318212 9.671151999503921 10.378952747536644
Cd 9.777840020489187 5.514164951367069 12.067104254618805
Cd 11.383178928490649 8.066442003676617 12.659348535944591
Cd 3.491235281321654 10.374537191771505 12.499325968942436
Cd 4.2830982309608245 6.913763431431579 9.719164330852676
Cd 11.19072646966842 10.86923451933922 11.275022083905197
Cd 8.252346880907774 11.591564362472553 11.615714274716739
Cd 5.920020666477923 7.217330435336805 12.25848108480382
Cd 8.471145274564925 7.418294316484303 13.827719906243649
Cd 6.544784343245765 9.859846323746766 13.524501338345857
Cd 9.568899793945894 10.145138408422229 13.81545298778512
