45
Energy = -19.64215124 eV
Cd 10.144035569685926 10.598463231733195 3.8293787982098473
Cd 7.261982523897676 10.431054531327145 3.9867698514813097
Cd 11.630526909668689 12.086805518327438 5.784675691761022
Cd 9.033837026300633 7.876223503221576 4.537371448870918
Cd 5.869953681261721 11.2918553664925 6.556524382665631
Cd 11.34160195048409 9.093670564742643 6.27265875134644
Cd 8.598303643961858 9.728665155627743 7.36769738187055
Cd 6.193475598560308 8.300068072282492 5.672027955952999
Cd 10.804283953540331 6.0450302435688865 6.100350068893511
Cd 3.8129561878384135 8.92692713425107 7.233282708234784
Cd 13.192224891048264 13.280043651753086 7.85658197986002
Cd 8.489650412407283 12.58099533563126 5.73637462349567
Cd 7.809090844641908 6.119216840162133 6.819701753552767
Cd 9.357888617489335 3.830307534134154 7.877020421796211
Cd 2.605763380783213 8.949007206666527 9.823105338957696
Cd 12.128017506429424 4.653695532495355 8.336804607863785
Cd 13.95847094992027 11.350176468396997 9.830091472768904
Cd 10.926819864046529 10.910044856170328 8.917558451231514
Cd 12.62502816164649 7.681040636568047 8.443226057960903
Cd 10.15114252603153 14.066669329680293 7.6869473375718975
Cd 9.65545982293636 7.339678226244641 8.963347245179456
Cd 5.163118071503331 11.071281073983094 9.361649339509155
Cd 11.68996416956153 11.847993193906095 11.95710378766195
Cd 6.407533959831414 8.060394775014672 8.731400648185062
Cd 7.848279924013611 12.407903841454448 8.852449591244195
Cd 4.463551842563093 9.728658088647197 11.934322902163265
Cd 10.23531230789175 4.7810894340645795 10.719005838011618
Cd 14.66149373891578 8.573452397332433 10.44727617127442
Cd 9.258009544542686 16.269609358287344 9.70993298969139
Cd 8.385766900045661 9.635912251176773 10.493774223214547
Cd 11.683515303242647 14.272633737388563 10.266338530156899
Cd 14.332009036220361 10.55661727734077 12.72414668775605
Cd 7.248390763942257 5.063157678080188 9.698332308687425
Cd 11.22551725016704 8.850711862173398 11.117920127208293
Cd 6.716525280168785 11.818539149136592 11.883976958436909
Cd 9.051633503553138 13.554378281725453 11.465175260722319
Cd 13.059390508584814 5.927811724837577 10.87999914422332
Cd 5.59922931335507 7.039034361853651 11.348185723091508
Cd 13.94989552304871 7.610252304146923 13.199067410561005
Cd 8.483720958702653 6.851339922212061 12.046192104167014
Cd 9.23073025384689 10.964216670971883 13.326961444443551
Cd 11.837150135621528 9.601693476568368 14.146930021713821
Cd 9.291894772971393 8.149172073603415 14.7229606782432
Cd 11.196353956432612 6.488345509496928 13.259957707021078
Cd 6.818702625603129 9.164366284031312 13.503647739997
