47
Energy = -19.75933883 eV
Cd 8.651996082289196 8.813778523189098 4.2075824758821065
Cd 7.726269371036045 5.643211126195325 4.602041657105456
Cd 11.908417490414626 8.833632953944864 3.4151000692525333
Cd 13.02021799752942 6.21565736146043 4.530975285870521
Cd 8.389130530826119 11.432102158355871 7.325607954003827
Cd 10.302705730309562 6.300339503443764 3.286409175204244
Cd 5.694874751981918 10.652814203841434 8.404344499997737
Cd 7.197896150347939 8.572627878192947 6.761616140314022
Cd 9.929295810929817 8.8424675659438 8.094265075409597
Cd 10.776014109786107 13.273318880666913 6.976696179665863
Cd 13.459978536573091 5.900411222754459 7.456212928021291
Cd 10.673231611370754 10.835539650009162 5.324579717683517
Cd 10.252801168980561 6.281238075713511 6.374404681021733
Cd 4.268819362796204 7.949680325003113 7.152403341332147
Cd 6.200284014152132 13.279046312558455 9.952552510057012
Cd 13.660805989693467 14.238231017868673 7.1706150095265375
Cd 12.361980465462931 7.843865293404593 9.54803219956008
Cd 13.513043780398723 11.272008895184024 7.415983673943697
Cd 12.749278911227593 8.732588890270398 6.422610205867769
Cd 11.058749072888668 4.8908069014335815 8.909429534921822
Cd 6.025179949404215 5.541696584411244 6.916608088655738
Cd 8.980357249647401 13.95168387620275 9.486805372690114
Cd 3.962498443952758 11.58373748849016 10.807327172296157
Cd 11.889157442269122 14.616475147384604 9.532678811203635
Cd 11.081540117117548 11.320481661206356 9.438987877337198
Cd 4.7552496531692805 6.062431993789673 9.546103979360758
Cd 8.265995519308428 6.363172396777413 8.809684213025918
Cd 10.78917210519105 14.938608942110902 12.281767263145273
Cd 6.630406802811081 8.504046444118668 10.32353312984804
Cd 9.598326632102921 8.339661021808784 11.11618180254385
Cd 9.788910263680119 5.2875224717390115 11.443242247411066
Cd 6.774604424802554 5.584996380718969 11.567393954513959
Cd 3.461702608839922 8.894291399479886 9.793305783713526
Cd 13.750698788873544 10.275483210748643 10.653087273780837
Cd 14.875623073044816 12.92767840106028 9.6024457544858
Cd 12.963291742469567 12.912060874912916 11.889457790152784
Cd 4.1770787665529 8.913746527752966 12.66368750606811
Cd 8.33017309930653 11.006731127005427 10.597864158554287
Cd 8.52826277001172 13.265770064581261 12.715147812674676
Cd 6.113438663756873 11.429036550618685 12.85593637768411
Cd 11.372890958210613 5.930737239001986 13.959424416410753
Cd 7.064730888232267 8.559632718207443 13.405582030652203
Cd 12.3786838467544 8.292172437281945 12.485196953291572
Cd 8.315803337341102 5.975331359587307 14.088485795340574
Cd 10.79825082404784 10.953528149319963 12.545062351750303
Cd 8.496834417898166 11.096458177988305 14.677510871828305
Cd 9.995641326930837 8.629755268984077 14.42632355166015
