43
Energy = -17.62286569 eV
Cd 6.7341883222735035 7.27434710654124 4.715845227454581
Cd 7.327993864538478 12.488876482072962 4.138159288367127
Cd 8.542544842530926 9.762714637030786 4.1956337599123605
Cd 5.388339957665481 10.0285416343416 4.370871174221663
Cd 9.700859732887356 13.966941767613742 5.12428390578577
Cd 9.849031656723511 7.108474973768918 5.1967405168666545
Cd 6.380249035112513 8.733254374127174 7.244806863460474
Cd 11.27882516101435 9.792865541696678 5.34911317076177
Cd 11.619729276162447 12.48883561178072 6.615570562833874
Cd 12.10220025734378 7.324548139884295 7.205771946924857
Cd 7.898182385651855 4.777380969523628 5.728971591665303
Cd 9.458947987339082 8.849018544483267 7.922350519510322
Cd 8.366010261873717 2.988033832812886 7.969882715409379
Cd 5.063060515068072 12.626613829473223 6.151371764091886
Cd 13.014135174546738 10.214364828681427 7.839551863802696
Cd 8.067145013574455 11.227206195349188 6.890492447058087
Cd 3.805046396117887 7.335064880946264 7.708896329725374
Cd 10.849826095017027 4.524382774070704 6.6690071711071255
Cd 9.758197869424539 6.113876471273951 9.13166391342538
Cd 7.016497550246749 15.034626585733294 6.08491097720463
Cd 3.3618498281720206 10.267923811543582 6.629185358119414
Cd 5.537315214244002 11.223431454734035 8.86690325966119
Cd 7.440040256980977 13.714595528906639 8.719132457675432
Cd 8.67264578192272 3.591696367865877 10.875148637252602
Cd 10.010024719089229 12.021603427832146 9.05263965278801
Cd 6.615167579212941 5.727099346094686 8.38403863591223
Cd 10.097144444172502 9.714276631659523 10.882563515385224
Cd 12.875077737502341 2.7777954041161865 8.11091211036426
Cd 7.264642604040159 8.984351571267048 10.055149979932512
Cd 2.594599962265513 9.684335185133278 9.397377738713281
Cd 12.70538869887941 8.417263801720102 10.104194450257191
Cd 10.572046865594594 1.3936335317019837 9.346418581824956
Cd 7.6676519545090605 6.29417150402467 11.498961409329402
Cd 7.682313299416308 11.826269225053657 11.025220154371935
Cd 4.582568267784923 10.116816418726247 11.523216935022814
Cd 13.547425923234249 5.513102811456219 9.07292002216543
Cd 4.841486391236793 7.14990713383244 10.453572588509621
Cd 11.641246730337341 4.144626464091205 11.007470263870001
Cd 5.698199036227 7.901103263704599 13.215179660936892
Cd 6.751005571495102 10.743174938395802 13.594483095830094
Cd 10.784534326971004 6.975830377575137 12.063490771668553
Cd 8.683231172566808 8.526580061564168 13.411845802746729
Cd 13.742588627517724 6.2196489062807006 12.045285556557426
