46
Energy = -19.61232738 eV
Cd 3.5435900720734477 8.11315650531624 5.719504561070247
Cd 5.238523485035108 2.052859028809634 7.003113842440532
Cd 6.693726859608754 4.76691078574513 6.790925811257661
Cd 10.2188118560361 3.775074622778536 6.286712217188598
Cd 2.48522106886335 2.1548278294732164 7.998971517659048
Cd 6.168157948784996 2.2183288449447955 1.780661992115182
Cd 8.057451955042751 7.346818708586266 7.064946729281745
Cd 10.57596590912596 9.230744613440391 8.275911583356077
Cd 10.393826969240358 6.6741737694291015 4.971856786185944
Cd 11.009745545829592 6.28165350670108 7.818546045071894
Cd 8.924907567251934 4.457818288844514 9.11341183368539
Cd 4.412908587205689 4.046967391669481 0.22423645627503735
Cd 8.431374013814237 4.538558505413338 4.035047918612522
Cd 8.76121671801111 9.18621135647853 4.403801571739859
Cd 0.4713122175334415 5.187127351174329 3.5829654267395807
Cd 3.761743935198194 5.95643571766984 3.458319215926197
Cd 1.8087235782561213 5.418653372853622 0.9308683359051867
Cd 0.9194462468242893 3.1098650053010175 5.604736468491605
Cd 0.658158631402744 2.4379561031409036 0.3171277038831822
Cd 9.164696967505224 7.289764658490331 10.149282631343
Cd 2.02893254768411 7.27150483819986 9.093946262890498
Cd 5.844064351825328 10.048830722646839 4.67153662767589
Cd 6.737087535458242 8.866725536289664 9.725897449409898
Cd 0.9227685602075913 4.634722918912961 8.268712866463384
Cd 3.0363243222781695 0.9074703235447287 5.2174579262775875
Cd 5.383156740008548 3.574292957811304 4.314471165942095
Cd 8.59879077749438 1.6434907860776302 4.55971703512189
Cd 3.792502541353945 4.473909703627528 9.48927053364166
Cd 9.07116361247162 6.99796654716059 2.3478917967929647
Cd 5.0624559664013375 10.032769088976524 7.584600816751487
Cd 3.955219734282659 0.2286452425060887 2.35482043142202
Cd 6.491839561952859 8.531473700187458 2.0446607165169017
Cd 6.37205814828377 3.0441293396093925 9.702593655471563
Cd 4.90130916967615 6.970999882375197 8.159045894799439
Cd 3.700072572728198 9.38736989051065 2.64075837741643
Cd 2.6005037754654237 2.985971543946073 2.9039861403248852
Cd 1.290262878118881 8.0019431702926 3.4517196862911086
Cd 0.8222378296158035 6.709913405283749 6.179836292737567
Cd 6.261154491799373 6.920777870945693 4.733242729933853
Cd 6.3408145614658915 5.953322465537464 10.683756738453926
Cd 3.5531317603447174 4.897903716036179 6.274589035202045
Cd 6.012580931814132 0.3101916504283686 4.509120520339742
Cd 4.268923303650066 7.141700461742862 0.5018481049094332
Cd 6.5124650634996 5.409506997983121 1.8960234800655795
Cd 7.999613215060397 10.415247072527 7.093804779552341
Cd 8.212011244316045 1.8662695304784553 7.536697617266868
