43
Energy = -17.44649548 eV
Cd 6.227820796593493 6.382298220019439 1.872793980142956
Cd 7.114870144072191 8.560874518179347 3.797474020517117
Cd 12.173445032876733 11.170356977779186 5.084845470290891
Cd 3.800377063043533 7.400595675873734 3.3650267942441805
Cd 7.605052657990334 5.084759371544787 4.21928584899984
Cd 9.546377653950955 10.029570144575276 4.510915594656984
Cd 9.819955469618629 6.904842810393321 4.321834458950888
Cd 4.951965170706046 8.832881938844393 5.844133905102116
Cd 9.859385104166824 9.910681234100409 7.590994074844304
Cd 7.25635629726774 4.394211582805523 7.027652125607009
Cd 4.978937780515609 5.744492974990362 5.654762854725548
Cd 11.517054315243128 13.114962928519628 7.10930826261584
Cd 11.91226772098818 8.174799583978068 5.86414465890291
Cd 7.565177584753881 11.632227343464866 6.051040413010717
Cd 4.595315607169728 11.374084026587704 7.0779165881625135
Cd 13.739089023427493 10.237547269488836 7.32821420061561
Cd 7.838213395913383 7.771675345850277 6.715207733334986
Cd 6.388878579148145 13.836696988029654 7.846887515529868
Cd 10.17357415221116 5.861955609718689 7.37028040322095
Cd 8.330785586539239 4.773990068148878 9.653146446402161
Cd 9.047527741672218 12.754500410501082 8.727218041415696
Cd 9.163283244643305 10.618641506953717 11.168405851157964
Cd 5.3692425246777855 7.029785262580427 8.28471417798189
Cd 11.634210021793631 11.34050232499026 9.641008011921913
Cd 6.9699605068200645 9.983492710359476 8.63823832818456
Cd 4.023452977701205 12.991057659051501 9.481920819500793
Cd 6.7034695252988135 12.419625005037025 10.684988285736692
Cd 11.896508871494204 7.939413256388692 8.847930447715767
Cd 8.650963140219849 7.793556239206348 9.796580934382298
Cd 10.03908404994057 5.396873691344383 11.907186680558455
Cd 14.1694257362156 9.573111950268004 10.100646016325298
Cd 5.568403465271998 7.404141311367134 11.018464194185496
Cd 4.360505044249431 10.070724370000987 10.143255966535312
Cd 12.582166922137727 5.561974126560554 13.52514787840588
Cd 6.290866872442008 9.97826929008723 12.449505134656524
Cd 8.5293154903479 9.93740386950853 14.239499470948411
Cd 7.685783258914027 7.125021567179974 12.94389877919231
Cd 14.263511705320715 7.623498452505843 12.27128603377803
Cd 12.843985593838038 10.667676313624689 12.498090113597872
Cd 11.00401150329859 8.265536256190675 11.688043134285142
Cd 13.322792618936848 7.964408294411258 15.263065143702102
Cd 11.33313771259113 10.177423272954135 14.891763844314374
Cd 10.212271526388509 7.248637436444738 14.542056552049221
