42
Energy = -16.9003534 eV
Cd 8.898300672191109 7.253028343235842 2.3519032842358722
Cd 8.081401234428835 5.317858182665863 4.458461220640928
Cd 9.145693061591286 9.968178355369552 3.6028107138467083
Cd 6.897058803532082 10.79258802932011 5.192789901182823
Cd 6.455658270129378 7.806692150702325 5.227098959562033
Cd 10.29986168468602 7.3758489778339245 5.168352409458738
Cd 10.004941984988244 4.8799437962906485 6.936958719228552
Cd 6.747850934952642 13.526841619558269 6.159355001999583
Cd 11.064772991726901 10.299543950360206 5.901359841745847
Cd 8.327812038154644 14.926027540328771 8.35898251905855
Cd 12.394832100523363 6.724835279066864 7.196664541269166
Cd 8.524557351276059 8.733968382874467 7.286234663054231
Cd 10.906695019196864 13.711692174072745 9.147362878035517
Cd 5.942508204515192 7.524680489567619 8.3653553979991
Cd 6.271318566077659 10.777321490365996 8.162937532130105
Cd 6.942711438827627 4.96032645303438 7.150356374588454
Cd 9.49718400060393 3.4182077943423548 9.580071521760491
Cd 9.10447890807023 11.858816726126907 7.457117531212047
Cd 5.426884430926698 14.034753930914537 8.762749082684916
Cd 15.385535037991499 6.235909083310241 10.258136149690923
Cd 9.519490857112647 6.806485992775738 9.313064930526677
Cd 13.273150517201373 9.528774594944839 7.648563880207424
Cd 7.8871791576836685 9.041339419256508 10.540429980395984
Cd 13.148722028864153 11.892504095637367 9.573997303972181
Cd 15.010210078458716 9.426286867377085 10.06282308959656
Cd 4.8542600465699905 9.315621214006176 10.453131140389914
Cd 8.26275401009477 12.45250661469384 10.419951906343352
Cd 5.356713663366714 12.170488395973813 10.99471769213076
Cd 10.646641829781025 9.739757035502468 9.271429510416212
Cd 12.526558886218046 7.302267837553766 10.111437948800186
Cd 6.767655870169674 4.465395739583659 10.052872792002262
Cd 11.365446217363491 4.764963094725889 11.392251815460824
Cd 5.266502742366928 6.550812577975996 11.378613525993927
Cd 6.783338317122938 11.399415550179112 13.501320081894633
Cd 10.843681418131485 7.614777729583739 12.63449551442637
Cd 11.726237457155275 13.278751359018429 12.08903106900428
Cd 8.220507110865118 6.222243607977481 12.040647192088015
Cd 12.824749722237247 9.872171348508395 11.983403678549635
Cd 9.144299191353847 13.206336501298054 13.647746001842398
Cd 5.283192815307906 8.666148004114067 13.48155004026432
Cd 9.95387637661119 10.636215525164246 12.134841703868048
Cd 8.190611445969152 8.695510639202997 13.724457452837566
