44
Energy = -18.65583465 eV
Cd 6.320945485444488 5.372556096269846 0.5085888860391725
Cd 3.5035084366481235 5.77906432145979 1.4814054148205757
Cd 4.1024758125150695 8.666557310288388 1.968369742077953
Cd 7.787892934422746 3.2085113669465555 2.0966456499669004
Cd 6.984666549312633 8.159718656121608 1.2743779595642541
Cd 4.771387545191057 3.059216868891572 1.8126782432636313
Cd 6.238207690203805 10.304187375132981 3.1903816147901347
Cd 5.73890804763842 6.272211906018647 3.645497618476047
Cd 1.881653409741591 7.259865125282994 3.5455548414553206
Cd 8.6259438369059 8.222379486649862 3.8806239909278806
Cd 2.6881293267176303 4.110175297325706 3.8061666224062423
Cd 9.062913293293429 6.021361303151321 1.8181884995775357
Cd 9.348779139375447 1.7765997147964134 4.197083152720188
Cd 3.6221484982983942 1.1790384044411446 4.50586625137839
Cd 7.603684836864199 11.598543608488281 5.376190430106347
Cd 4.04836379884006 9.087572507418427 5.009457250616726
Cd 11.00153192068713 3.7724733181655417 2.5278116235561945
Cd 6.0078202947093455 3.2059303984035235 4.642664330062314
Cd 0.7673324225730015 5.383823156222312 5.730111935759717
Cd 6.50789577255027 7.8342430677070105 6.105931862900746
Cd 10.66536430558866 6.820780628700265 6.314605033009853
Cd 4.038553826222031 5.784413624515331 5.959000842831535
Cd 8.34571834061035 5.258093010743829 4.724827520971166
Cd 10.96523362859499 3.9309371173563763 5.653975294700952
Cd 9.604575728857531 9.586597836196917 6.319222925816757
Cd 1.9223849585391952 2.747375344621884 6.50216715727991
Cd 1.4899846436112822 8.21625302181463 6.384336037437851
Cd 5.601433667848767 3.551298201350769 7.547238994106676
Cd 8.27739274293274 2.284095459824993 6.8034936151398435
Cd 6.52936133267532 10.421002204026822 7.827041740747383
Cd 1.9770987912849423 6.047516386539497 8.40946557456845
Cd 10.362962004336417 4.524051411237965 8.559813142148663
Cd 3.1060863622960757 3.3073406438704236 9.097392546870159
Cd 3.599747638338058 9.842165122130032 7.874190174428678
Cd 7.766810243305083 5.645537152863823 7.5361373895141295
Cd 8.036333812269756 2.8476279929096378 9.661461665770158
Cd 5.1432143597263 6.51011331328577 8.562680784804543
Cd 9.074494481769696 8.129294687294967 8.812004883921839
Cd 3.3192375212884846 8.24541628990083 10.326700371015656
Cd 2.8744451152995234 5.425443364310578 11.225102149368944
Cd 6.592783188853467 8.908433628549611 10.305409849794886
Cd 8.039675314340071 5.919445814768499 10.640257822255666
Cd 5.5814883752967015 3.9391961463983867 10.818111823178686
Cd 5.436243383085165 6.798355126508217 11.97657955875454
