43
Energy = -17.7004382 eV
Cd 10.570246775128057 10.972879485410594 3.63285079970671
Cd 5.157881313776635 9.480097141448697 4.003794414561713
Cd 7.8400992222157395 7.707436402231511 4.082678577815382
Cd 7.774783168949698 10.534881276233314 3.045421595625572
Cd 10.099707139296253 5.269801604285298 4.0383371470622755
Cd 12.530643023935275 10.364686229944967 5.7029385752297745
Cd 7.142817453718956 4.78208518973001 4.386315733571069
Cd 4.779765660710751 6.451178635164589 4.580758389648622
Cd 10.593142677895944 8.053508296297055 5.249088558228009
Cd 6.496974892375676 8.994211020511198 6.812286130454958
Cd 6.498801522421277 11.970896715222738 5.384522813672462
Cd 13.072371326268074 7.665624445582858 7.1152730784386975
Cd 3.887229548864553 11.328000715952404 6.597249664288284
Cd 9.032347432817714 3.268465620061749 6.1326482474503345
Cd 11.45505931230664 12.06610357710548 7.9396654717435675
Cd 11.139594981683512 5.365695646826315 6.901400115876603
Cd 13.691765827075406 10.167015635974252 8.59190640178477
Cd 5.799696249499547 4.855428319971759 7.125217194521354
Cd 9.11104980047255 10.643522117928162 6.500124443358017
Cd 3.2863904256834515 8.303525009690564 6.2605313966083855
Cd 7.827427457183752 2.9671218362543472 8.800620137944925
Cd 8.268851086389505 6.660397547860658 7.049269712953669
Cd 4.864371741935334 7.240630428031344 8.751473525449024
Cd 6.423780108490008 11.544717681795367 8.463745513020358
Cd 9.214653134788458 11.138646958881939 9.607387974822508
Cd 2.9970865668962574 9.705759733812187 8.915803220203399
Cd 12.339213298433927 11.631903143044152 10.884793274948931
Cd 9.32462127288457 5.525637765151794 9.590089122958151
Cd 7.605581641096893 8.261786466760627 9.677801826084306
Cd 7.076685286218774 12.144170797857853 11.418383274509106
Cd 12.39783073034225 8.655575159106842 10.895443804094013
Cd 12.516090343904647 5.925632774966948 9.543521512271452
Cd 10.301083458657775 8.545949584276602 8.47295007310939
Cd 5.177984065775521 9.919373522481264 10.749519215325117
Cd 6.048694113667896 4.964823803985704 10.250229847683238
Cd 10.053571531431732 12.646698749795977 12.28070015209032
Cd 10.8356711380033 6.418943407450541 12.04026156813225
Cd 7.780833657289676 6.298958924593271 12.161496646501652
Cd 6.730667360752775 8.961276645633351 13.035698587041603
Cd 8.229864660039135 11.359257989959863 14.151502888921382
Cd 8.453040440441145 8.979916013166392 15.857761162682252
Cd 9.64382784643282 9.28585651617515 12.097986110130353
Cd 9.408476176253883 6.45219633579329 14.700826971882574
