49
Energy = -19.93543595 eV
Cd 12.137956700428385 8.728373637474126 2.8647177012569154
Cd 7.887935880602826 9.461724883608868 4.02688748693913
Cd 12.697639887212144 6.32558125552711 4.514651335044014
Cd 14.491663811557443 8.828078766353135 4.934732375507687
Cd 10.027252100113781 7.554131109413317 5.148531622930008
Cd 1.5561612303084185 9.312964412601952 4.24084873071933
Cd 5.0449548805394295 8.694531254803339 3.934928298863761
Cd 12.842185130419313 11.577361496354541 5.621974056411625
Cd 10.477437774243018 10.85204764216192 4.133154747939064
Cd 11.843824313392796 4.0019132682008465 6.18576991465823
Cd 7.221969290184317 6.574364412693776 4.840355443956162
Cd 5.920202639518626 10.980182949828585 5.998476324997694
Cd 15.74669623759422 7.9550192975733935 7.8124257638395935
Cd 3.582259500189133 9.008252288712992 6.541152811231972
Cd 15.240653479877011 10.852283813533958 7.1969139143544245
Cd 12.105527875539854 8.85094525550253 6.884078585033764
Cd 6.824896955059217 8.284953013542962 7.2905695351289
Cd 4.249947394462381 6.238013890582661 5.559363814502011
Cd 6.8097323677566655 11.719141338913014 8.733412935142603
Cd 9.067943319985252 4.98539722274811 6.626874910981722
Cd 6.198750104131578 4.635342236289754 7.085200318545997
Cd 11.550510800321668 13.89064946205463 6.92778429322361
Cd 13.591332167643635 6.066644188819294 7.467462478075139
Cd 9.026131888367939 10.707232730901495 6.747024068329049
Cd 12.713465054387214 7.745965688830874 9.815622474448432
Cd 7.4411144923609935 8.98081193817721 10.09885334956948
Cd 14.815024715488239 9.832738968002925 10.071877451135721
Cd 9.622880399562396 8.075425149391917 8.223928512328817
Cd 4.572823547709796 6.839559839966742 8.783112454555386
Cd 5.113843215473009 3.759830105507655 9.708599147495956
Cd 4.286074811817846 9.842083514195487 9.218727110244696
Cd 4.843772763927253 11.845685966072116 11.170415981392818
Cd 10.991449270806918 5.3787618649840265 8.93705852543586
Cd 12.451926150230776 11.200656621425868 8.77013590644691
Cd 9.778839924217959 12.60780565330522 8.953371691659095
Cd 7.834747632363109 5.807701918565588 9.418320048129539
Cd 4.780189456392219 5.886203437833736 11.762859687664362
Cd 8.402289068050631 11.835175076379354 11.42546232724895
Cd 10.397401673093965 6.855345125376086 11.545411350221416
Cd 10.551825522458213 9.89431437257453 10.622178465350926
Cd 6.551341934047133 14.003969702780047 12.342427329439065
Cd 5.121889807725747 8.79211337015252 12.034395297688144
Cd 7.66466891702909 6.182910001333285 12.32931889179003
Cd 8.628029125575017 9.062208111343224 12.886713904284788
Cd 6.416403703793337 11.098992894397352 13.63825213076941
Cd 6.813271981510943 5.960242768693871 15.198417387877624
Cd 5.254430457405893 8.591554671444634 15.23751403150336
Cd 8.297228935184942 8.658877269113095 15.893007505670786
Cd 6.588423259067893 11.252857691082776 16.673649119162487
