41
Energy = -16.59408929 eV
Cd 7.386307314375805 9.21104631051324 4.8649402986905415
Cd 8.731468625129343 11.549143013450513 6.036753302926132
Cd 10.355795444185643 9.355913749471412 4.462603720959364
Cd 9.157855992649507 6.918654259484619 6.000034047327277
Cd 5.894192072681974 9.211641672819564 7.544843741025836
Cd 4.2441786305404845 11.792513932362588 7.559704256416427
Cd 12.733412041738577 10.929990803890902 5.143635321379816
Cd 11.873019793853722 6.635749314786485 4.630483848534516
Cd 12.668475166526736 5.059771152268797 7.128347007943797
Cd 7.628701996819705 4.333318901725599 7.070363889028216
Cd 10.103125138216493 9.388412857039432 7.671063663429333
Cd 10.234122028902162 4.0829452015032315 5.494042070126394
Cd 6.446477651312734 13.393523545492085 6.365991080341452
Cd 7.804806713681996 10.981578812739304 9.082139959845728
Cd 12.944006038411295 8.05896165717402 7.037420931066572
Cd 13.020105482307255 10.760783853253946 8.086688837464209
Cd 11.30819348432609 13.073303209110396 6.676203206781593
Cd 4.659155854506818 5.691423343928528 8.24101110374882
Cd 6.134877282044424 6.708660133143969 5.911681875490366
Cd 10.303925027334664 3.6612722721982625 8.489797555383717
Cd 8.896467727861284 14.017937262704306 8.175002166701603
Cd 6.950918279361288 4.734898205543394 9.975555528313542
Cd 11.27438974162859 6.670632905585883 9.249137093633212
Cd 4.877024139873207 10.750908570212678 10.26808308084667
Cd 10.845331069152119 11.977258821195713 9.63737647743287
Cd 8.44319306571265 1.944535283561246 10.545321577335233
Cd 12.849126221343049 9.13049184836864 10.55012683918575
Cd 5.4666089434844825 7.783074147581201 10.249486837315628
Cd 8.220938362475579 7.4139597918681 8.835257294511576
Cd 6.117343974035741 13.604958407563577 9.378882788600777
Cd 9.62283011014981 9.364826448611273 10.737196711134345
Cd 8.536942658750664 13.733243895671139 11.179982612324098
Cd 6.973930768036593 9.733867057699959 12.10864695788117
Cd 11.120181641730039 7.128944635553915 12.211827566281347
Cd 10.49343013316107 12.076442070702676 12.617354397952981
Cd 9.803571305902773 4.700418117675498 11.284326854168475
Cd 7.706486123894306 12.05103332048097 13.735265183729807
Cd 5.384185815309917 13.14686576588439 12.196088758687756
Cd 11.899838082191485 9.720118882120657 13.446293008354942
Cd 7.902373470617514 6.882225785197865 12.063805123437952
Cd 9.127760438452484 8.779824632529914 14.202307276931048
