44
Energy = -18.85059383 eV
Cd 1.3710561487451638 6.451938121884172 1.4799503998220824
Cd 4.461695300523245 6.34227835806162 0.7864712682785
Cd 6.222642032251713 8.258866987678054 2.2149249700755487
Cd 3.0077910812379627 3.8227239243496425 1.306012234513933
Cd 3.0893212331184197 8.850429982207622 1.8324931003433171
Cd 7.200962060093221 2.431192123249706 2.5897369980036173
Cd 11.093839683073869 3.9035804552864866 1.9881017411117394
Cd 7.433024729630443 5.544274439017714 1.5335459939725056
Cd 4.836697959314744 10.880994632228353 3.1180022196134414
Cd 4.01531725032204 7.268606380342152 4.337575721760716
Cd 9.19108242925571 7.303051883211084 3.2051456006635384
Cd 9.30748525907308 4.249156206736666 3.636956974051315
Cd 0.7725195712239017 7.570740112148373 4.2974861595450715
Cd 5.233677068214423 4.697705653398581 3.3541822716256684
Cd 4.4267093871019565 1.393868216256321 2.367407999403944
Cd 1.4632899697323922 1.504042534629802 2.574469436198577
Cd 1.6963351843259888 0.51782736295062 5.262532747911929
Cd 8.828405432459958 1.487371841184989 5.0295715344372995
Cd 7.500754581587393 9.909689347932924 4.330093700991566
Cd 9.900310125048712 5.941130074516724 6.08823459598372
Cd 2.1639925212899525 4.7412530183500685 4.273752118867396
Cd 2.261214662717661 10.209941143197607 4.485986925179396
Cd 6.138865622244968 0.20518811534486606 4.52537642924874
Cd 4.219565450698935 2.644246053560733 5.207908384336987
Cd 4.921842057005149 9.94289700785878 6.048238740625616
Cd 9.714493320803857 1.7877334807049081 8.092199742827349
Cd 7.095081028344636 3.874455546191612 5.981889423213491
Cd 6.79327513412576 6.783138871971354 5.15724049554548
Cd 11.093839683073869 3.3118932680302553 6.077060066345306
Cd 10.059791662262574 8.850303778833053 5.6287912907463635
Cd 1.8850083739929195 2.376197236096333 7.4988336173086205
Cd 6.978292287081777 0.7801448859751168 7.469343640887994
Cd 2.4438750737819155 8.290741936803634 6.859792876019322
Cd 7.693415423132063 6.338583207024636 8.096232697025009
Cd 4.141131801271603 11.270929386685413 6.891865167162267
Cd 4.572239582657877 5.455241722230337 6.680407065106871
Cd 1.5676953589273648 5.397346118490696 7.074865938881987
Cd 4.919622829238005 2.867550523918826 8.200887388410504
Cd 7.734887634932237 3.579206385841052 9.244488008209856
Cd 5.200434776077851 8.022214766955894 8.335332075012069
Cd 7.667353949142942 9.327440004763812 7.31769639259477
Cd 2.658916204985104 4.160728447774818 9.697934359130267
Cd 5.375908144621597 5.418745603818599 9.947672760000547
Cd 2.6553577004585924 7.043427621508601 9.584786521971454
