43
Energy = -17.21412359 eV
Cd 7.622948494083417 8.2707015571364 3.467448478279572
Cd 7.790335474018873 5.517611055991479 4.472879294006861
Cd 9.16850707473974 10.652979277957696 4.175286831876636
Cd 11.90943728917087 11.22307588161167 3.3502287294671236
Cd 5.28838244296818 7.597251669452213 5.076956348066823
Cd 7.146744088761736 2.87840531447049 5.662488121148629
Cd 13.177403711225839 13.227432000019835 5.363102990896018
Cd 13.575841552110688 8.99690987923173 4.369015946738995
Cd 4.546810478144815 9.72433508512415 7.945644798748422
Cd 7.310604561030683 6.613298753344003 7.3273259581822705
Cd 8.712209501500833 12.76862505543601 6.144561140733523
Cd 3.412231228993274 5.340382235648036 4.173732847552447
Cd 6.57551686144927 12.241480347945192 8.170482396930081
Cd 10.203480595055265 5.367987101093424 6.761123936443529
Cd 4.863991015262282 4.3503100548574425 6.7140397216535606
Cd 11.145986279045813 13.437266194428748 7.746023817941039
Cd 9.112579223264918 2.7768094616674857 7.814437711633361
Cd 7.144435980355166 9.71827015388189 6.462145589614906
Cd 11.43092348755039 10.649023135728443 6.46973825211369
Cd 12.525915074226182 7.356539051204142 6.5469725781641905
Cd 9.718929172174324 8.131983099750855 5.770101758001812
Cd 3.280722618943637 6.918790886006897 7.128878161265336
Cd 8.394266573873358 4.806106157654851 9.777582710374384
Cd 12.266784144768565 9.255177994489614 8.924887317263714
Cd 12.304840376612315 5.983648802693305 9.129464082118005
Cd 5.370708997369187 5.47783293618677 9.430702151470735
Cd 9.225655176423365 10.539030909799559 8.674016035094969
Cd 9.557425402030766 7.641550761193891 9.197091786319648
Cd 5.716700861777164 11.07527309675582 10.795552320519434
Cd 8.236066803989804 12.884753330864235 10.713076147368303
Cd 11.147650694735589 13.164470245211735 10.637133945010461
Cd 10.672117425585181 5.652308219245804 11.649519627401885
Cd 3.1964781056927296 7.743401132431936 9.891451588674874
Cd 6.552375057836435 8.303293928109687 9.648858936963256
Cd 12.849234370325108 7.7551883878305405 11.489432151012554
Cd 4.9455235186891535 6.658795338039518 12.16569281098071
Cd 8.464378660111809 9.69639530752016 11.533321861930105
Cd 7.928551353171388 6.69577925384863 12.177939184094855
Cd 3.637670585185609 9.518485657428855 12.154606815293727
Cd 11.423994057784153 10.443192953512744 11.559469176021786
Cd 10.691053513760329 8.257101713957427 13.469128992712061
Cd 6.252133139482532 9.03871524159543 13.557406366633824
Cd 8.560737338103916 8.708313741026062 15.369332944665898
