48
Energy = -20.02686153 eV
Cd 10.938400814223282 11.234925689996063 3.8880373598027878
Cd 6.132857640573108 8.640045332446599 4.376407558821868
Cd 8.96370603813401 9.702399222755743 5.4624413005463
Cd 11.676062213179986 13.980833664639562 4.822648881850907
Cd 13.724525415029296 11.455637483986031 4.888322246095742
Cd 8.558621100737303 4.188109659120824 6.375306237565388
Cd 8.841707343280957 13.219392636519132 5.1489323748980835
Cd 6.502633499800854 11.323450536683172 5.766846173624723
Cd 9.551458289119605 7.055965548002053 6.48569959089383
Cd 12.118774377995141 8.930809191094133 5.793219237405615
Cd 10.903045509869632 11.510077599950549 7.261494163614102
Cd 6.382631706507023 6.219822015743654 6.053593661463131
Cd 14.037559745429604 10.557564465560812 7.777509060013956
Cd 13.58776316246115 13.597948559718835 7.00984826467077
Cd 8.742177186076676 9.97480405898465 8.605058731446471
Cd 6.951300797152604 4.7046643268601835 8.914217004016825
Cd 7.94547255523025 12.96420806753971 7.967246141536213
Cd 5.602530697544593 10.705637545591216 8.446460685261261
Cd 6.680682961161587 7.858614543947087 8.428244038876393
Cd 9.361983868903138 7.08457573465425 9.58011047397842
Cd 12.364319881241027 6.365102587944078 7.3928018782610945
Cd 3.625772460258393 8.677453493901721 9.215089904732798
Cd 11.678522955195554 8.929687916888208 8.91627414327103
Cd 10.653721214026941 14.598361127138423 7.697915633067224
Cd 10.357508233078633 4.372219476671108 8.779229074845905
Cd 8.616423698993483 3.6657883375465192 11.189295571167385
Cd 13.082014850247464 5.563766550439726 10.068729176794346
Cd 4.114501241388582 5.824606164125695 8.578553296167302
Cd 6.725147618951947 6.639218462300738 11.302012238012448
Cd 12.781995505683309 13.407262524528685 9.78206318503879
Cd 13.642301089980782 10.647329107826469 10.749548544348245
Cd 4.539014097176728 3.717562308662667 10.73363122323211
Cd 9.178296560090779 14.219976928896685 10.430445356113328
Cd 4.021226387883716 7.905705403557254 11.993522199077585
Cd 6.692620024111075 12.566074476661775 10.656685787293611
Cd 10.563547645301428 11.4857370340403 10.300282108185568
Cd 6.3844432914054146 3.5224767234024266 13.134776482167139
Cd 12.404248963052277 8.000618175326897 11.613767125601104
Cd 11.490712755778857 15.038134958455824 11.950294467164095
Cd 4.0061593881849555 5.308603437438813 13.299452607266263
Cd 11.47431217823417 10.351384875158661 13.166693723998842
Cd 10.723389600661 5.6064044487836195 12.054688603975388
Cd 13.322476664926285 12.816905517766498 12.850133231442191
Cd 6.443491625792432 9.656510189399986 11.319531668242288
Cd 9.210405030367138 8.509441810249342 12.186627685363439
Cd 8.296479244660379 5.867949665734718 13.748584053395827
Cd 8.68028992249976 11.494495683750428 12.563134505984992
Cd 10.555868565006323 13.164842346196126 14.107698955996007
