45
Energy = -18.09851501 eV
Cd 6.568098478232982 13.899575683415252 2.4702264491279045
Cd 5.7884304984415715 13.910807402915376 5.641110545863524
Cd 5.847789189954666 8.719191486125613 5.11542906289988
Cd 6.8994125809283275 11.300757823702071 4.180025495048278
Cd 8.706691687867941 13.972638851909414 4.751316344148314
Cd 10.148524396990444 11.368203073368164 5.151940761592011
Cd 8.774779714024719 8.873142211917141 4.102760519874954
Cd 9.61170311655292 6.3152122342824315 5.48847128031466
Cd 11.603297102743122 8.864174864862465 5.5954658125968715
Cd 7.7521042142911565 11.655276207539012 7.151954161549382
Cd 13.37859439597803 9.033362518004795 8.011308007621716
Cd 8.303972915426108 8.566162974543447 7.161389920328828
Cd 12.33989620300096 6.24613420009002 6.843317807306063
Cd 10.104856441013276 3.7651413137495426 7.164623312364069
Cd 5.332319261833191 6.074541315070333 6.209745999856076
Cd 10.607315396352258 7.652731961802232 8.861289317233593
Cd 7.8467297751144285 5.483822766297981 7.842026543941008
Cd 10.57074487394726 10.669885470957636 8.106756561652778
Cd 14.318280101840015 5.732539515332796 8.975200516196786
Cd 5.140079266177793 13.559763758312071 8.471688529743787
Cd 11.598419124190288 4.571262567614185 9.53869971123739
Cd 14.309195420346994 11.196684910738515 9.894280181140493
Cd 5.560703186739475 9.781172534568968 8.008469357648067
Cd 9.024528832663881 12.870001636441359 9.550673685856188
Cd 8.224150996473714 9.225038369513461 10.076210495734893
Cd 5.745320410975226 6.8818815107099915 9.29327792948129
Cd 8.870564356504019 11.419201396840466 12.140100956611475
Cd 6.375117702985123 11.854837376001818 10.508863016726835
Cd 11.227321857234752 9.712283028853498 11.029261965979515
Cd 8.688137898928744 6.017750449220727 10.71917143461861
Cd 14.099823540108558 8.022992527342272 10.76078196495594
Cd 12.840015942717693 11.852534925536867 12.667738547073963
Cd 4.694402303953937 5.03248041899382 11.596031906684745
Cd 5.02030814142747 9.280041976891244 10.90366968608478
Cd 11.921904142618274 13.001278958623448 9.998317351468923
Cd 9.269396775081653 8.225886380137895 12.921867362263333
Cd 11.538548953778285 6.525073148209272 11.73087322026854
Cd 15.237414514753691 10.067992209958017 12.66440414422384
Cd 6.537936441981003 7.268684991824763 12.519492942864801
Cd 6.307464945260475 10.185473622360986 13.393185079589577
Cd 10.492326218104257 13.347790390473696 13.734573334600908
Cd 12.665199824630738 8.675135150981776 13.64816702303815
Cd 10.473381108373736 8.297006691326231 15.725830808459143
Cd 8.720131058744807 10.732173282780638 15.071608090083808
Cd 11.725984886211899 11.103594105358686 15.419721049545606
