43
Energy = -17.55932852 eV
Cd 6.894720685410668 8.7727356155517 3.1201518246929814
Cd 9.562301310812 7.384574555821322 3.402082815622896
Cd 9.492188100172354 4.906864269541025 5.2547663471483
Cd 6.081521637309677 10.70025404794514 5.240337608448864
Cd 7.038437552991234 5.721707599653888 3.7253201319865705
Cd 4.9902631874927055 7.391741927458428 5.159961158529551
Cd 6.535973351712853 13.63394230349781 6.177815210379583
Cd 9.123256988184519 10.117882204367143 4.909775254275323
Cd 3.556699013435934 9.399855787179847 6.713623863695281
Cd 10.805845740935482 7.70723211749592 6.174469324622169
Cd 7.648964811978438 7.922726487091879 6.463212792654607
Cd 4.181848623346145 12.25922530899116 7.23820279462766
Cd 12.839586541270934 10.645798338511844 9.457337998179904
Cd 11.144867709325217 3.7055764703473857 7.453977466173907
Cd 6.46377659160947 4.889547721290328 6.552578330743009
Cd 9.265213719282148 13.008296192203751 6.785935286088696
Cd 11.254949737913382 10.579037520511347 6.921106000854694
Cd 9.093551950937066 5.8804005733755895 8.158213049526983
Cd 4.571884895691308 6.846219604672263 8.137838324403388
Cd 13.024353312793913 7.629045826467878 9.983984642690032
Cd 6.467825240194734 4.877574653852352 9.545520473650079
Cd 13.067527384660883 6.16252478197346 7.333231261215078
Cd 7.788363479002236 10.46351723463438 7.934104783022855
Cd 6.418931540816059 13.060069909762948 9.227333061046261
Cd 11.383936953457784 13.203082231233061 8.71478188844085
Cd 7.150290826991337 7.960120248364333 9.490415230590976
Cd 10.142761485073578 8.676351209019447 9.08954537473271
Cd 9.406428386868164 4.071046218644259 10.5006065571143
Cd 15.084781785007587 9.457009853069097 11.128977633710749
Cd 9.138113946630243 11.616211736493266 10.324662727887695
Cd 4.957553159507553 10.145407246059937 9.2928353388368
Cd 4.766577485440265 5.769233533871252 11.869572495344002
Cd 12.358149175934999 4.646823117737321 9.998742283069006
Cd 6.46099231298635 11.278996685919244 11.66652197157771
Cd 10.634779771014388 6.598041928945218 11.709562492663064
Cd 8.443352130429316 8.86508556620352 12.034746059181787
Cd 11.702138171870839 12.647878077854003 11.612475501500738
Cd 13.910017273622595 10.952739840380335 13.323204550038138
Cd 5.040969321244616 8.64748277005294 11.904475267945449
Cd 11.165339477435722 11.63947832760857 14.3335951362584
Cd 7.697243323366637 5.941113553594103 12.32946307788602
Cd 8.319725837597975 11.23647475106796 14.00807775148585
Cd 11.403377289881549 9.46045327332447 12.076240079097646
