40
Energy = -15.11169986 eV
Cd 6.6530357492201855 8.078584148841852 4.01150692993203
Cd 9.724640907954903 7.598825132546098 4.101232310228856
Cd 7.2487091784504685 5.228844594191256 3.769212108015942
Cd 4.989660275113844 3.136499959429112 4.677823668996939
Cd 8.497546691780673 9.852545542400335 5.7008606998745215
Cd 10.335054266534566 4.6831243448049875 4.193969588992699
Cd 4.546122198019471 9.9771652734991 4.413605112749484
Cd 10.48053263824466 1.6865638835562464 4.7252897810929735
Cd 7.88340437714548 2.9007353601272774 5.662790994483866
Cd 8.25503263801161 12.318858899590587 7.416735437837793
Cd 6.683490659659992 7.939281224608529 7.204430749815609
Cd 5.969686016286008 4.9869053045999685 7.061456944739662
Cd 9.003777191348762 5.934905335643097 6.798213216815691
Cd 11.072287273281683 8.132819055134132 6.858002183772046
Cd 6.8293738114892975 14.83744448178181 6.303197213302159
Cd 5.433545737105042 11.966160517970675 6.451747222795864
Cd 3.9118445811570544 9.324058284935445 7.218643518540338
Cd 11.026982424657103 11.010697923542336 7.51209974502419
Cd 10.82814000252103 3.3690423036093815 7.255670759881215
Cd 8.184702751819286 3.19895624086902 8.794341549542152
Cd 4.085231718295597 6.812400842089743 8.76620108994405
Cd 11.442263057748862 5.735298029834897 8.860275543145391
Cd 8.386345756168037 6.806414480764146 9.59170567855541
Cd 7.678595049778886 15.008777009702058 9.238305696179726
Cd 12.826978844606131 11.802867889064034 9.773058354825121
Cd 10.278281381156223 13.514986159344211 9.426075494915574
Cd 10.546109471839467 11.565274838199773 11.722338757476399
Cd 8.455417436572866 9.755164685151072 9.012262638498651
Cd 11.542698230445746 9.031294775891492 9.915770357166277
Cd 5.338183051579913 12.649437446260263 9.366072204170868
Cd 5.958456653265913 4.988889677691248 10.210621040932747
Cd 7.522723275320141 11.642808662491896 11.277405067594996
Cd 8.655592254086017 4.117634196248109 11.54493581352411
Cd 5.316807395521277 9.682259578055785 9.891603660241708
Cd 9.131149756289105 8.963235741889662 11.940823858735651
Cd 13.746237898761207 6.98697866951255 10.605202174214636
Cd 6.245823941521517 14.379182987173031 11.766586075112876
Cd 10.825490140468457 6.368000237800369 11.734714292139675
Cd 6.180781658384275 7.612266518643356 11.759418902217194
Cd 8.325020342627758 6.460566446750392 13.511550248213908
