40
Energy = -16.48055349 eV
Cd 6.554917332546268 9.94544679546059 4.518745231131564
Cd 11.362737940902681 10.78471782649151 5.234568884409404
Cd 9.192018690015638 8.70495891829517 5.227925617045289
Cd 11.895112595433472 7.961387841095211 6.643005833505198
Cd 13.81865549747656 10.537118411740934 6.821420224545606
Cd 8.467344800537674 11.417818824222365 6.299341869502462
Cd 4.07372534220723 8.666615398294832 5.620815552341298
Cd 6.759120146030453 6.995600502465452 6.1569647112868555
Cd 14.653011329729337 7.717758731377592 7.766486928660129
Cd 9.521261844592006 6.01861182252799 6.519823225084423
Cd 8.99424238106589 13.311636642772607 8.476674663579743
Cd 11.645510538334747 12.114752233505026 8.058624656361138
Cd 9.71792361236136 9.374277647005595 8.372158846698763
Cd 4.527289491921089 11.628004256778814 6.079361580561156
Cd 13.706467592551421 5.398569748611231 9.578323171021365
Cd 6.187784595347132 12.256504658141763 8.402980481897838
Cd 6.8382805343215995 9.227911648430863 8.14132870740642
Cd 12.33338423280284 9.249036282091222 9.595014609447025
Cd 4.333531372818563 7.035140858500064 8.013616411339306
Cd 7.977394609561219 6.3962153307283245 9.194568383467995
Cd 4.573236016551657 8.228013152919964 11.026602545513136
Cd 9.68212307388877 6.597290579610533 11.846597346913429
Cd 3.97904879043504 10.082093330093134 8.690155515057475
Cd 5.302417740783591 5.249977617160732 10.06338279895362
Cd 10.968251860373224 6.408697379895687 9.199191084317963
Cd 15.553644184959918 10.36921426202346 9.252467798014374
Cd 7.961832922158666 9.373506160865857 10.845966644213492
Cd 6.690807410840824 6.64490924868714 12.293089485947222
Cd 10.340798215651482 11.405254044959378 10.624155955496532
Cd 13.623580904578201 12.460791446081728 10.316784569708902
Cd 7.542257050062998 12.48467200788466 11.052066690834772
Cd 4.709063767197831 11.173281776569539 11.448895683142739
Cd 12.729799255454822 6.9826601592118305 12.105263691647169
Cd 15.288686513294437 7.701740653661085 10.688261150873831
Cd 9.48186753829007 12.329725647192824 13.706403085564792
Cd 8.20321610286547 8.507794089505648 13.946840797113968
Cd 6.8645826925035855 11.051423761668053 13.565766732854884
Cd 10.867544662027116 9.321286452799066 12.678684998476148
Cd 13.958566344331038 9.892739462661135 12.17149897856663
Cd 12.365327622565683 12.239211537383836 13.002542006867206
