43
Energy = -17.82985362 eV
Cd 8.837896261042104 11.143757474395922 4.3733081515531715
Cd 9.437763684538472 5.945637105219716 5.236212335533734
Cd 10.7919928022525 8.4427690586224 4.5059042318449025
Cd 7.655557741584859 8.430986576073423 4.589744893066625
Cd 8.109493501280841 12.808034762187722 7.130219558114414
Cd 4.804316519868205 5.285379780637628 6.5052988614579785
Cd 11.894797823356251 11.141227163584993 4.892606594661789
Cd 5.042257711150877 8.165678669481768 6.10653236805398
Cd 10.30956283876634 13.559605340390114 5.42900543042519
Cd 9.789259373913058 4.160553772668381 7.930037489614923
Cd 7.883856628395555 7.354994763371449 7.498799364902602
Cd 7.405166565147955 3.9643533723521944 6.091304031356617
Cd 6.151812292752293 10.895578681255465 5.861437157597318
Cd 9.386866634070751 9.896414543589128 7.19635077056137
Cd 5.483661404679285 12.559740433079151 8.490467188470603
Cd 12.78237749093191 9.213521559558744 6.925008863435863
Cd 10.913962016483081 7.151255030208581 7.8563821694657525
Cd 6.485057206455243 9.668310551170265 8.747131417983768
Cd 8.8923964372776 11.571332379574386 9.669920095721109
Cd 6.761635631708384 4.9849940675397075 8.920837972424756
Cd 11.461696175933703 12.123789928764484 7.842182541563041
Cd 13.85959534239427 12.176466419063129 9.876233926153873
Cd 11.84461601071123 5.173701119159811 9.90625420682728
Cd 15.027306932645306 9.52302382902744 9.034522238105614
Cd 11.339894559974908 13.710824593024146 10.418466549088823
Cd 9.037037806369156 8.261280546173358 10.07738807733939
Cd 6.2615569853544395 6.789380373813412 11.266504068462767
Cd 8.689007639824572 13.646239504912971 11.867583658502195
Cd 9.827390391981078 10.243198567947305 12.20603111728009
Cd 13.355982421042048 7.505020477511781 10.656541309996234
Cd 13.591277643726562 10.432896837564837 12.28033918728244
Cd 4.368071870114249 7.169415301797741 8.954220553617454
Cd 9.043592893089183 5.252785069655049 10.837223251501952
Cd 11.566626019231823 9.774334140930492 9.788896558066705
Cd 11.256316975557006 12.769064774567386 13.237341415886366
Cd 6.624528164257539 9.652431748048993 11.788630277033823
Cd 5.8416601528412375 12.522578560654718 11.375204163968236
Cd 8.795162649033424 7.1841736313715465 13.039155942286824
Cd 11.804156556205857 7.871284409001056 13.157588813752927
Cd 12.241548203462811 10.47056434689647 14.903940673617864
Cd 7.4525709233538535 11.654449959386302 13.869915416786755
Cd 9.689913967226538 11.948606100263616 15.74726194027711
Cd 9.448839555687885 9.048405081176542 15.160105572028854
