48
Energy = -21.12156068 eV
Cd 5.669173376174397 7.276293870614229 5.111101714316212
Cd 8.297893521434746 8.485077606020566 4.089521264732199
Cd 8.42387245563015 11.351991345957435 3.2294011499976016
Cd 5.488681068812454 10.007524189288413 3.6214597449564545
Cd 6.129804213472167 12.86540743381188 4.200443204901915
Cd 9.387896893619343 8.545955509748907 7.509762908117597
Cd 8.229745643819253 5.999032406585234 5.760869267885165
Cd 10.933302746420605 7.406520721449079 4.961893949337665
Cd 10.72731983729341 5.13988107810948 7.00350498560293
Cd 10.602793031856118 10.420868683380682 5.155370972060761
Cd 8.799149449248228 12.548522150205631 6.084547715828296
Cd 7.049659771675544 10.013961638156967 6.489022708062845
Cd 3.4846920905069974 6.63711664166211 7.2400842102009095
Cd 3.3862162245568355 9.106169727859449 5.654485443821432
Cd 8.185490240472436 5.1320670745243175 8.67621503296372
Cd 6.403161925101112 7.505375601985027 8.134531539844087
Cd 13.357957673199248 6.602636721563021 6.385603346183291
Cd 10.663244223259689 11.67121428600635 8.195590396772195
Cd 6.37574194831978 13.919837902438076 6.985868397272554
Cd 10.72141778209608 3.684167235551463 9.842067351996201
Cd 8.3447259050516 13.408068718165438 9.135049681120847
Cd 12.444669442958459 9.305294519466452 7.328260911276826
Cd 15.337487818096726 6.084268112340272 8.471297130573348
Cd 4.521495306587038 11.596354494540703 6.565374923719871
Cd 3.52782568213697 5.426217906241034 9.819885827173914
Cd 13.389797996993615 11.128430374415862 9.589711747655414
Cd 11.2958086298679 7.145998323281567 9.227766389178397
Cd 4.141743601011682 9.47936130016442 8.788451250952972
Cd 10.370677679095376 9.791446105801587 10.422607697089964
Cd 5.495747425135705 7.798662166036 11.061690140446961
Cd 7.605770951088163 10.300341821444988 9.344785317046597
Cd 9.85777317410633 12.86636250941406 11.5962874618643
Cd 13.196043995590642 3.971439158646842 8.216742365015122
Cd 14.352020870098958 8.439416262235618 9.823309182541983
Cd 5.245980971739698 12.389743552131247 9.33166077760319
Cd 8.22900031380236 3.9563869563961327 11.425279977871416
Cd 12.786962527065839 12.63760046968171 11.938698524279662
Cd 8.475144561623777 7.505426850266202 10.509515481674196
Cd 5.5770800259501465 4.904120416107415 11.87218325745
Cd 4.869803914016322 10.547604842765777 11.675435047669616
Cd 6.9484393206361865 12.667792574197918 11.747053174353635
Cd 13.345992501662957 5.604034803364491 10.830491198095714
Cd 10.991805173847169 10.698414145870256 13.3888321373636
Cd 7.443726961106895 6.479666693440244 13.504145845632957
Cd 7.881569205632103 9.93503166852837 12.508756277922888
Cd 12.399493970434591 8.311540791103269 12.166941071832333
Cd 10.465280783829389 5.87860920216028 12.104138735860525
Cd 9.821059486317115 8.10288574932422 13.954445474330086
