40
Energy = -15.93968294 eV
Cd 7.8169476948684835 5.146690262971271 4.148951881150484
Cd 10.429018540250228 6.6593125001680695 4.719967071269269
Cd 7.968447993862759 8.427352546617785 5.2587649002456045
Cd 9.859554302084534 9.180940846706271 3.0278888972027413
Cd 7.1690204413267775 11.427241066312881 5.814667221526622
Cd 5.418849099434669 6.598192066618439 4.918111291600303
Cd 11.912009666641225 10.58161505939133 4.621224207403258
Cd 12.11657492082852 5.136690230014643 6.6390304816234735
Cd 5.001687276056574 9.514753577159313 5.185863899913613
Cd 9.778049396461165 10.316290250706178 6.978616245476007
Cd 12.262304508084707 8.112261714939088 6.653424789669768
Cd 7.6605775155461355 12.445720948067386 8.58433736878305
Cd 12.84095632044491 10.825498591732513 7.546331130431528
Cd 6.715974881006774 5.771347333888196 7.631821508395385
Cd 11.066128327410944 3.1342876306997134 8.586882920515725
Cd 4.497384223684028 7.749396398889116 7.709489794428917
Cd 9.01824939604407 4.166057085024303 6.633993924305067
Cd 11.090883504109973 14.632520249874116 11.019822222028143
Cd 7.433994580613098 8.930355129188202 8.473441493603225
Cd 5.075706802378384 10.783801579897588 8.003760107389299
Cd 10.538323147522345 13.151684498279689 8.173816086266896
Cd 9.67037875113041 7.12782532395344 7.924048987386429
Cd 7.94236838005485 8.699613771367929 11.380287344404252
Cd 12.593899650627232 8.699742706867314 9.847772452580191
Cd 5.808322256232893 6.74822815962199 10.36238606135159
Cd 6.182189306948712 11.084898941813567 10.86304625549649
Cd 12.932967343066057 12.401519656286734 9.906967853971578
Cd 8.664811571980875 4.727922876906229 9.675047940561305
Cd 10.045595990072156 10.397109248581518 10.018349492110477
Cd 5.1263381965135 8.816147935441732 12.554975054173825
Cd 12.528247263675976 5.6681461943939055 9.568784706784431
Cd 8.372070656231237 15.11648233171506 9.94606293734947
Cd 3.5813454684478327 9.25108989022183 10.10824233076401
Cd 8.528275482778792 12.688893871468391 11.916316077481687
Cd 11.548084527294925 12.006874937652682 12.413115923375475
Cd 8.988350324214021 7.2311639054363885 14.05850847151291
Cd 9.962517759442884 9.866476235273792 13.379671875359252
Cd 7.634034077518718 5.1994768274457055 12.346635633994897
Cd 6.061477808335724 6.813086450872013 14.41336531433683
Cd 10.316492851984004 6.921701372744134 11.144618048987796
