43
Energy = -18.62545415 eV
Cd 8.75266260699145 4.862907451545818 5.471270030877415
Cd 8.564580045666244 10.98870443357204 5.872933639916225
Cd 6.20077214760069 9.203720398357136 5.452773069417391
Cd 11.288471669960682 11.946188968924474 5.9144208222329535
Cd 8.878249167896719 7.987540436632555 5.3185627268031395
Cd 11.634504337732093 9.065023057192377 5.126878399950497
Cd 5.054637855280196 8.671107363994471 8.121531601057098
Cd 6.364882609486765 6.307877911636857 6.566823569623655
Cd 13.62111438993859 7.88525938870399 7.0008236482065325
Cd 11.223817559611485 6.24052660071479 6.398068654614377
Cd 13.64881661011784 10.811362002055592 7.486307856177806
Cd 10.763138384072612 9.671146295314594 8.229032345173733
Cd 10.20578269728857 15.180655513295553 9.776797020650847
Cd 5.786017123751294 11.808098806165743 6.85164883767348
Cd 8.70890819823391 13.261246242343013 7.895743509193881
Cd 7.778245914316842 10.071168280714826 8.842928150174636
Cd 6.243314653628046 6.376120393610324 9.582714944188933
Cd 12.677163090613831 14.127483029271662 11.269951545893022
Cd 14.88347627734752 8.732774024152503 9.517506253636137
Cd 11.981043799334996 13.195157307895695 8.453042349759208
Cd 8.955455738882154 7.1783219705551335 8.347651465582278
Cd 4.257823749080656 11.20413332224827 9.521607682262918
Cd 5.921698270289284 13.537287781169347 9.25895716258812
Cd 13.900156383654753 11.642111056380005 10.303260269477136
Cd 9.934486209845216 11.721522454354764 10.301155552978074
Cd 5.559532230091456 9.158382989510107 11.147645266045462
Cd 10.112413158270387 14.039105162099483 12.74888548366064
Cd 11.873593611642946 6.9789380323532955 9.359253884782685
Cd 15.198982473960541 9.944754217150773 12.302113982580293
Cd 7.703379424022666 14.691187639135146 11.228162742638292
Cd 11.745206140857142 9.557109640938295 11.178769762402146
Cd 6.299922940210371 6.728208063710481 12.520920807023481
Cd 8.723347259933014 5.447080545876233 11.004984298540869
Cd 12.792158620941228 12.020422478641095 13.391218423998286
Cd 8.966963630883162 8.572842004974035 11.11794988643226
Cd 7.172031201203127 11.687339470414276 11.660674344135563
Cd 13.995979534154925 7.198086187085205 11.988404999899473
Cd 11.251773446864808 6.21948343573739 12.20397684823948
Cd 9.755101764682117 11.242214401767164 13.38103997855277
Cd 7.491827171305526 9.263646294150675 13.711725210076345
Cd 10.481422340498945 8.487269477096225 14.099486017147035
Cd 13.243625372310852 9.20155960224085 14.367833257462799
Cd 8.721767391596003 6.203173070370691 14.02281090232519
