41
Energy = -17.18536547 eV
Cd 4.911137889518076 6.715299492666882 11.488229372796667
Cd 6.926460693502752 12.499195909299926 10.92402855880324
Cd 4.749619965988547 8.783205760133512 9.26112889371408
Cd 6.4986658438480935 9.590812076530705 11.733830898836695
Cd 4.986735506931538 11.60592275873222 8.628934367987421
Cd 7.1206507762456965 4.750394616946452 12.432288964426824
Cd 6.5125133226776395 14.123173094520872 8.489200746298934
Cd 9.203470526346223 8.954780900775873 14.1656078018742
Cd 6.775896242839085 7.3568803100671145 13.792712503834634
Cd 5.8333369834604945 3.7709006920114754 9.9181788019915
Cd 5.458217841538524 9.522964916991935 6.379934469926522
Cd 8.61407314963536 11.588609858044537 13.17402882384778
Cd 7.398187046072434 7.2070540846402364 9.702057873549398
Cd 6.824568144034282 12.387263288946544 6.040350054354007
Cd 7.805076911874835 10.14685316769805 8.7020147090064
Cd 4.406053936091294 5.939545042073092 8.549983518118134
Cd 9.579292763639486 6.35824093319057 12.466322327551302
Cd 11.9837542542318 8.48997584202279 13.096416492640708
Cd 9.13710775196847 12.914682355561563 7.929441944906934
Cd 4.520025677195646 6.19426920341777 5.684931709707511
Cd 11.787619181454327 6.569447511402561 5.2546158941296675
Cd 12.76665677063462 9.378548562673325 6.257817890606304
Cd 9.068362137783526 7.271941336497254 3.9138484138984353
Cd 13.471771708738293 6.9152051399921755 7.771934176123885
Cd 11.390987312801675 9.128903726667776 3.6559952002620033
Cd 10.011063987558911 5.517513118336062 7.308395574652023
Cd 9.325052018926076 10.534244687266954 2.1499817001417023
Cd 13.739154489919772 7.630341247542194 10.629965618507702
Cd 11.294445926864904 6.167754998183369 9.998257718145078
Cd 8.767510650726615 4.524455367098779 9.868545272601628
Cd 5.99299449397266 7.731449591804744 3.685527165609521
Cd 11.651587041004698 11.379412941506827 8.011170068492838
Cd 7.816085125841262 7.655998811876814 6.793836148186364
Cd 7.031693613558508 10.439296270905412 3.9137031485545255
Cd 10.42579999068449 8.440163398167527 8.093224196112043
Cd 6.993861559408452 4.639635503134766 7.297440209648848
Cd 9.573893599460323 8.948778630793061 10.86305280671973
Cd 12.47437104167901 10.217219037780199 10.553985489113389
Cd 9.508724091901492 10.488065384151685 5.924447982703449
Cd 7.164479561991733 4.9644186947274225 4.395841802609008
Cd 9.979581919342692 12.037723187116008 10.57933214090392
