42
Energy = -17.95216084 eV
Cd 11.246247959543926 11.399322029559514 5.251048460503069
Cd 8.508120804311474 6.913865303461954 4.863021155075663
Cd 5.8692083914361515 5.9027125577836115 6.212130677436577
Cd 8.610611037529196 9.882376217424149 5.254617662949196
Cd 5.899892497516965 8.515353712650757 4.934489220185815
Cd 8.39064036169405 4.221704103114644 6.465557244145434
Cd 11.354390044718784 8.610592442657191 6.276519669799603
Cd 8.702006155637541 12.80433565077478 5.890772483076257
Cd 10.94085107051086 5.714246325645596 6.20459527395147
Cd 5.8021249840634175 11.519440544407953 5.240779188188337
Cd 12.846460811170168 5.283456215307406 8.463351192304827
Cd 8.586340917723419 7.769991434155905 7.793713930864591
Cd 13.674204678539255 8.25018916557465 8.222965246049359
Cd 13.2229942596715 11.045012265976073 7.468885965395347
Cd 11.281836710157933 13.473694197041432 7.428171493742128
Cd 6.249951687591056 13.973034481327872 6.945644646910563
Cd 10.091284825107591 10.535365845490642 8.407623231027223
Cd 4.430944713482609 12.431714679302198 8.489369336742472
Cd 6.759164975431494 4.903338629030303 8.92463064109865
Cd 4.087978531721954 9.63367374874753 6.967507166229659
Cd 10.898814499222496 8.107223943752494 9.882098836361516
Cd 3.9119054039083903 9.960561126551378 9.915249641192062
Cd 5.6483678814769025 7.713176613212739 8.778732947823894
Cd 8.609009415633421 13.184350324005257 8.972350035174463
Cd 7.126359218304892 10.402555315037409 8.0379092231021
Cd 8.06929746819937 8.890681043040695 10.555957788073586
Cd 13.533194215979172 9.726529042130329 10.87090675942277
Cd 9.663035557914586 5.280601889232311 9.252067887784452
Cd 14.245725670071968 6.731332358039518 10.770181390533018
Cd 12.21381857451897 12.353308068608218 9.983035504302217
Cd 5.245331729952845 9.188405688903453 12.284258538824105
Cd 6.4853821999608705 6.383988005668339 11.420691412456474
Cd 9.883211213387947 11.146452756348257 11.48436685477704
Cd 6.747545085133635 11.706981656768171 10.79211608669071
Cd 12.31260308470716 7.58889136122333 12.915931488379185
Cd 9.403730302591537 6.52203430175515 12.162175286447528
Cd 13.657826872460735 12.379790809566124 12.535968618619043
Cd 11.8690684515909 4.925619000567475 11.322761843346928
Cd 7.2592297367547785 7.809046330458265 13.920270786703988
Cd 7.45910375890162 10.870223291235671 13.537231033933224
Cd 9.86888297717249 9.126524762031814 13.836224981214764
Cd 12.477579309838479 10.36258080767069 14.20839721440224
