46
Energy = -19.21107396 eV
Cd 6.869268234037588 7.457169813718362 1.0187583666262738
Cd 4.739582988041084 5.632805628193918 11.015827959215892
Cd 7.953899137726112 5.044520901758571 10.954405435935826
Cd 8.379572715392436 9.09616483816343 3.018901483125196
Cd 3.5203189446337677 7.693770290227055 2.1145919982336623
Cd 8.244286255005106 2.0387343901149517 11.102231524442729
Cd 0.7941762987589182 6.624055284024768 2.876765337642034
Cd 4.332103305292073 2.6250670828144864 0.5306275741454034
Cd 6.286855336088712 6.377318670521857 3.7804626417561464
Cd 9.776726044151596 3.883653786073709 1.9893106808947298
Cd 6.368095250267926 0.8088003252124247 1.8829468418912334
Cd 9.905498379927701 6.677586416420783 2.743731468803618
Cd 1.4381303347197834 2.9580172522274113 4.144788977184817
Cd 3.51660035104332 4.769031254202319 2.5292764193673865
Cd 3.767708703234342 11.224356547406424 4.491169137005825
Cd 1.5406020722153517 9.064677503782777 4.41566554163987
Cd 6.611780378502774 3.8422728761085554 2.3630764509660946
Cd 8.997634373778666 1.550698495253125 3.6260026694469074
Cd 5.429151908715746 9.898722242468525 2.237430882127012
Cd 6.464446274383825 0.2959434333837267 4.813979289601931
Cd 3.2175692876322524 5.316213259032371 5.39761600314119
Cd 3.8865286645301427 1.4453545185120622 3.5387319195017657
Cd 8.225668166942546 7.749101058434541 5.780321962786976
Cd 6.6504181896505115 10.354694854591598 5.043213599356215
Cd 1.865812135471515 0.4858432450518443 8.182030447264697
Cd 5.806795477650557 3.507880697462061 5.142051336466978
Cd 3.367627341040378 2.4818398897399847 6.504854699807748
Cd 8.798977556541253 4.823428428640532 5.003275064342911
Cd 0.374494330987758 3.0822971526819547 7.347436464289668
Cd 4.437392165702535 8.105046477050163 5.20338568358799
Cd 11.105791344795902 5.222686395657872 5.33209714956232
Cd 5.00412277615891 0.04097225903624872 7.321386727305358
Cd 8.336721724608651 2.124196369886257 6.505870811899306
Cd 1.4329525372289196 7.233061794801784 6.976356494368219
Cd 2.7380044649843507 10.04319933981335 7.132036874576147
Cd 5.931005083025965 2.966786934485128 8.287142070834465
Cd 8.206479414429838 7.671928982127943 8.75978803162777
Cd 5.980853064333464 9.485510800719057 7.7941391810534775
Cd 2.9608723133705506 4.954740082313648 8.418885280331894
Cd 5.757924813154375 6.011019218467137 6.8765573158141144
Cd 1.65281307954256 2.874924014299836 10.115976110235056
Cd 8.438269943910875 4.694414372332415 8.043583535404062
Cd 3.8719127808883895 7.757752675473568 8.891796647954514
Cd 4.235523731423689 0.9434540531136721 10.067157975829135
Cd 4.432379963609203 3.7396598442174502 10.931208703931876
Cd 6.0947723222251975 5.885361921368196 9.868037765171401
