40
Energy = -16.20743533 eV
Cd 6.791757850194636 9.2645032321604 4.7480257823538095
Cd 8.654269140681997 6.946649804725306 3.939849539500414
Cd 9.389464315032246 9.8105912954584 3.532831718206744
Cd 5.745853208804536 6.373706641244406 5.137362188526439
Cd 11.41819038763874 11.209257173983255 5.140104447163362
Cd 5.701150368787625 11.83011314809338 6.406904915611042
Cd 8.04960906640677 4.506754925697087 5.637028787950902
Cd 11.150355509691751 5.203245309910182 5.075167231058328
Cd 11.648605573397491 8.059453175177717 4.6840253115011485
Cd 6.666614088454203 8.478708499623352 7.777266949532942
Cd 4.090264554408935 8.861314769578307 6.002027062318388
Cd 9.435520572884533 7.6378951438480795 6.915611323747213
Cd 3.6216078951293773 10.84593585537018 8.317622973758223
Cd 12.586970135150917 12.100513208507213 8.077470338106044
Cd 10.900880039202306 9.533621389871278 8.715970510761695
Cd 8.69107505280389 10.70413765725648 6.628195492941883
Cd 10.360487623041603 4.084160395308801 7.696341125286158
Cd 7.297268137790417 5.609683617460336 8.330717844970964
Cd 13.527572005303973 9.495404732017715 6.404442939976138
Cd 10.143015743149679 13.36008370944647 6.953564370073682
Cd 7.514133045006767 13.266617710084134 8.423427839921741
Cd 10.042404145480907 10.455624898404572 11.705615052670522
Cd 10.767353805122406 6.598699487807358 9.4146665397295
Cd 8.630361237320336 3.423876552788074 10.015180981186228
Cd 7.989256054699637 10.501985474481279 9.56054470555983
Cd 10.673933556368697 4.61162709057977 11.77152474808219
Cd 5.269637029464898 9.4790327428952 10.365642633902885
Cd 14.204706405921911 9.74056947771562 9.178947247628217
Cd 4.164293018886517 6.37248311742285 7.711154812796879
Cd 10.424256450538977 13.061941769844081 10.112210347777337
Cd 7.688272222851406 13.115768078521288 11.466965755254405
Cd 8.184882589863443 7.692683438997613 10.438549940030942
Cd 6.4613461679722155 5.089054460959837 11.202363349569692
Cd 10.832605301417805 7.5497662678269455 12.42050668117308
Cd 8.465508322402341 9.008672977023098 13.779705323366478
Cd 6.40052162725678 10.91139563240358 12.854837107345844
Cd 4.0780093845413665 6.74532589805721 10.551119364673326
Cd 12.894830791350808 9.50253170241051 11.695748058889512
Cd 8.391750722660708 6.0267844976568155 13.278170381532068
Cd 5.885298981858164 7.763717168323693 12.766480404505831
