45
Energy = -19.19564369 eV
Cd 9.930727113353411 11.22804927795473 3.8109435262411706
Cd 10.219746691132809 8.035284699734165 4.095389854418577
Cd 7.516478439803738 9.514601115538731 3.738278096261893
Cd 6.22100601466387 9.090901267428508 6.464890719991474
Cd 7.568284789046256 6.6934618126574374 4.524676965843743
Cd 12.060029168964004 7.883415939443484 6.569154498646146
Cd 12.502559530144303 9.952497344179399 4.551125918100412
Cd 9.902268778612333 5.840583169538681 6.26223812538153
Cd 9.340037691741117 9.527259375449178 6.756007067568993
Cd 7.4821376604171075 12.020751772301983 5.303921892237582
Cd 7.456436340634114 3.998529225422138 5.959841241020351
Cd 7.615757244557719 10.05586472298724 9.224849189062782
Cd 4.306215597626897 7.3669327580072865 8.13837879802203
Cd 11.498054031685356 12.198952216975515 6.1822813187837475
Cd 9.088168494945016 12.879572054976213 7.706514456320777
Cd 5.1495725195876005 5.876438907269896 5.865029308110925
Cd 13.44992276513057 10.2279151154271 7.673490353245123
Cd 10.81668771077433 7.521273667474705 9.203095852810282
Cd 6.125446957567133 12.429308122479261 7.832143337422904
Cd 13.03511376246126 13.07023272929639 8.544175444294016
Cd 7.882715930166334 7.153755804964756 8.172382243579637
Cd 2.3817109539624988 12.618949288364256 8.268540502822386
Cd 10.600721830966625 10.57747905518236 9.227865531718255
Cd 13.780785153338165 8.823298218982426 10.308756872677002
Cd 5.823391117060506 4.716526588332475 8.650346838630483
Cd 8.75212797862142 3.872574131131393 8.554738603926754
Cd 11.710377972252171 4.501996705868106 8.346801317605479
Cd 4.314537228009302 10.181438477370975 8.81718379042133
Cd 5.03092507701529 12.565319683923272 10.655021830459011
Cd 10.736477887028606 14.15453126491249 9.958329671309215
Cd 13.314390827591515 5.962461096148739 10.350677163781093
Cd 13.166718588256588 11.56653616729985 11.120258366043519
Cd 10.352898191633086 4.70653414924393 11.027272974488236
Cd 7.953322352664597 13.044004251541233 10.512925103420987
Cd 8.54242419621631 7.7967843974943305 11.037571894563406
Cd 7.36939995268047 4.2752085065668215 11.186320360435131
Cd 5.9112454345262915 5.533238582819474 13.405877308773377
Cd 5.447197837639502 6.935695561184989 10.783969760893138
Cd 5.434859137769365 9.751720446872392 11.610140787711247
Cd 11.719230364430407 6.656383139101519 12.854789506992487
Cd 10.494142925468065 12.344574953051422 12.270813916163638
Cd 11.127002766087982 9.374873586233939 12.049172716927796
Cd 8.16618377303076 10.630595172921893 12.353507587625685
Cd 8.909305102710439 5.7913718210515395 13.511069955175328
Cd 7.031429912937529 8.290497449806626 13.797413224983059
