41
Energy = -16.18431694 eV
Cd 7.72789969302759 9.384192752491947 4.725473824421296
Cd 10.434197285373086 8.362000287660878 3.4315134267932352
Cd 12.774630270579364 9.448856578733947 5.408863463681073
Cd 12.208176674968104 6.495565129866323 5.172784318407492
Cd 8.921833331566294 6.694318844780907 5.355672890310824
Cd 5.187007963854589 8.270911503235315 5.761392284207686
Cd 4.2782058123126 11.04980667480447 6.595590027636263
Cd 10.324234312700547 11.086505504266764 4.627032855281301
Cd 8.461562855573144 11.41865791032349 6.9355900499383605
Cd 7.9031172822377 8.599340135650827 8.016187676458157
Cd 8.292273652895682 3.8534692070003187 5.3817067172014665
Cd 6.15545773079048 13.2934892804475 6.527801389433863
Cd 11.965509246575033 4.858852982900386 7.547985376097957
Cd 10.766508184198624 7.952335543850475 7.573855885533587
Cd 14.198865995089841 9.771236566397194 8.051296829201005
Cd 6.139902811230004 5.698440843764568 6.736447888736558
Cd 11.444877991317195 11.054738662986923 7.609705336421538
Cd 9.919694564485415 2.687514874374435 7.479290947277416
Cd 8.960482411224216 5.644762212325728 8.405954160547537
Cd 5.044534736882226 9.301006250061219 8.824594907175907
Cd 4.055128920418791 13.03580381113485 8.862230337740538
Cd 9.252388247778125 8.927584532370338 10.729856285350621
Cd 13.278444158079807 5.191999000139856 10.960386071717519
Cd 13.92156043472373 6.849233900801888 8.548337362241686
Cd 8.245520474117491 13.979088465710236 8.606572246070293
Cd 4.9208424174635255 8.38077226484091 11.666491196610423
Cd 8.28433442607399 1.8086050126392301 9.798490962044921
Cd 10.60175320236501 11.540222263606433 10.338676416700004
Cd 6.244892240869603 13.960160802371076 10.845127470892578
Cd 6.055132522977758 6.497200408541258 9.578585816982372
Cd 7.435789966918674 11.089410878466232 9.786283681007157
Cd 11.128547566827832 3.2860838593434547 10.138046283875672
Cd 7.858431271569067 4.414976926761599 10.98433555918202
Cd 7.331981136667157 10.044823222118211 12.789293202657223
Cd 9.465311341014269 14.123615314857581 11.265671357044672
Cd 12.18148688593028 8.636848792332385 10.278843233916012
Cd 4.7200289544851435 11.304791527738224 11.193317538644218
Cd 10.411771183901134 6.16756448792517 11.232668577093703
Cd 8.029371261978536 12.808841509089094 13.475175001356376
Cd 5.077890257951583 13.15171203117901 13.644079238738664
Cd 7.555793467111019 7.040032388213784 12.274165051476562
