42
Energy = -17.41358538 eV
Cd 5.5864702597993245 9.411549618102118 5.832679393322054
Cd 10.850455602319952 6.788364476609609 5.311384853442775
Cd 8.050678950381325 7.675326417784895 6.146019566821066
Cd 9.142674862002101 4.86725721335834 7.2116970496943855
Cd 7.776008764907755 13.885002985374712 7.269602656317143
Cd 10.486783738205098 9.548703962538344 6.299418695890735
Cd 7.955949766618031 11.210273397332621 5.758978781245581
Cd 4.055618200876442 7.304131132845168 7.314071308243546
Cd 6.3021594157219445 5.402235498771209 7.42121326062959
Cd 12.128046635880983 5.002615883319192 7.2226051643676685
Cd 9.56837166045768 7.718059718750991 8.853758574310444
Cd 5.798395804604967 11.837457220306176 7.974943116794368
Cd 11.810718388176541 10.838664993864125 9.069781343798752
Cd 10.961720542016732 5.107452805114813 9.93217988570304
Cd 10.53397884699142 12.493355660493377 6.631423821644233
Cd 6.657979458014001 8.683903977622563 8.769436032000062
Cd 3.379831890193883 10.158989968541231 8.050339097598535
Cd 12.496202624362109 7.962571073012027 7.967637242953631
Cd 15.139916748572375 11.107686392306098 7.5108296251144795
Cd 13.119576408341699 13.330689897544541 7.753251076433907
Cd 8.844603991316358 10.687852129700692 8.80551733579262
Cd 14.396269040603773 9.263621656103728 9.873450048271808
Cd 7.4289488011034654 12.926131280900874 10.332215757765333
Cd 10.075852060976473 14.282956514643669 9.039853951550588
Cd 7.401299602980079 8.05212051859759 11.611827285605816
Cd 5.17017381467215 6.247441177716367 10.292408511554667
Cd 12.687878991018998 12.600982353106764 12.938807297178654
Cd 7.942821160561664 5.268333113348115 10.087135428241433
Cd 10.142119453521255 9.375030819591997 11.210125974053506
Cd 3.3970974434601744 8.543714199118357 10.539681273074432
Cd 14.528837015722518 12.191897504403743 10.374439103144825
Cd 12.58937838642864 14.484427030642143 10.588374625131237
Cd 12.386987670865665 7.376790068215097 11.119742999620673
Cd 5.460100173896726 10.61760115806351 10.972952621516805
Cd 10.1266792265176 12.384741385341487 11.435213672027263
Cd 13.472300228053047 9.752315433435342 12.767984943179634
Cd 10.539226840173228 10.906993876404027 14.164721074485811
Cd 9.55843358134388 6.115860968441134 12.505127136022663
Cd 15.877832837584837 12.737021224397674 13.143008663290347
Cd 7.769684544151869 10.861141789843513 12.787917481273825
Cd 11.337766965763494 7.9568152026597865 13.952696142381724
Cd 8.538638572676057 8.506387273568569 14.630017100347736
