47
Energy = -19.65643183 eV
Cd 7.9642673738907686 10.308296133402015 4.503867140902303
Cd 6.622818774860322 7.604006401713398 4.58489289282075
Cd 6.100929370528335 4.621374050769565 4.519559478703657
Cd 9.66992767283461 12.731966072036466 4.871552187735175
Cd 12.778711830591252 8.721462850851339 4.9563269611253356
Cd 9.731761253545088 8.002987029932807 4.796042458524835
Cd 4.997156116563477 10.79508221809367 5.225370619440679
Cd 8.963911193096838 5.12233373394474 5.456522505964007
Cd 4.503661983559334 3.4880348367851495 6.855413827238649
Cd 12.331002576558044 11.53141410214287 5.455316968779284
Cd 10.946297586883562 13.799951710048946 7.278267115956544
Cd 9.764554750066747 10.35294027124046 7.1924938071472155
Cd 1.8319003015531194 2.084082193427879 6.647134432221083
Cd 6.944564236277559 12.85576228126355 5.97992261281187
Cd 12.780315188540467 6.033985361784592 8.586760510708883
Cd 7.151417269340557 6.036687524316181 7.733269297909316
Cd 3.6528054827622918 9.167793606257465 7.127172912925452
Cd 4.458907396565235 6.460893704091846 6.386107295898545
Cd 12.529775519909741 8.942655101418383 8.028290978698761
Cd 11.84264751741579 6.031840751581787 5.751760175490782
Cd 7.31984132469643 2.6801007541583295 6.422150264639101
Cd 15.125972662107827 12.730206446741978 6.315903256827579
Cd 6.9690441385068365 9.055950345313716 7.323389657978375
Cd 5.318517481623618 4.345424620726136 9.566184585545505
Cd 10.042167500041199 12.68888453836822 9.866790933584888
Cd 7.235533024985845 7.831531724860007 10.085850704939515
Cd 4.964039099374548 10.176180351525677 9.548330378433565
Cd 10.936266283157305 3.8192328770047532 7.539567453926841
Cd 12.922221344567191 11.817176908000674 8.462473186786946
Cd 7.446814277258381 11.777038172450078 8.646414003392488
Cd 9.727323591048625 7.414920165557511 7.8909174092360175
Cd 9.8088467034066 9.516304123646208 10.064442331683397
Cd 12.300556215253376 7.766763268098839 10.910006246560586
Cd 7.3034022260591325 13.71987123648902 12.423080531898016
Cd 12.424544141620471 11.016960707025019 11.16513985911508
Cd 8.345947616559972 3.3781175516940407 9.038961503358825
Cd 4.101054753757213 7.208880086566142 9.319007836048382
Cd 5.050774492699016 12.98196377954743 10.615963003161102
Cd 7.659992224887375 4.904717433331431 11.565412162505195
Cd 10.311209599976035 5.413726491090399 10.139904581840783
Cd 7.3050161524285055 10.480563025685683 11.473824446960219
Cd 9.396073034350671 7.2509150557795214 12.33774071805157
Cd 11.34665541039446 9.367869638061535 13.281770951231882
Cd 9.812659409249672 12.035022466154434 12.72076433231514
Cd 5.960729312480161 8.336648287228412 13.73282703839908
Cd 5.097753051798142 6.302167462417372 11.922922443279868
Cd 8.561692540068359 9.65129355507607 14.04619700499721
