47
Energy = -19.85816064 eV
Cd 8.904271802898561 7.273403630706538 2.032440384058359
Cd 6.763684551828847 9.761952925635098 2.0593980585092075
Cd 6.083007697437811 7.211924113455269 3.5090104949758683
Cd 4.59210029711656 10.001071652859272 4.099415969660709
Cd 10.845322676587172 7.5587641759287205 4.580311216312177
Cd 9.448119036765695 10.127398197556506 3.1267214683580637
Cd 8.288570652267781 6.172714530368281 5.1747433414495045
Cd 6.373574475725569 8.344135841481727 6.437659854047597
Cd 5.032521686610894 11.339542975534933 6.656211471370157
Cd 7.977649898359322 10.789399031608886 5.692409768971366
Cd 11.34109493210873 10.444155657902144 5.310317278233592
Cd 7.2786925010409345 13.219740230710725 7.5828709889247605
Cd 13.083510863733759 10.8727531008479 7.506345975871414
Cd 8.452264901925625 4.833986816218413 7.691635042436133
Cd 10.858420220400946 9.971072919099495 9.565966049500867
Cd 4.868306606597183 9.16541415691485 8.900543016412517
Cd 12.26448306644247 7.84148203496418 7.152780735414167
Cd 10.0273157357804 12.046547718878529 7.552284827084595
Cd 12.55312042696219 13.43574917641679 8.84279060085936
Cd 13.763474698089931 7.704094737149738 9.61393536475307
Cd 7.790907176528113 10.44519922253207 9.181443479136066
Cd 13.645001395273459 10.858774038315413 10.38259912033381
Cd 9.297468907891433 8.48908643179709 7.3371831115588
Cd 10.705195618808853 6.89411402016519 9.680171591072783
Cd 9.791845574886059 14.150329040062058 9.699936015979372
Cd 5.132238573230522 12.230399757539791 9.506782187481166
Cd 12.388016074917768 13.289953140734019 11.769263303470497
Cd 15.055574600635723 8.864128447999477 12.117026401377993
Cd 11.565440012874596 9.05850035042139 12.287522855308373
Cd 4.0454262618995624 10.415430121062334 11.554008410755847
Cd 9.736602484161796 11.845486047689082 11.663196556737477
Cd 13.476422195292782 6.3460899649942615 12.303894364817864
Cd 6.994708280092547 14.25193752458484 10.586733331891581
Cd 7.1324407876451845 7.165083667381227 9.270864824451966
Cd 8.65704399914664 4.645775235245859 10.54279328794964
Cd 8.690959378853355 8.644670311874918 11.520837018667095
Cd 11.51905933156174 11.76352499046814 14.199189432994967
Cd 5.662138012583674 8.015245248493558 11.82639695119405
Cd 14.376724461345471 11.594739010185286 13.256034631404136
Cd 10.560721572053312 5.719289344995163 12.472023738768707
Cd 7.2235088001710155 5.774431069605444 12.789188748885135
Cd 6.853501742162626 11.369843025023304 12.010057419341772
Cd 11.967444187503947 6.719091782936596 14.907626928769396
Cd 8.58508827224793 10.472468936754563 14.234098937830286
Cd 13.642291258502011 9.172682148124721 14.775380789646855
Cd 9.057486318547513 7.50009667277345 14.412344772326252
Cd 10.89408152315675 9.435170354656668 15.872453411298702
