43
Energy = -17.37723002 eV
Cd 12.591561479391872 14.124966967046175 6.449498324732896
Cd 11.327521309493845 15.670563190654287 8.992139372868879
Cd 13.031253835668522 13.847346314768387 10.710372486059967
Cd 13.51805990929333 11.106961051053299 6.346901967393699
Cd 14.536578873586974 12.970684902030031 8.438464560254445
Cd 10.54657204548941 12.076230594248063 5.502673880400902
Cd 9.61627339946589 14.772605108314885 6.682324257379454
Cd 11.132969883712622 12.022183665678988 11.841964845936758
Cd 11.827796463820771 9.55436574690242 4.379750376976198
Cd 10.485980667818929 12.554325596937536 8.818835410137458
Cd 7.494124773783662 12.055719096898837 5.362912696225179
Cd 9.737849852616598 9.572535581498126 7.030218581074978
Cd 12.557051067927357 10.338641343103179 9.204789398191888
Cd 11.826124341440842 9.103025999528207 12.111065303908479
Cd 9.070403356894124 10.496938137812164 3.282608659469149
Cd 9.16221482048484 10.720812502761097 13.542942849890945
Cd 9.585420691524236 7.578239364382529 4.634815301903678
Cd 8.108590225168527 12.226791104831088 10.997874128028105
Cd 12.784908689566711 8.245918993372957 6.902181305219084
Cd 7.4661917053740945 12.941048142154449 8.206237137001166
Cd 9.600909861912164 9.69619552739209 9.942535878943183
Cd 3.791515999141091 3.9424694208615767 9.952783039811878
Cd 5.39030141211729 3.8929029969102684 12.500824923397449
Cd 5.5931466108097885 6.571621782509723 13.995262515200324
Cd 6.212704736094797 4.905283011880082 8.394371534237596
Cd 7.918600833948482 3.797536020622779 10.757692223543506
Cd 3.246689342758809 6.601268084798259 8.654266437197625
Cd 3.6521763688203044 6.762109273310158 11.701310564565164
Cd 8.182627869976084 7.86047850599049 14.183734606732733
Cd 8.945498532770031 3.5301579399678404 7.828664600613953
Cd 6.646240498684999 6.564369050334638 10.921496871659715
Cd 5.611809097386797 7.4473775950642 6.962533645629465
Cd 8.335915223719006 7.329551432890294 8.620682921722995
Cd 10.61656756797312 4.733191407213162 9.977454701387177
Cd 11.093577978389028 8.213709615950773 14.880562835317225
Cd 6.931924183828629 8.993490037899921 4.853649518515071
Cd 7.0938474324497465 9.440166157767237 11.706727742102093
Cd 7.868195591584163 5.579035482740635 5.918768940681247
Cd 4.895622584901894 8.916768828512572 9.766775625312622
Cd 10.725676509491986 6.1577528046521355 7.221590258836923
Cd 6.825755134562123 10.08733174403777 7.8599967330663985
Cd 9.581770456899815 7.053692892468037 11.607336772425544
Cd 12.18477009012491 7.296928293116879 9.705697576914861
