41
Energy = -16.70186031 eV
Cd 5.504317809148194 11.428342126363203 12.589173396338143
Cd 8.369385326845183 11.772292830324771 12.785883887412705
Cd 10.331205373825792 9.855075010205146 13.701473485666122
Cd 9.848670156570325 13.884460242715017 11.372594368972091
Cd 7.733299721297393 15.342925078184333 9.771070730357303
Cd 4.843842510689677 10.4871836394511 9.8066918040168
Cd 7.276346058425214 9.165969434598466 11.101828202854737
Cd 9.372729409080081 7.266286804069321 12.182186812031219
Cd 12.118791446630846 13.265321068864184 9.450906249561486
Cd 10.304574695299014 9.406805783467977 9.972037386645823
Cd 12.108057361647953 11.341817796447549 11.577450348684541
Cd 5.0221746240062535 7.6668335455613565 9.109765167263777
Cd 9.42571889596394 4.135457796926641 12.179413564149403
Cd 9.622936490073474 14.00284917935185 7.979429538224853
Cd 8.343785294253575 11.585994472020504 9.548891667398145
Cd 7.712207522740903 6.428227220067267 9.871254917721219
Cd 10.913534922163441 11.265034641601027 7.533834929742469
Cd 11.949772716324485 5.499471608234615 11.748271744699213
Cd 5.710455890635795 13.392561227346581 10.418941100740742
Cd 12.32838660975672 8.385847518417604 11.980105553916074
Cd 6.8100405204825165 4.880676898528665 4.387484884972813
Cd 9.25670820218711 4.988418083867485 2.7669042203352268
Cd 10.047321663069477 4.06113349981409 5.635379607318955
Cd 7.815057017393085 7.71000997713159 3.71056666557705
Cd 6.635683075539922 10.082619979802757 5.184032515721404
Cd 5.606341633409708 7.363063294238504 6.026620870502136
Cd 4.64317891148206 4.4634454907233625 6.328341824653204
Cd 7.566633199701889 3.4482557949335857 7.071623097804792
Cd 10.64475172340506 6.896417691957697 4.66645084504222
Cd 8.366620908636392 6.48701400842964 6.931192451129452
Cd 12.4313009210546 5.352974716820487 6.755745795086308
Cd 4.123380902024193 9.784184395015462 6.965468087441388
Cd 7.878273936293164 3.2080805457975683 9.954588449164026
Cd 8.556213478165533 12.34948741524761 5.836140628300613
Cd 7.814618936526155 9.186235653704628 7.951609565450133
Cd 5.378404504474752 4.691672097296154 9.123257174236736
Cd 9.690760954268614 9.732784643214195 5.065756671038483
Cd 10.377129583745596 4.91393463264431 9.072239124251562
Cd 6.077263256165799 12.04104641302703 7.510822200364905
Cd 12.826804492758475 6.876289539573841 9.301620097997967
Cd 10.893843683394133 8.184022543567366 7.353474706769275
