44
Energy = -19.33678774 eV
Cd 9.961341825880229 8.067865290166306 9.11489096087802
Cd 8.34300746571005 3.558766723591239 8.81274315419348
Cd 7.353411424487936 10.862584563834737 2.5014602352106645
Cd 8.09372643757503 6.397815215801392 7.296532376230823
Cd 3.402626979132312 3.0507602372469007 6.077508728660252
Cd 5.632419788871222 8.210188165260965 7.7107707945546995
Cd 5.78860920401294 5.1581425323752494 2.046298332429551
Cd 7.219720213768073 8.739529925158724 10.37417898593612
Cd 9.470455408328242 8.756162019987782 2.93631333479091
Cd 5.074424001428512 5.878926999983306 5.832600550481254
Cd 4.237031741319066 9.148527968690937 10.63201237243939
Cd 11.733806732671198 6.550979978685759 6.95203792270072
Cd 8.440660458596772 5.980126133525662 10.736984706402525
Cd 3.1080660854321605 4.374664906312249 3.3880913703884463
Cd 10.441884310531306 3.5409469194191896 3.277530573684715
Cd 6.465792284857199 3.1934097490414697 6.58232160066122
Cd 5.51881666034581 2.636797276581935 3.770357342650993
Cd 10.63737164947273 6.322913675803574 4.2204003588002506
Cd 6.817196780765437 3.3724076728578813 11.329241284046212
Cd 3.945574781078573 3.7986650846609695 11.22574044134492
Cd 4.760977084644249 10.118783901127397 3.445796591457179
Cd 4.606690980891209 2.1960940241358857 8.839725488340802
Cd 8.460465405710622 11.18528326717389 5.124898655621407
Cd 6.90820251867744 8.22806328184844 5.003689421562363
Cd 4.086698817004636 7.208095749738121 3.2849032226508488
Cd 6.564215158323256 8.05408985822739 1.668382858437034
Cd 8.841320997302065 5.992377086670696 1.6969703600233905
Cd 10.874054982375556 5.065686162888112 9.265227477750091
Cd 5.637883835511951 5.456251850542723 8.74503450355929
Cd 8.101036336490328 10.242307368343257 7.927171771326568
Cd 5.72859094957012 6.462931052649087 11.74654950521777
Cd 3.137093883297063 10.765218319666314 8.130841822225122
Cd 8.422061617689158 1.7299658564395195 4.615805865045525
Cd 2.9124509166209505 6.505756956611449 10.791496551091628
Cd 3.1468566447553723 8.908814862391228 5.625943910452009
Cd 2.517276447198172 7.771022139696502 8.219128432813955
Cd 5.7461155735159535 11.463060400584913 9.336801383537471
Cd 7.644070918705119 5.29110629162464 4.535210610572723
Cd 7.876765293377413 3.011646185083702 1.8569400455725704
Cd 9.82766319154723 8.630781753043888 6.019233975755243
Cd 9.963148478625522 3.9983494196609266 6.301536740081823
Cd 5.469100256561046 11.10642829952836 6.266905612692633
Cd 2.015324625774946 5.907691371757502 5.797520535754261
Cd 2.5965352601346288 4.6305579101504435 8.466813640543432
