45
Energy = -19.09121739 eV
Cd 8.467085298785598 11.69467832344913 4.6969902596755375
Cd 7.540772112779384 6.200578930380208 4.702433850839617
Cd 10.621412830134629 10.233507438291216 3.4444889136909755
Cd 7.094995895559489 9.109077496757271 4.3911121131861925
Cd 10.091807773377575 7.353118488469767 3.8532802980531264
Cd 10.611890265849775 11.24849939718453 6.684810188404033
Cd 5.9449791531076865 11.347906552413404 6.26566512976286
Cd 6.459911998371362 4.99426143192029 7.162313668112337
Cd 4.683385457015111 6.985020943306253 4.552413178175576
Cd 9.34456452513285 8.465461977172515 6.70099708386454
Cd 12.361431349822917 5.847865808922931 5.0920538754867
Cd 3.66056989285759 9.417623642416808 5.899519723023804
Cd 10.836920163046711 11.781582109707248 9.626248944155499
Cd 8.051755268298459 13.741441110477172 6.670871839067615
Cd 12.378031485002053 8.864024368807396 5.4502467400291295
Cd 3.6521608956217655 6.584088737863052 7.295845288661336
Cd 11.703628267471675 6.948081922694761 7.979029411172816
Cd 9.987043158641226 2.878386985965975 8.705534064554366
Cd 6.4307609075956975 8.300250860271726 7.549968371654584
Cd 12.369521583169627 3.8010620105578123 7.142900389393852
Cd 12.818876179445775 9.748462141021566 8.209184024966154
Cd 6.133566403634194 13.035425910294952 8.839344608678003
Cd 9.330256736823939 14.281465121398046 9.265860257308566
Cd 9.583260966138441 4.91263778082842 6.400703511872212
Cd 8.154347825210305 10.59907489715985 8.561147901987868
Cd 12.46286989564432 4.7853895954699075 9.909919917410019
Cd 10.136026494903588 14.72270154166752 12.346229604702707
Cd 8.581719583653134 6.412183324926132 8.902675634507213
Cd 4.061077174852722 8.057375465927615 9.976906745202642
Cd 4.026118668904962 10.718548197998446 8.607110688751686
Cd 4.86022951218203 5.1708954519236565 9.641252167024813
Cd 10.173586139665908 8.763918408040205 9.895948138671327
Cd 7.273373304380391 3.266467004885655 9.624583658418368
Cd 7.007710255653115 8.42865590046107 10.60327909277097
Cd 12.106929585880854 6.974801492982212 11.761282282669946
Cd 5.754862110469459 11.044373876321998 11.0920205754467
Cd 11.424097177851722 12.114549859856483 12.54999676164395
Cd 9.786793084038097 4.757702092035656 11.23195015827142
Cd 7.54039151112115 13.41369333540118 11.564829928910775
Cd 4.340150734431249 6.897400374627778 12.89987670107884
Cd 6.885860476774181 5.567572259006564 11.773223803687623
Cd 9.111479726132004 7.432443829200849 12.587872344134356
Cd 12.96942727937365 9.85463633700009 11.089614658779032
Cd 8.728844443598552 10.63548662487389 12.076084066665043
Cd 11.165934237864432 9.318038429929835 13.432797225743338
