46
Energy = -19.81848368 eV
Cd 6.676125949930569 8.138922049810667 1.5218453229042304
Cd 6.2806625484560605 5.256587257790533 1.5737528117902004
Cd 3.943612911403443 8.931550921868938 2.244383999582868
Cd 8.72216255632736 3.5768011447151222 2.9991395623496686
Cd 3.9576272729360915 3.7081155038477407 2.409740055592251
Cd 6.269322529309568 1.850710172875428 2.5218034651291115
Cd 8.122710683486153 10.124905958173075 3.146459875320351
Cd 10.567456084079437 8.459802673818823 3.5654262336959563
Cd 8.477208621143514 6.41764939184795 3.3444890232571427
Cd 3.7839318104540793 10.723023426201522 5.8385862488379985
Cd 2.7254230889453592 6.255523939708818 2.865929064823939
Cd 11.172136795297828 5.791975023429049 4.815062965685933
Cd 4.61468316473275 2.0797208230653887 5.051355265105913
Cd 10.592176235971042 3.0070416863021796 5.417913646957847
Cd 6.188201750604088 4.83801548394373 4.819398739843633
Cd 2.030997257142883 8.599902205961003 4.594005614701643
Cd 5.867183448839962 8.742287076465749 4.6122602233555385
Cd 2.203278811359735 3.8518367026321134 4.904790699842671
Cd 9.512354795637892 10.549215352774068 5.724084269706476
Cd 8.37529032655973 4.843637640805507 6.697688386877039
Cd 7.799451636296995 1.7836848752238632 5.254713330809744
Cd 8.190675525966292 7.756347790788533 6.1165874428095135
Cd 6.671598302952797 11.560651315363572 5.585982792546915
Cd 4.067684145372096 6.563063820372682 5.718515412671821
Cd 11.394822226909653 8.446760318563502 6.4361671992324885
Cd 9.240087756786178 2.150453117348055 7.931836263458639
Cd 3.2384116761173813 2.665362215459987 7.625289779924074
Cd 5.622228028842854 8.317373345038195 7.650944637066718
Cd 5.156954921786286 12.007434177048044 8.197906425778445
Cd 2.170638464478554 8.74806424016577 7.618383569354427
Cd 8.061211520747248 10.874128089349114 8.30282562789712
Cd 6.029065144768618 1.6114779488722508 7.66352978624653
Cd 1.129266166997921 6.116942550606198 6.4625454354333804
Cd 7.862963572125764 6.739454218926125 9.060401900520851
Cd 5.5596940542238 5.132141951691987 7.879370336709891
Cd 10.986520082718243 5.968890914100464 7.997397013552931
Cd 4.665406934171661 4.707510855890521 10.806304435373153
Cd 10.268163561277806 8.695231706215854 9.209131258159275
Cd 9.84593018168503 4.162071115252096 9.988805975234143
Cd 4.970083625441639 10.020113282190984 10.300619715573834
Cd 7.940353156742631 9.362916468502664 10.859524849247505
Cd 2.1598076323445685 4.960713202850392 8.982078071351316
Cd 3.516211422183001 7.406824693168979 9.781733512606596
Cd 6.9929665294167185 3.121993122830859 9.893041284137825
Cd 7.892669882793561 5.327536742837694 11.83311725711216
Cd 5.844495920517126 7.405542201587363 11.53503992811544
