43
Energy = -18.01655589 eV
Cd 7.145479687032116 9.161030469146162 4.565335321255188
Cd 8.864377531192622 6.6725996168777195 4.2936300389559205
Cd 10.226547171838016 4.33058940375019 5.382559508962493
Cd 10.372983785940123 9.523676500447364 4.269649544995611
Cd 5.913701273207989 6.452976270527564 5.293237849056885
Cd 7.582854584601282 13.76305709891555 6.080261569612447
Cd 8.480458936351745 3.285754225938431 7.658346680968311
Cd 5.677822773959185 11.786011632400644 4.747593675378431
Cd 12.833424786946129 5.760641051665193 5.965632571006106
Cd 13.049017504516522 8.597053539822223 5.069558931296021
Cd 5.807409110014335 11.821313274096346 7.7326188895167665
Cd 10.386669028125132 7.857590526268563 6.7784974101412185
Cd 8.577680334007582 10.230234873327081 7.055315118063665
Cd 8.6354465528444 11.863743111072976 3.9403085960744795
Cd 7.978418578811787 6.4306763430075 7.534775761057558
Cd 8.60105157465987 12.878939455357731 8.747421780583409
Cd 10.453906672339217 12.621884449754365 6.2700349103627895
Cd 3.6392872986901703 6.657496372616051 7.299704029971151
Cd 5.627624136606222 4.260206674142736 7.3194447393288415
Cd 12.780016004034719 10.909581101628998 6.880555113287768
Cd 5.954721409649371 8.809120536106155 7.386540333430616
Cd 5.884728262046086 6.6973135611763865 9.736523525234224
Cd 11.743961875260862 13.171312193634078 9.013861089120144
Cd 13.20915118794154 7.761667882367346 8.241360470410912
Cd 3.5417326923510335 4.535845529268992 9.586043995823166
Cd 14.353189994206877 10.093750473298861 9.539382048862397
Cd 10.870063438939583 5.2280357551939725 8.327129862511455
Cd 10.902112028894804 9.929490805773801 8.977689296523499
Cd 4.281793384753249 9.884346989046692 9.65616004748698
Cd 2.576541349772971 7.472159445705245 9.984572533965608
Cd 4.694836473721569 3.988398756272893 12.26473073994863
Cd 6.69948510435437 3.6024587341268943 10.094691448314023
Cd 6.788459531986175 11.310154766076733 10.604536334795355
Cd 8.25763368820868 8.686628121141508 9.63226080313687
Cd 12.958672051458525 11.90192950142876 11.351656401276609
Cd 9.66336293241575 11.633646440470931 11.234634617213574
Cd 6.039521811575424 8.832193193730086 11.992117625689268
Cd 11.228608063648759 7.286371215063658 10.539337240461373
Cd 8.816515144434296 5.684233447587407 10.612139504848061
Cd 3.8882714133816267 6.829713313306285 12.519029620647279
Cd 8.869141672455735 8.45778047472836 12.897665120989505
Cd 11.514491008854005 9.561666908520682 12.330135997282584
Cd 6.88676792400938 6.0346657352491295 12.851259072193116
