40
Energy = -16.20005568 eV
Cd 10.632381491576652 7.501662539559485 5.407794718713373
Cd 8.865838506581433 12.27021581123981 4.575373058941703
Cd 8.561700479679223 9.29914539951898 4.209966117503593
Cd 7.690967938580213 6.561618160954097 5.319727080048496
Cd 11.36961074565561 10.555530414844426 5.195792291957865
Cd 12.823112952654517 5.6273206739956025 6.6566199230818
Cd 13.062892960008153 12.126234591793308 7.218820564053832
Cd 15.562548354050634 10.678107232281272 6.581761420253576
Cd 8.320287166980568 7.7596622631027925 8.198728444641828
Cd 5.211114887214352 6.581352209699084 7.559476886114206
Cd 8.810363772640448 10.600436355455564 7.2402588378910115
Cd 6.275131927444634 9.211931609988753 6.200426664123556
Cd 7.562682214654748 13.997253355130779 6.661957816027179
Cd 13.53334109610933 8.532407269964152 6.019438381199673
Cd 10.014574396563031 4.930087015462399 7.0740316228695965
Cd 5.012414245368811 9.199068867331695 8.933416613447138
Cd 7.12927732549017 4.3192292604855576 7.24628286805971
Cd 10.437518131884646 13.342465923417151 7.2553334276611015
Cd 5.99557261090817 11.794793799066861 7.842626634886232
Cd 8.491514064212875 13.100132449218092 9.60834416719595
Cd 8.573775214411087 5.173577141904713 9.847124728162402
Cd 13.912518795726456 10.123460440284347 9.359735384740725
Cd 6.947432299699546 7.795256601938141 10.82910935949103
Cd 8.922667624988225 9.97532103605743 10.19704300378414
Cd 3.276947434422637 6.906660071917969 9.89579306125238
Cd 6.193428536867833 11.164361714640819 10.822552787583367
Cd 11.13053533570923 8.935137210758871 8.138510748836158
Cd 11.50717780747878 6.1506665753513765 9.563200155447003
Cd 9.909605779347595 12.483094549552913 12.357390458917894
Cd 5.582513399731602 4.848349003148902 9.941422909148312
Cd 9.942936000048666 6.78786598201121 11.996312990471322
Cd 11.488971758055744 11.9725021089069 9.892667045730729
Cd 14.184281549932662 7.259789722776279 8.711770486664259
Cd 5.376081453012902 5.803660725516946 12.749029360671432
Cd 7.317435067708138 11.664725441705079 13.465384199836807
Cd 3.1780641608146523 8.022478805609238 12.62651088832459
Cd 9.306034265718706 9.443409293052442 13.297473937487728
Cd 5.822804560462537 9.084688242988811 13.552746472218034
Cd 11.741402548872637 9.071927513911703 11.208301723385146
Cd 7.830938995963951 6.852810472685169 14.050140616404388
