43
Energy = -17.56251577 eV
Cd 11.140367879613027 10.653687907396646 4.200801976316746
Cd 7.982069256481458 9.95226517407682 4.427926339893239
Cd 9.159135190216418 12.832360019631162 4.66318925637924
Cd 7.705720330768768 6.98943051880796 4.591396726709507
Cd 11.777626145476194 13.046069742261402 5.965520419916784
Cd 10.707561126696973 7.907735963551273 5.003140943723984
Cd 9.75764590248706 5.372467303456064 6.19036453111263
Cd 6.385121715188123 12.400070579541321 5.567174425777206
Cd 9.344357604997683 10.122459982767692 7.153293529099517
Cd 4.972216983700807 6.816182173005479 6.57283622532854
Cd 13.152905158604266 13.933279717030734 8.36564956112264
Cd 11.235196336848668 7.703618994548001 8.045459355714538
Cd 5.88351890720464 9.623093720243833 6.6626777174833
Cd 8.542156868121461 3.892797720589049 8.422766247580702
Cd 12.292688744882113 10.540513918164056 7.628361018962201
Cd 5.900127012068657 5.008934917644476 8.679288573507089
Cd 8.765685238109112 13.151228377388412 7.727217137282913
Cd 10.315394350981398 11.411990841990896 9.791534950323667
Cd 10.553528084136818 15.053816833750352 9.177518576282203
Cd 7.964966370622967 7.478506624664042 7.679950287903164
Cd 11.098360773381952 4.922502943619379 9.358803734134543
Cd 13.578428683950573 9.117019316817164 10.028116507232696
Cd 4.731855366472387 9.69772885650601 9.407375797920508
Cd 7.821562600546832 9.661130661847837 9.715875906127163
Cd 11.680809338391427 13.538894513193377 11.50011267230103
Cd 8.527682781020625 6.402788937603544 10.507776741705023
Cd 14.210995257797336 11.951545511228085 10.178420241230127
Cd 13.648374310142428 6.2282046459087645 10.04330094641402
Cd 10.499210886195415 8.655974195594625 10.91090536802719
Cd 6.037703959648564 12.277400786276258 8.590475039308862
Cd 5.618169620681708 7.148611076118008 10.732074838609968
Cd 8.549169837741807 13.813712343892373 11.033318036514796
Cd 12.896255122742847 11.216815329017665 12.791326089339364
Cd 8.513939498930199 11.07024405361489 12.311831853475564
Cd 5.910423803656552 12.459819825353891 11.50667825345242
Cd 5.57273530352187 9.61078031224941 12.428138266535322
Cd 9.415544775209808 6.793519928416642 13.281018920584172
Cd 11.869299027804201 5.402908565472019 12.311833303671952
Cd 12.780729219703609 8.26711729663055 12.877759784586878
Cd 10.58558853714802 10.230833094249654 14.271222379062142
Cd 7.691053519472594 8.92320540594372 14.298223954556917
Cd 11.800300879699181 6.66300496866194 15.245695951866812
Cd 9.797507090083096 8.429415802422954 16.527337014073908
