41
Energy = -16.65758164 eV
Cd 10.057427231122256 8.686092169209418 3.9468376992761116
Cd 5.721282996243837 7.0396040639920825 3.1045332967979
Cd 8.72061992141746 6.123507179988616 3.4789375811053285
Cd 6.482435126477769 4.272492661127311 4.462717791493654
Cd 8.984223836453278 11.413710796764063 4.663174746603463
Cd 7.526851452489208 8.787551333121254 5.6803763792006094
Cd 5.546658661100023 6.550935316288553 6.22124340607191
Cd 9.229054984710972 13.677292046335845 6.544062999455496
Cd 11.991568028678893 10.82084227008018 4.875932843526156
Cd 9.248514461887714 6.174505479502363 6.42385511973182
Cd 12.261280374510777 13.702167723622473 6.467384202746982
Cd 7.440702314641088 11.282429238469858 7.394268579047873
Cd 14.060709490486495 11.425477902813741 6.8954075096525225
Cd 11.368499388059877 8.363078924051779 6.77362559605467
Cd 10.4735062707749 11.031823701204782 7.7427764109451145
Cd 10.708683892186043 14.94991325316544 8.78934075926034
Cd 5.321752142079156 8.907740299772557 8.033399825442608
Cd 5.478974361960215 11.266631859920125 9.682389710834224
Cd 7.773417457780254 13.623392224757064 9.3883769212229
Cd 9.46030583464108 5.295132632053867 9.189786955404724
Cd 13.432652307356035 9.617581134053825 9.030361331127505
Cd 8.743281235239746 8.577716296643548 8.662963765508128
Cd 9.263840281661995 10.947186616439549 10.442969639697276
Cd 6.59985584571987 6.320137130026222 8.973542399850398
Cd 10.937061361978113 5.504685284388884 11.798703425491208
Cd 11.55250475800529 7.537975314232987 9.670537904969475
Cd 12.24017912596056 12.489716949886374 9.71564807421933
Cd 10.159481870636595 13.786658488944882 11.424382832800074
Cd 13.61443606586156 7.630342590033194 12.223388381343957
Cd 6.905730007136015 12.155048511435167 12.05831420354316
Cd 12.011998454498551 10.183193393379987 11.63277352520817
Cd 9.336451007465747 12.42832201845065 13.791296099568173
Cd 7.568686878922762 5.481487355364919 11.608061713510628
Cd 9.054589496986269 5.293690960391809 14.227857621479744
Cd 9.40156626841172 8.31732049035605 11.811032580903786
Cd 6.382604249981911 8.659424017104458 11.184179292598676
Cd 11.573365560315382 7.065858162869682 14.269366998494247
Cd 7.474455814292511 9.929821471941452 13.910351878696794
Cd 10.613981122824606 9.866726429118996 14.289212477382646
Cd 8.885887311114352 7.850006084770169 15.770061306006097
Cd 6.526494099925853 7.0983515759222255 13.882137565723719
