43
Energy = -17.11990221 eV
Cd 9.992178867898918 7.4760245715637765 2.160216229182913
Cd 12.524959017622779 6.91691945947991 3.7803578125412276
Cd 12.093770787622601 2.563699451359108 4.494575280420576
Cd 7.462936512074598 6.49659466388313 3.9332689060439763
Cd 11.784720809101016 9.757428944116077 3.823590614146718
Cd 10.004566590187617 4.920678241596179 3.902384293167277
Cd 9.934707664047862 12.147677152250855 4.195534042071848
Cd 10.701787923910738 8.094494042902387 6.313744441901657
Cd 8.670865404723575 9.42215082426514 4.047224401228881
Cd 12.039776182810426 5.249987269201778 6.130524132375968
Cd 5.456018831054166 10.433517025447081 7.7033873294705515
Cd 10.309157476264904 13.413727965701426 6.825836306974248
Cd 12.31104302310868 11.035237267240309 6.480165578013065
Cd 8.767785105376054 5.628468098588544 6.763146130009813
Cd 7.227656175787424 11.51549359801803 5.476609258934337
Cd 6.643908596201243 8.330815271219015 9.480836062882796
Cd 9.449774098918475 10.547589658619222 7.566504659519385
Cd 11.205690259627309 5.882021130318522 8.801943980527863
Cd 7.485090532159801 8.34547509731337 6.617427289530552
Cd 11.532572018086913 12.656859921186244 11.030855194538349
Cd 8.282795859857886 5.4607347990706065 9.734183122521541
Cd 7.211068355629125 12.869544645867746 8.163610470311129
Cd 6.263704061175241 6.495576311624277 11.736689158354997
Cd 9.820969753310225 14.594090975077073 9.363823936179939
Cd 6.708351350567886 14.723255432646228 10.334548736593135
Cd 5.887692335870032 11.069439656312833 10.554478069942355
Cd 8.879416000299202 11.349000840616418 10.341036742710967
Cd 9.775861416202345 8.38056211470092 9.59634412447132
Cd 12.500936763115762 10.481537787189476 9.336685843911646
Cd 9.044832400972227 14.341585885774151 12.179350415800096
Cd 12.039282695308751 5.284858228094727 11.456818597440774
Cd 6.2602162695475805 13.048384321312776 12.716572734133404
Cd 9.675918339429993 11.784710836663672 13.44674360385361
Cd 11.755179220665125 9.061100339825332 11.773863637970313
Cd 8.567857492656522 9.182186981123877 12.311672479722251
Cd 5.5936535581670865 9.894909256289782 13.276342220808901
Cd 6.996558706327848 7.483429039200789 14.463712505163835
Cd 9.273301282895966 6.1316650155771155 12.551904887152109
Cd 6.591860506221207 12.126156645900366 15.430435308198838
Cd 8.435665195642104 9.93068386583377 15.662253250902342
Cd 12.021461624016256 6.82351168588966 13.923119525919772
Cd 9.6759930123394 7.1773372430451365 15.616208058790962
Cd 11.349660940587494 9.682081455486063 14.712673643057768
