49
Energy = -20.63079966 eV
Cd 7.778537357202436 7.947116232417905 0.9101437781591849
Cd 10.512922563143768 6.958631529373201 1.2720633388099705
Cd 9.206725494242102 4.377860197597336 2.233585802282897
Cd 10.511181258999937 9.531748664876961 3.7822558551373544
Cd 7.511952740077421 10.006717004767017 3.2446956456701552
Cd 5.802473261750663 7.566596235720715 3.1946174825700044
Cd 12.125881335180269 6.935025537762419 3.71390998274682
Cd 6.564776305840919 4.802389878909003 3.7393500215558846
Cd 9.137085477430595 12.245841628053522 4.391866511750209
Cd 4.874399551189244 8.609025700445994 5.799448368667327
Cd 8.261206495029008 3.169589060535966 5.518657691012889
Cd 8.866914436445008 6.962732627931036 4.228592964807772
Cd 13.157312978728767 5.7831895628303 6.230254210302278
Cd 10.958753294468872 4.232285613874528 4.775176447170052
Cd 11.355185704073902 11.421196764841598 6.181633458689016
Cd 6.800973409546553 11.060891838370072 5.975777445725805
Cd 8.857612841556913 9.033863238723372 6.540785547102439
Cd 9.011750213754896 12.6966820588122 7.484244023113319
Cd 7.026850927211275 6.665898649273874 6.598163858965046
Cd 10.060489240601749 6.156581774757678 7.018212247730814
Cd 5.244201031173562 4.0837142809058795 6.3227909566766325
Cd 3.220024968847775 6.3260809896362975 6.918516531798077
Cd 10.504559940233474 2.830938753257576 7.5429295806795835
Cd 12.838753777389627 4.252718156286798 8.63797704127693
Cd 11.915402987309335 8.490918778589782 6.36272600813796
Cd 4.560151748783439 10.813394904605133 7.783178414535257
Cd 5.724792559822276 8.034476591968113 8.89104641334214
Cd 7.5577947798318235 10.429264775443842 8.987166815775533
Cd 8.91140674304779 7.6496134024703135 9.379877698884938
Cd 11.066327853250607 9.946816789012798 8.781680003378197
Cd 10.511194592088541 5.212137546046098 10.114639561410321
Cd 2.830339097534775 7.378649198906966 9.852830103409486
Cd 7.887361049959834 13.858373105646791 10.066786440826176
Cd 7.894158592278246 4.287027026289173 8.327305512775187
Cd 5.065286083225557 12.93042053617447 9.80806062123176
Cd 4.99171892233538 4.891701769859225 9.212999322890512
Cd 3.0340973104576903 10.3423888355217 10.202286428971382
Cd 4.947470968994335 6.407958166639445 11.8255962943139
Cd 7.514017820794987 5.115895420855288 11.149632209319595
Cd 7.037691333155438 8.686485392458467 11.552030336736763
Cd 11.213733471558653 8.758187176610459 11.422050864633356
Cd 6.733517820941157 11.6711870559222 12.046520731356113
Cd 9.790193621235636 11.63187510176028 10.859786830707378
Cd 4.235555572204965 9.37501342578974 12.674260363250115
Cd 9.301565434487085 6.875799626983134 12.710166042382342
Cd 5.549895352951473 7.379199813374034 14.552667437188353
Cd 9.153671828344503 10.0625700989603 13.316185348382831
Cd 8.317315746710639 7.993182693877693 15.356260630402797
Cd 6.334329702549411 10.389662384242719 14.778126371327064
