49
Energy = -20.99463449 eV
Cd 9.598238116890036 8.665085519191663 4.167117465102103
Cd 3.9386199352355966 7.991470274122329 2.6938392845777845
Cd 6.845829159593898 8.712365982075186 2.926255245188406
Cd 5.9148766703314415 5.680131941968996 2.7728669028502675
Cd 8.116928742271167 11.294804488349275 3.5790706849723537
Cd 8.59135260952574 5.8741095530438985 4.089790243454768
Cd 11.832595724980155 9.236593516388767 6.097774422865051
Cd 3.33209644318872 8.386039450763414 5.576944581862247
Cd 6.280674602150073 7.678730910914486 5.660304880311474
Cd 10.963511127702162 6.34556740451575 5.924042448362803
Cd 3.305329050020915 5.349849476824966 4.280806790377513
Cd 5.565701591157118 10.636947869447974 5.3319510979510705
Cd 12.636727849053283 11.878358075193182 7.611177274524793
Cd 6.458630680397716 4.472760235952094 5.645469479514258
Cd 9.747785887516452 3.6125388142997488 5.819102655525113
Cd 4.253779703979106 5.850621417848778 7.131672586426202
Cd 3.222690025587502 10.674510622083893 7.402558832523091
Cd 8.357544130360127 6.697619253178389 7.417804591055433
Cd 10.475562195375382 11.820009556161898 5.279978057512034
Cd 7.589209011692697 12.749144044428816 6.144521699184903
Cd 8.364792037375231 9.681428025493759 6.8785953006229965
Cd 14.122230071412664 9.414614549559653 8.284430555469358
Cd 13.414821279306823 6.678606452891164 7.464252605547991
Cd 9.844208976719605 12.942058048347059 7.975858746267353
Cd 10.548408532137008 9.342002702711397 8.799075867866787
Cd 10.740416725078072 6.354051283250823 9.149246683963957
Cd 8.2078883984842 7.995096292464692 10.191005870394795
Cd 2.7970431437962247 7.872608967718328 8.679295819807422
Cd 5.882334453107832 8.768038551686551 8.483064641235726
Cd 10.681514570801504 3.3689428410336073 8.619330600643513
Cd 7.71522080916041 3.7183776432305664 8.205610273190661
Cd 8.245026728111663 11.13308329869579 9.818758898965159
Cd 5.79064969403229 11.957502160003717 8.392312502237699
Cd 6.021878852167012 5.783428607291685 9.569246127915541
Cd 3.5232887157169483 10.31096713093805 10.41925589808656
Cd 13.236543164250188 4.069737377427048 9.9025426752503
Cd 8.7375428686397 4.626419845735215 10.895066822019466
Cd 12.716647564669215 9.829186271180205 10.892439633271005
Cd 10.893830108733244 7.635761876928871 11.901110014871284
Cd 4.087391186709081 7.52717120882077 11.316896768535017
Cd 11.436066675665566 12.46071568634328 10.384984873335538
Cd 13.55503081569233 6.968516241132639 10.48628695979678
Cd 3.250568104483686 13.211688363633014 9.603933223709626
Cd 6.119506485228939 9.8843832794314 11.709899810485728
Cd 9.186122653951363 5.87534329574257 13.481964667320845
Cd 8.193023422939175 8.759581681147164 13.554755940689978
Cd 6.451723871124992 6.4366923436056345 12.586307249148776
Cd 10.429298231445854 4.4579061948078165 15.799200430045573
Cd 10.033595414191431 10.583128184134402 12.256518127304247
