42
Energy = -17.15895535 eV
Cd 6.273215023788207 10.26632166272141 4.11864800200269
Cd 6.818309545270038 7.3834555085324185 4.218937468507883
Cd 12.087061660643379 9.386455620583527 4.090089843990102
Cd 8.557061391440971 11.567504419650247 6.260418010358157
Cd 9.169271005556823 9.286120213426708 4.282871661272654
Cd 4.43825753083209 7.744739028357052 5.8511735094036865
Cd 9.348851425741035 6.325406100451312 5.273092184541829
Cd 5.639685833102062 12.807099142907617 5.451253132270225
Cd 3.3586278172885153 10.394048003942984 5.092086662190587
Cd 6.634999375366159 5.803487594357874 6.765135220566944
Cd 11.76534543116449 6.2424081866824075 6.937757983412127
Cd 6.561821808699336 9.53179813248383 7.272818554842973
Cd 12.920453832303133 9.266425783467149 6.901073565960105
Cd 6.615567481660097 12.662355240873044 8.326762236924555
Cd 9.815788943511453 8.80352164252786 7.275968500438242
Cd 3.5962913597896407 8.913647892902562 8.447109183246999
Cd 3.7085953700328176 11.832399394816264 7.595979586702756
Cd 7.856275952965469 7.49725112242669 8.985534311558892
Cd 6.964911274925504 4.229158111348654 9.322486939632745
Cd 14.423710287657308 6.837494815526483 7.974833564189384
Cd 10.97490603626004 11.351704523458913 8.310653038827466
Cd 9.269726887725698 4.332795230683286 7.525821112281404
Cd 7.761663935443856 10.351435562452512 9.992487640702615
Cd 4.509730105499135 6.041852340544682 9.066074206903354
Cd 13.387699719786529 9.300232502548576 9.813741807527688
Cd 4.5858866331964006 11.2527934879174 10.317015390657248
Cd 10.467052235006006 6.155019680086341 9.606992785898065
Cd 9.149902833629088 13.206217878005694 10.021228217137992
Cd 13.425182016894532 10.290104182863665 12.621957794477076
Cd 5.496970669988303 8.382395566178095 10.739583817683076
Cd 15.936684909367312 6.76523137309208 10.410968333862137
Cd 10.408293047179129 9.027488604138743 10.470361880802653
Cd 6.320743924384858 13.201618011356976 11.557337710393933
Cd 12.84983764989438 6.45281831015735 11.307249897178949
Cd 11.448400005511877 11.934545186737248 11.302507990857357
Cd 9.97989349647322 6.829782507643248 12.719819015230422
Cd 15.153591330332807 7.8796397122094115 12.943076731604814
Cd 7.3513427635806226 6.0171089009205305 11.720109929029686
Cd 7.6270809599093985 8.984274095694882 12.767557630190879
Cd 10.485355185900781 9.902434297671231 13.553339872448355
Cd 8.595654255557672 11.93524489713326 12.77185516075513
Cd 12.386419953816414 7.750286437598694 14.142350820613721
