49
Energy = -21.20412629 eV
Cd 13.339529611005414 10.050571141430318 4.934836841839711
Cd 9.435112222554357 5.734673739319414 5.483985536699043
Cd 11.547278791713026 7.6696040448458245 4.523263019500471
Cd 7.66565656618802 11.268023996674565 4.661023196741502
Cd 5.811390771615939 8.94889130401209 5.120727185864763
Cd 6.410179716935207 6.146787755981669 5.385875271868337
Cd 10.5081593337013 10.626102244966289 4.355031338780464
Cd 9.078344044321602 12.455609216443785 7.120736445445305
Cd 14.267881082533455 7.286492436195569 6.521930672881576
Cd 6.958225586307439 14.200768125661211 5.941847233649699
Cd 10.329492877285501 3.3403015289491207 7.112346411301565
Cd 6.166551037873313 13.464839970520824 8.800266375180573
Cd 8.573570977942985 8.22907363543497 4.045649165085274
Cd 5.633299390075467 11.167817792725932 6.995594387936001
Cd 12.384602987003687 5.1715668154087835 6.140255485344928
Cd 8.71627776429147 9.158090836715118 7.055957058230933
Cd 8.934577718018952 6.5342017903222995 8.572273384946618
Cd 14.736907246064153 9.977127580364542 7.496224535674676
Cd 8.826602944321452 2.7148732207275397 9.467763266585662
Cd 7.363914234932123 4.051895258423521 7.137063578752264
Cd 11.665466896806251 11.101014723316997 7.238466450287778
Cd 11.358762268432463 8.077174092342494 7.631417597846022
Cd 7.811277632644397 10.819022119250162 9.354072457316665
Cd 11.953992357331975 11.93283524853556 12.2518361899433
Cd 10.804786293402417 13.046615198860199 9.554386760088445
Cd 11.710970023500511 5.238059420371596 9.142422369647615
Cd 6.589555805945986 4.992453570092727 9.81642907754668
Cd 6.05047078257653 7.854063797396499 7.961414264764948
Cd 4.767946719836403 10.112369880025291 9.693526173222509
Cd 5.920388311391589 12.073377008225526 11.625402107084893
Cd 10.597775846149373 9.720785836285998 9.977911459969592
Cd 8.239424448154308 14.131225100447994 10.811141556541513
Cd 13.699733560399999 7.770959191031458 9.54006136726849
Cd 9.28269524174921 4.808776313101523 11.398902038623982
Cd 8.183753715161364 8.306839943986493 10.891795719566533
Cd 11.455674101714251 14.84137549758109 12.095924554600476
Cd 4.843405394604354 7.19042052844874 10.57238579084244
Cd 13.432032113752753 11.193046996879518 9.752869408773147
Cd 11.437315122496884 7.080998942290678 11.498539873025743
Cd 5.428570929835952 9.22782005498657 12.641021803832505
Cd 8.973721353140144 11.506796118282423 12.26695706675257
Cd 10.850869515022614 9.439346421103384 13.546903772468301
Cd 13.433801390527593 9.299038589289328 12.079506193955817
Cd 6.9925382570357275 13.695317219246352 13.899923813117772
Cd 9.341209366129103 6.779462624916309 13.615301458764103
Cd 7.953846205242851 9.326153680500976 14.077864140881747
Cd 8.994494913101278 15.731774591865642 13.352428918443874
Cd 6.615142644925618 6.173701428642069 12.740083073337532
Cd 5.842926754978552 11.251966298249219 15.018557019851679
