43
Energy = -18.62619991 eV
Cd 5.7602526624303465 3.1367730335473194 5.768325858644026
Cd 5.7891864901211765 9.562111414321494 3.480307966384519
Cd 2.991719490748987 8.922289145765268 4.247775970394484
Cd 4.259922950281683 2.2202355487172483 8.308942395727609
Cd 9.97191464617886 3.3878350226974625 8.213115589549584
Cd 7.467927327541376 7.699005233627932 1.8212316317773327
Cd 5.770546172134583 5.656351730848991 3.7407171681254003
Cd 5.755824989415558 3.0843830365691276 0.8344792438705385
Cd 3.4401431696081737 4.789415565096212 1.5684262445818598
Cd 5.792151958648141 9.554418869835976 8.080021685128727
Cd 8.092954228151562 4.752271867909027 9.97183970756187
Cd 1.5550656830605172 3.4258248037868473 8.216712682402811
Cd 3.4468300660555324 4.771904847308408 9.976389737800577
Cd 7.25194333557169 2.216136664428942 3.2232381291831143
Cd 10.932011498315063 4.6813030507962825 5.76777683086854
Cd 1.6555917826171056 6.414916113001217 8.299533460179397
Cd 9.897247379731061 6.383920587345764 3.2490622626160093
Cd 10.78159807994077 7.6155809791244655 5.7730151018166245
Cd 8.089016909535088 4.766122884794699 1.5658189233686153
Cd 1.5516308051678294 3.4361746132480464 3.324677418589222
Cd 2.742037516422141 2.3556272072360476 5.768361856058664
Cd 7.472868397236862 7.686281074303619 9.730738553959734
Cd 3.6754385347105836 5.737946848417646 5.773951860853869
Cd 4.096228914492972 7.700414283329159 9.731749172582623
Cd 5.770562602482817 6.033824189340115 0.10035096713737292
Cd 0.784555518060254 7.664203663873334 5.781287041489228
Cd 4.257084627939183 2.228681078964907 3.224725717944264
Cd 8.580772028937483 8.891989685512051 4.2442149898172365
Cd 5.7773912057013295 6.012788813296997 11.446578653221891
Cd 1.651190870307462 6.4252607480711825 3.2553768340486813
Cd 9.969279537302846 3.396111009355574 3.319195573802572
Cd 7.228993073341425 11.009652556120134 5.781171526271687
Cd 7.868963389661433 5.7203276151608975 5.771687245359627
Cd 9.900763999370087 6.376134403876557 8.293422912076364
Cd 0.6047404517585336 4.731209813749851 5.774223058137037
Cd 2.9937537012705278 8.916474799454761 7.315931212345893
Cd 8.772044657101427 2.3317011008870843 5.76586515692323
Cd 5.7726820560198 5.6505932476057925 7.804618448801956
Cd 5.763353156842743 3.0656550498398123 10.701732407790999
Cd 4.091789625773735 7.714232313758852 1.8254451828112292
Cd 7.256377499171777 2.2054145710764024 8.307288239335374
Cd 4.367109159857388 11.023906399962843 5.78407152970252
Cd 8.581909440574032 8.885690723428647 7.309001304474971
