42
Energy = -17.39129261 eV
Cd 8.653864857261343 7.62659113500911 3.3635420149200126
Cd 10.39417375435769 9.591263087825318 4.618516559923905
Cd 5.906863406654258 7.180905503980589 4.338440241681543
Cd 10.912285013981709 6.279909233242444 4.804336658508095
Cd 12.609049689737219 8.130049353774712 6.333536888592156
Cd 7.175331056139949 10.002923089535557 4.51853184971551
Cd 12.505933739299653 11.250629875381088 5.723457723734328
Cd 9.480870145373625 11.443013238421099 6.82523129594855
Cd 8.108791898675639 5.213249596692822 5.206403837770489
Cd 5.081759361368285 8.804333674938245 6.606452129811568
Cd 8.462396198533522 8.023128883720789 6.801175283207754
Cd 5.643116171073769 5.679952748045158 6.880185134907258
Cd 6.96002662476197 10.562426819841102 8.18884179958661
Cd 6.707462432923126 12.66916891944792 5.495341573921272
Cd 9.151123191603174 14.618024976264657 6.397129630831378
Cd 13.902314052559607 10.210427028761718 8.172544540407415
Cd 10.64413701186538 9.169378714169149 8.400467387381264
Cd 11.998345424644288 12.540530283955114 8.361706055903765
Cd 11.26553769363894 5.818063555109771 7.757387677713983
Cd 3.167477056242485 8.016333811105117 8.677771963882375
Cd 4.302149318401626 5.195475247294685 9.424015024112775
Cd 8.299261949800922 5.123618385788298 8.18941347683608
Cd 6.578057658116087 14.037519131864304 8.076851808168001
Cd 12.358239725278873 5.067144230388321 10.392945297335297
Cd 9.472064766577354 13.49236781699738 9.433559276314483
Cd 6.7565233125540844 7.743967542607339 9.314378815780435
Cd 5.97584723424455 5.348733893174637 11.831096630381232
Cd 4.5361150899305445 8.878988118464271 11.152782369094343
Cd 6.84356348733346 12.388413157857102 10.539337385370327
Cd 8.727975240166561 9.865436535338686 10.633547359042616
Cd 13.710501199248554 7.584532851482053 9.438573662898321
Cd 12.106057027499851 10.576926531611324 10.67323522585778
Cd 8.56740003067781 4.0490681711453025 10.977122438451383
Cd 9.635681773719844 7.06236313265372 10.22102995411328
Cd 5.853123523800114 10.879359548715538 12.81539806906649
Cd 7.182582817101107 7.898639541272019 12.565952005040797
Cd 9.750383992362565 12.402053848977994 12.1413818176007
Cd 9.776023917994438 7.669531951341049 13.892174799066632
Cd 12.162645962792404 7.797287278219344 11.991694669954022
Cd 11.298822312040734 10.256209974052297 13.482745341758342
Cd 10.576875529624967 5.045841813336311 12.843242314796072
Cd 8.404205203816511 10.411177621975757 14.103481864389956
