46
Energy = -20.42350487 eV
Cd 5.665295067045167 7.472366822926261 1.233847815108544
Cd 6.151089199915779 5.319786012500651 3.5152976433980005
Cd 8.456664246793808 6.983754874553105 2.0494403736438693
Cd 7.30829484180099 9.85032684817749 1.9251203984632381
Cd 3.4866875515871003 6.588509745402701 3.0122179761508114
Cd 4.363356659417281 9.668157544712935 2.81063664075867
Cd 8.985737718428405 4.2442520346469665 3.4472911996422213
Cd 10.857620895973975 6.544098577965627 3.669436875460786
Cd 3.655016325340173 3.581100872926503 4.181357971991997
Cd 7.035051968651836 11.24412548303322 4.494816139233777
Cd 9.26444968117589 9.105221550366872 4.249019526699202
Cd 6.631152898223099 2.560817015477842 4.6636686211604275
Cd 6.235487598258836 8.14049538676038 4.849195714831559
Cd 2.499020509324206 8.597150990974345 4.989328595459807
Cd 4.564636772002346 6.061346650403378 6.142626893494285
Cd 9.361940364821868 11.42980441040347 6.312452635129392
Cd 7.9764755096602835 5.8309045795624455 6.008022461537549
Cd 9.492006449591555 2.3219316537384724 5.611869167270236
Cd 4.200471336438473 11.082885572409028 5.417843931736677
Cd 10.902212401111452 4.8568942758960105 6.156520476848616
Cd 1.2866862338899745 5.573161701039541 4.677870030227557
Cd 11.453176344893498 7.851052773941107 6.208228208331202
Cd 4.290556095820387 1.527856398827048 6.332923619177058
Cd 12.246011216139538 10.731431306179074 5.779824482189551
Cd 7.800076497552635 1.0051334388357167 7.536885973354915
Cd 2.387558264963286 3.9199211594802787 6.9309771029914335
Cd 8.07449692819198 8.634792720608576 7.098965556851144
Cd 6.2478179809906464 11.552629724135333 7.41379484380785
Cd 4.42035060856583 8.828143285528952 7.53565127211782
Cd 6.217336948534597 3.9047391635929043 7.372113016658165
Cd 1.7389293493639144 7.03768819209945 7.306536715503065
Cd 10.865855048119998 9.629441719340994 8.485292066893802
Cd 10.043873947697168 6.537740375547608 8.579730609794224
Cd 2.4913049803456553 5.433782065259693 9.565509920921603
Cd 5.354542148693122 0.32082807912490724 8.884085975348226
Cd 6.349105143467387 6.615416018331975 8.570812544869106
Cd 9.146437462198021 3.715328722789339 8.37913004505488
Cd 4.033413330314595 2.963074593329392 9.254105569349326
Cd 8.531519965454159 11.242784896945732 9.272929616730249
Cd 5.939819817591088 9.93330139276558 10.105701297589263
Cd 3.918041076908422 7.809616587501327 10.352525482507232
Cd 8.559165566501203 8.379075651364868 10.3525313908931
Cd 5.111585119517565 5.003515060004951 11.204447368111659
Cd 6.96241582873764 2.677191356489319 10.228297901627359
Cd 8.224446798569376 5.327115769756607 10.858111583221248
Cd 6.35192838375088 7.500426026677644 12.1121258301935
