41
Energy = -17.32112138 eV
Cd 10.062602979492418 11.96380049457772 5.505981734921072
Cd 9.597526088006713 7.467323854899948 4.176989295555899
Cd 11.421708718599632 9.899350846248897 4.087858973323855
Cd 6.7026664915322955 7.508173963666344 4.530154526276206
Cd 9.805406097812948 6.214544005212691 6.872885235909994
Cd 8.368448005803515 10.215360407778608 3.6043888284266763
Cd 7.578901893099109 12.546701672862541 6.791745320949779
Cd 6.814376190497119 5.628443755672555 6.9399306825456355
Cd 12.789958619175826 10.5237133849927 6.6908174293073746
Cd 12.227898699746547 7.567875947423382 5.682593963100225
Cd 5.7903375823097765 10.361234747858465 4.885108405482387
Cd 12.398988946383184 4.556417709781853 9.070170270698009
Cd 10.364135932194255 11.550946713090733 8.462859125605059
Cd 8.824368969089353 9.348164196614375 6.794289566505732
Cd 5.936929568008665 8.557210553068964 7.4585609190427995
Cd 6.514054839046386 4.220990237061738 9.602083346779573
Cd 6.194443469664783 13.626922547721795 9.139834436304438
Cd 4.7851874165396495 11.48503582570336 7.384780059191935
Cd 9.443786588884716 4.2691562639713 8.987830116152919
Cd 14.098946716792344 6.272890089525026 7.391610413506469
Cd 13.6428446316173 10.75767780423601 9.481826744093034
Cd 7.431130997458036 10.396525497091925 9.350103974690272
Cd 4.6498472499136465 9.034370936226003 10.333672582058298
Cd 8.246842479274688 7.432314254586053 9.312693070200346
Cd 3.9837855762784153 11.816711478315293 10.17436355366762
Cd 11.111805287670972 8.494346140398953 8.474416744014185
Cd 13.742523375842515 7.679292967682897 9.92869113095382
Cd 8.866499263188025 13.311989772755178 10.448602250520938
Cd 4.481696542559705 6.323431964414595 9.052990888043476
Cd 10.92378055339467 6.713373387454731 11.07116183395513
Cd 11.541096975601969 12.136299722758316 11.200436585287047
Cd 12.887266184384732 9.379345612565517 12.175226981094523
Cd 6.296163370539078 12.440909812751126 11.896961658982505
Cd 6.251083935036925 6.7643956490105825 11.473633177923876
Cd 9.78238303407818 9.575507538078003 11.061182565617385
Cd 8.575217460822005 4.761788248728645 11.715552270473742
Cd 11.462419791691294 11.18696499812056 14.053092902905629
Cd 10.950430611040874 8.328012648427539 14.384903598699864
Cd 8.755801323758725 11.862614635425485 13.373304201364695
Cd 8.558970040810737 7.143117640084135 13.413915407527085
Cd 6.990208430805107 9.529223001601483 12.415266156787485
