45
Energy = -18.61443049 eV
Cd 8.933233455586409 11.121353217688398 3.2995470209769224
Cd 10.476717199328737 10.371891596463 5.793456478921803
Cd 6.537420537420691 11.14293666707217 5.449728060511092
Cd 6.94489189767802 8.812206502156414 3.568274730310903
Cd 8.80725785049397 13.307180108084385 5.330500905612383
Cd 9.549086162258893 7.824574842259501 4.366230134351539
Cd 12.12819083376422 7.784409394923391 5.996823266771973
Cd 13.02494249304605 10.413265384547104 7.250403960338871
Cd 9.394575684495885 6.203363175941977 6.791085617913969
Cd 11.669520646450689 13.089837765668657 6.438442868178727
Cd 12.398901666528198 5.190830312170453 7.410446456080226
Cd 7.474401820377834 12.513842979185165 7.9582968594118615
Cd 7.96681535200398 9.00491790027277 7.116884685251596
Cd 10.027683746190586 11.172553875309218 8.824115453872349
Cd 10.421113063558114 8.251407965847605 8.871235969172295
Cd 9.540136803267085 14.712343798954665 7.870571521926071
Cd 7.994224417495618 12.135839788268779 11.117278216786133
Cd 13.219443361730551 13.720980297271975 8.807913376793177
Cd 5.41378851558498 11.164001678675822 9.434113508918056
Cd 10.026294416487813 4.6905788700334705 9.217980366592624
Cd 13.42400046965465 7.9522951293733835 8.843586675135164
Cd 5.361453592987236 8.1552285954411 8.207225120641104
Cd 7.790071033826005 9.065628257072992 10.18543288413898
Cd 12.860611891683018 10.706392162215714 10.191102012758085
Cd 7.425368672844967 6.065543277935302 9.172584486049466
Cd 13.212567865509712 13.393953772456515 11.70722665699772
Cd 3.670329730375448 9.07964470298778 10.53951276504324
Cd 10.442923633147837 13.95908574711674 10.497749733005852
Cd 9.853558734333808 6.710912710054531 11.480907233617867
Cd 12.58542610815285 5.582587085561714 10.418040279390624
Cd 10.308887593176916 9.801460133220376 11.650087121145926
Cd 5.2638644227976075 6.6819269065556135 11.071781889185589
Cd 12.887581118062144 8.02083416139467 11.995386253531716
Cd 10.378769115024289 12.579463933752804 13.085018734928953
Cd 12.988272943740911 10.786491806564527 13.132167855560597
Cd 7.29183364718097 7.368661949069578 13.0822078725453
Cd 5.802962557258448 10.018061602329116 12.37375601385575
Cd 8.205284463458566 10.384672958765494 13.948884763287486
Cd 9.987472923071293 7.765872849189885 14.351642691658297
Cd 10.756753259775289 10.581576396907986 15.38600617134774
Cd 12.842792276236377 8.19624746098633 14.947603542183442
Cd 14.007698690486652 10.706294185543582 16.254065757292743
Cd 12.23765800482822 15.315854430244183 13.902685365189457
Cd 14.53150745247836 13.2839379782141 14.524653776538928
Cd 11.982730639794045 13.258076449887112 16.186375649912904
