54
Energy = -24.33648916 eV
Cd 8.101697982375294 8.830131446432581 4.239494793613846
Cd 11.97994075650293 5.420967921712411 5.238683771513633
Cd 11.395399196328885 8.051551688859409 3.4799153138287724
Cd 10.269738578944743 10.823523884828731 4.139194439958298
Cd 5.210376336767417 9.261723231607547 5.2807804246911365
Cd 6.212362944949299 6.487347415290016 4.323461398292662
Cd 9.179850703496843 6.030656044763551 4.239091005467153
Cd 7.169269175072349 13.828997642929902 7.082467384220758
Cd 7.174102785176336 11.489269141985334 5.181520976397424
Cd 3.1922304608747245 9.276052371024619 7.416298494670584
Cd 9.647928189284539 3.5514200396935385 5.8946162636148935
Cd 11.797915561274612 12.74562862817196 6.475018615788846
Cd 13.962515683757974 7.530973095412401 4.957335017356492
Cd 9.3848137799765 13.529103894353769 5.057005828107489
Cd 12.449499550267086 9.87546417792882 5.9515823514064765
Cd 10.101445762437235 7.916106093993751 6.6107837860737195
Cd 4.809433529520213 6.710053648083173 6.908791307501353
Cd 7.631330607944708 5.626546908631593 6.970999779845975
Cd 15.110117302669602 8.701451745118353 7.380094542211186
Cd 5.702925779051909 11.39146577545294 7.972696489149478
Cd 11.345347903667417 4.0233024480549 8.301453816030183
Cd 13.643813420130487 11.44217629759547 8.300154833498075
Cd 1.6995522116431168 8.92538384263049 9.982546446438617
Cd 12.733530863076984 6.63220630844972 7.891786022867831
Cd 8.233783411889844 3.2108324357353846 8.530712187081512
Cd 9.913406981656548 14.553263203028509 8.02151598418586
Cd 7.30875255612641 8.671838274987955 7.510142834614401
Cd 3.5238901897785624 6.578101332279885 9.509631731339292
Cd 15.547888246293464 10.05615515051449 9.99298430383864
Cd 5.448916132099376 9.139692611982507 9.998330179605967
Cd 13.468946811072176 10.410791014915727 12.030722868075825
Cd 9.359616241201328 10.867444787429713 7.484631969205962
Cd 7.980261617772565 12.848302347416814 9.77435945717885
Cd 2.9033762667510152 11.639146133986525 9.244775156315242
Cd 11.480161235550003 9.251979019411122 9.105788332704977
Cd 9.621571778470143 6.725795980311124 9.287963405997266
Cd 2.914843625919764 10.693691527111818 12.128916736458164
Cd 6.659081761965872 6.483944351585338 9.79606475946576
Cd 5.268138943492611 12.321620761921343 11.010364680999054
Cd 12.18776802732868 5.337018524232385 10.909540519645336
Cd 6.9165722780724455 3.7187511356625875 11.103400794510138
Cd 11.061079366519358 12.337127165209495 9.759906677654584
Cd 4.351850221966194 4.863437789887134 11.78221850665855
Cd 8.579062787318039 9.641818411525602 10.138391316586862
Cd 13.837097737690982 7.689331127389177 10.47844526519648
Cd 5.6398165465734715 9.816661938942284 13.022668689352958
Cd 9.880640365488802 3.577544751258214 11.049775987869358
Cd 11.211727408086052 7.985972708504614 12.007420548541045
Cd 3.510511000025054 7.777590276646231 12.319352611455788
Cd 7.8261502325424 11.814280772004341 12.564451976314885
Cd 6.195501427669353 6.766049412627986 13.25674259318695
Cd 8.566447751217357 8.893526533680486 13.138637531216599
Cd 10.657833489954356 10.968922979630863 12.374682251909324
Cd 8.871626892929577 6.089324245791375 12.223147438903037
