55
Energy = -24.40168469 eV
Cd 9.432926703371011 6.796496055152566 5.568579475614506
Cd 10.53072223384998 9.601831864353976 4.425850820956949
Cd 5.149949899638151 9.714011780968 6.055417940340573
Cd 6.634884271499689 7.307673848758464 4.913083183294359
Cd 12.359432296075212 7.2605038658622485 4.927202692940979
Cd 7.625315667430759 9.998778421384568 4.390284080092409
Cd 9.245336457177356 12.403835557390856 3.4835287852554546
Cd 13.517754507150272 10.128244757636713 4.639507486670949
Cd 9.287048816926333 10.896873567635469 6.971881554458299
Cd 14.296179246211912 8.540666363686016 6.91953245153409
Cd 7.26171875286802 5.234902745328947 7.153441262072741
Cd 6.999428847935748 12.823946738352888 5.422648710802731
Cd 4.7318867322932245 9.324774473192964 8.948971696891494
Cd 7.747398716342989 8.515602910822402 7.783781681032961
Cd 9.675812702250461 14.18981590826295 6.029637919044301
Cd 13.07268311174031 5.110324464182526 6.8214653320898435
Cd 11.839895408256945 12.501862960444804 4.965420233309679
Cd 7.343161665690324 14.198594145318271 8.094566478251608
Cd 4.647797460429771 12.46057640757095 6.960665715270367
Cd 4.599983130966004 6.832017465875283 7.023454690938087
Cd 9.208600174576608 7.059908134342962 10.009973887098838
Cd 5.92440603410423 6.513242497071463 9.58889292186157
Cd 15.241320681331546 6.6966104487689435 8.944534123430529
Cd 10.924636154845835 8.337701653507041 7.66199268039329
Cd 12.577376448820598 11.13807167871673 7.540531761691863
Cd 10.629819457567542 13.040722528077897 8.617598326880373
Cd 10.154410585509524 4.637025900655241 7.847160881100263
Cd 12.132318101159438 6.1255874161885115 9.52076518178649
Cd 7.14068399758418 11.286107017377601 9.065273035398908
Cd 13.160511825996075 9.097094681414392 9.608692966251658
Cd 15.282733702904205 3.753650908431443 8.54133819032737
Cd 8.972803722711728 14.320576346764067 10.666433927924418
Cd 9.871768166515478 10.049116522268102 9.944312646620483
Cd 7.952834891135033 4.147547658327483 9.938300514340131
Cd 6.838193921092957 8.831520627234983 11.226638793780879
Cd 13.298942007143525 2.8130645290612595 10.455569074284798
Cd 10.612529795513922 3.6187625269010644 10.999179618463646
Cd 9.452108651295621 8.451535110893785 12.802862754768409
Cd 3.531858807138803 12.708436694020726 9.542001935991031
Cd 6.193973477557154 5.267604896257657 12.198690783137
Cd 11.527737688607383 12.381151688825717 11.3095116752869
Cd 8.160432486557168 11.535318691367763 11.901989649752387
Cd 12.16380217162441 9.560789805150488 12.2416880645711
Cd 14.668026597297601 5.459380948434032 11.620256278270842
Cd 5.955382675607431 13.815741011127127 10.855897011125336
Cd 4.613375282810467 10.863375891157311 11.546734233046934
Cd 10.427215018035668 11.209438095086583 13.974973056047897
Cd 9.189871923830454 5.321457072293235 12.944773717531925
Cd 6.9886747583449615 7.263856779786923 14.100038572156603
Cd 10.275564246519375 14.296914001563268 13.473737433099089
Cd 11.945927399891998 6.4991811323786655 12.47733886498549
Cd 7.475087820967977 10.042344135387165 14.827481824194216
Cd 5.771923961434431 12.274351311429035 13.766485186629666
Cd 7.349797497054509 14.84141417862804 13.299051197190666
Cd 8.3321821350745 12.846212075189056 15.386525935983094
