55
Energy = -24.72320999 eV
Cd 7.890412751700906 9.373355760087675 4.325182131885789
Cd 10.63589735990812 8.480499256690521 4.956149747508678
Cd 8.156779414439768 6.662267611555649 5.6474813158395945
Cd 7.004524179760409 14.707153699874285 5.0979171114432695
Cd 9.861242520412931 11.501465490570695 5.319714846441395
Cd 6.822584811170867 11.741269108617008 5.695559926124911
Cd 11.378273412541548 5.6119316810389535 4.578320598572013
Cd 12.584081783361826 10.621601478066822 5.964404655220344
Cd 6.625804817347353 4.171610487245142 6.95216929766615
Cd 6.048360059376584 8.80855919385077 6.54157265108784
Cd 9.373936435364124 3.796446601547974 5.884934825620897
Cd 9.17905324876484 9.442517219646346 7.555773212524827
Cd 13.303193155605353 7.712750499325741 6.080799804244862
Cd 7.45970121272633 15.69008520535279 8.039219884903236
Cd 4.478025914464001 6.094646696605153 6.806180855762401
Cd 5.218876052029999 13.920681233761377 7.43704272928876
Cd 8.288393491675034 12.130833851736973 8.353411413418572
Cd 10.543056596322957 6.756430436120727 7.660110831781691
Cd 4.941122974029279 11.160983816117863 8.142906784061136
Cd 7.220256763152455 9.697453926908736 9.887492568488103
Cd 7.3962202803643855 6.974013995089509 8.65992482315568
Cd 15.09932443990503 10.908476329257681 7.437269785539152
Cd 12.236374643828722 3.936175956672412 6.864089777349963
Cd 15.776342661217674 8.050217691825772 7.8159814382416375
Cd 14.748738061424502 9.400002726260116 10.220400743384506
Cd 9.655618226712862 14.223904579652357 6.4504403276457145
Cd 11.446683648315728 12.273650905771277 8.24562333248026
Cd 12.00284671340415 9.208497137774286 8.772656555201927
Cd 11.578948535489548 4.605682451679969 9.733466465836878
Cd 3.8140818191973302 8.387046432717256 8.534598977450743
Cd 14.217709824506773 12.402627618904225 9.766558335010004
Cd 9.829667336398074 14.91549068823003 9.515868243991934
Cd 6.3448153842784345 13.542579683641696 10.188939261702782
Cd 5.009845079408271 7.038951703289183 10.775383293999559
Cd 9.895428238051887 7.791901729187131 10.359060735779392
Cd 8.770081284876701 4.231540743276561 9.043805149620857
Cd 13.784197803703089 6.02657179977316 8.474863872913627
Cd 4.23162339751764 10.262139801752339 10.856944591526224
Cd 12.877327393914673 7.126680181186472 11.179893031125497
Cd 12.6190272994568 10.288986601186775 12.113529913784324
Cd 10.070643756687069 10.843486537944282 10.568743498750335
Cd 7.594888421445827 5.920808026673164 11.541798112718821
Cd 10.450018014941346 5.406493856405608 12.2982014993517
Cd 8.519464117775728 9.199339920543874 12.592682212020819
Cd 12.026612698937742 13.750372630482229 11.028944551534348
Cd 8.891992291562705 13.220348739442787 11.947426098139365
Cd 11.63257986883952 10.325490575772998 15.360556564938937
Cd 11.258316378328269 8.01678862401976 13.5553691234562
Cd 6.3284445669871285 11.684711199235306 12.496817045426251
Cd 8.711768419944809 11.50068254745838 14.482802412462322
Cd 11.417750860968065 12.67748891779896 13.662196185235246
Cd 5.5794708023025725 8.809419527580767 13.110763015046722
Cd 8.524633522206189 6.586313980267958 14.297606474681155
Cd 6.31343026030221 8.237033572300387 15.82478138909065
Cd 9.160373883066722 8.972406222647974 16.12453485994414
