51
Energy = -22.60741561 eV
Cd 7.711810609865291 6.775677075163514 0.39376646765601825
Cd 5.378064536820513 4.774710967254668 0.7638604896548384
Cd 5.008123723561854 7.460508993239427 1.811188069794178
Cd 3.0209353015343505 2.9772748504966104 1.424938847554446
Cd 2.2937633476165686 5.819363871817832 1.8016781677127631
Cd 8.272110834622302 4.084374089142217 1.3548070564814567
Cd 7.644364617956414 9.107974228994804 2.305921740496872
Cd 5.923799462258823 2.040857230255682 1.8674586190181868
Cd 4.746262620085067 10.116575340912757 3.1112236660758015
Cd 9.92555624785774 7.000192389372348 2.4472877395565464
Cd 7.183736281433275 6.354114862792074 3.710938147314925
Cd 1.4124884634683543 3.8347948307619744 3.9026963265685684
Cd 4.428573076603586 4.873929401696686 4.038613961880838
Cd 8.815151625525504 1.2229880156262947 2.0763686831630093
Cd 4.624466512343216 7.660063769895715 5.072150666074291
Cd 1.6531146210803185 6.753649842344428 4.786265597475903
Cd 3.717658861179042 1.7121946958002348 4.075994643701142
Cd 7.147972731646971 10.812444990631768 4.709514337210797
Cd 2.2892891611138353 8.702950095318837 2.146407807137251
Cd 7.062293843592717 3.583669419776086 4.4460334986376475
Cd 10.187107334968623 4.127335993361047 3.584492633639278
Cd 10.101705668524216 9.562066792215795 4.221934092234977
Cd 9.493827402887383 10.80795955462842 6.87684667679612
Cd 6.4638982321328164 0.5935601837346599 4.512510641115434
Cd 10.210478363273799 6.703487910857403 5.4483689047688015
Cd 7.648426498510674 8.131345176359472 5.977475078297291
Cd 6.464681562756282 5.507876675303339 6.750043958357713
Cd 5.154664348398988 2.7474655210133996 6.74035627747896
Cd 1.8624570343227582 9.842073915813257 4.721369221862856
Cd 3.512216018520199 5.364525794862322 6.946485930195067
Cd 2.1523762106468713 2.366025068771888 6.50513183430963
Cd 5.832891969311698 11.219066407479554 8.591449844650187
Cd 9.340608769357887 3.9730579194608593 6.570634860645847
Cd 4.257338597350917 11.161425713300202 5.966608815828787
Cd 0.16836567911405526 4.724741209586095 6.46850535143538
Cd 8.235923578527148 8.965559378300117 9.107133301117171
Cd 7.869520689006358 1.3536345434872457 7.10435690656688
Cd 5.390222590571512 8.220375759492434 7.966409269690751
Cd 9.222225278491305 6.336670771306843 8.301218768024373
Cd 9.718639813911226 1.3406350560209155 4.825508207164715
Cd 0.7831674019842416 6.6923440343038205 8.480319338744893
Cd 4.728918094352405 4.005741012581656 9.66866000948602
Cd 5.861745891869366 1.5185817264270316 11.076237519008375
Cd 3.245246339716238 1.2276370226159288 9.12564285249051
Cd 1.666659585782574 3.7764292390971583 9.13459659936268
Cd 2.50307410631305 8.840930501178503 7.417695545535127
Cd 6.534612222697935 10.991357848644864 7.7881423190845345
Cd 7.621859612324915 3.5921446957354504 9.06347251950065
Cd 3.595432230525267 6.850609482111212 9.744775670595882
Cd 6.705212388567576 6.350844295265631 9.980209131323848
Cd 1.8769702296074755 5.468729204239114 11.756303612015744
