54
Energy = -23.18619468 eV
Cd 7.3520190912807495 8.699240654749683 6.154338961692765
Cd 9.323637728110763 9.944869643551634 4.245902469951086
Cd 9.99679097468932 12.481656862744732 5.696527504558135
Cd 6.968972611646697 11.63315764042964 5.035453715894522
Cd 10.511241271251658 8.48749181917486 6.65129979335294
Cd 14.914257136167418 7.827565498676959 6.406230903444971
Cd 12.60714371228203 6.167029126141857 6.839679707452761
Cd 4.714571690767714 7.395433293563876 7.28741434972239
Cd 9.772577187115747 5.364286197706909 6.948162610492029
Cd 12.77073666928025 13.033243825884519 6.8012974802332335
Cd 10.7915220307403 11.008033861945075 8.438618832193775
Cd 5.388689536397701 13.312995272834812 7.112581900240198
Cd 7.771664356541075 14.524941952562576 5.948005121807607
Cd 12.21880508781074 10.382788885843814 4.934833120505573
Cd 4.708076804273027 10.388498410613966 6.609385497822687
Cd 14.638436663540318 10.717298892719132 6.506250945034801
Cd 7.941272385386059 11.365405499908798 7.9644751232177855
Cd 11.628532809350602 4.848446322232011 9.350067896592396
Cd 6.953513530907459 5.727284060517648 6.387093030267285
Cd 8.821687806389694 7.832756997820543 9.047164297510173
Cd 16.559840176302806 11.39094433030164 10.208438365534548
Cd 10.137166117411192 14.753153681428609 7.7402228808022535
Cd 6.069812732541691 6.179727412400644 9.668050787761194
Cd 13.635048611247226 10.622612785929528 9.245319722011756
Cd 6.617014595293997 13.565916739039858 9.880651545818747
Cd 11.787247454066062 8.033473197179484 9.389417562794137
Cd 2.696815704789948 9.357730844401772 8.53764286868197
Cd 16.396537191332584 8.887161455359792 8.753686076626947
Cd 3.1337310405052126 6.806083791918371 9.986991111626322
Cd 8.67338073670741 4.806496829992818 9.659421592393702
Cd 4.262741795989662 11.79045811087761 9.3813287501472
Cd 14.600122614475188 6.4342940958158295 9.179590261076347
Cd 12.361065887653078 13.756973053743932 9.663476186314742
Cd 4.570624248924912 5.039267308450656 12.256201465398807
Cd 13.209402638562613 5.650318497472397 11.72510032431187
Cd 9.422820134313765 13.471863228659302 10.28276126044418
Cd 8.830523306935062 10.431813206977795 10.685372863792972
Cd 7.463755326032086 5.179951762053967 12.408643483804276
Cd 11.699912205783818 10.124995758264362 11.59041601044141
Cd 3.5890228557741963 9.75446817083228 11.486070826178914
Cd 15.85081754580195 10.24263002277084 13.000897776411838
Cd 6.216269244789932 9.312167416397047 9.462828816493909
Cd 14.225479311324396 12.58012779471321 11.647134045282037
Cd 10.390677673867014 5.115657436519674 12.181968590905244
Cd 2.9488369628244913 7.32339082899045 13.023014689376355
Cd 14.224689557168922 8.40785454781194 11.35766926895217
Cd 6.024604283277765 7.962593724737837 12.32897395140581
Cd 8.568334374590403 12.487417923603333 13.026980509952345
Cd 5.932347849482288 11.467035861878204 12.063156751733299
Cd 9.159343175506606 7.854664525964841 12.155762401151708
Cd 10.477694560281336 10.273689350373516 14.298363235070594
Cd 12.043487112538553 7.683898519535318 13.501239038511427
Cd 11.423785311899138 12.983656226521024 12.557340228889608
Cd 7.643789067530655 9.765977328912145 13.941973977370914
