5
Energy = -0.86293821 eV
Cd 7.056066799999951 6.408979000000034 8.220987000000058
Cd 3.823227799999935 5.8290660000000205 7.319738000000073
Cd 6.547528799999978 5.029274999999986 5.4553440000000855
Cd 9.174139799999956 7.163944999999961 5.674339000000025
Cd 5.899036799999992 8.068735000000073 5.829592000000095
