50
Energy = -22.24588843 eV
Cd 4.527010380066184 7.0886299603059495 0.127659306061532
Cd 6.832568099421531 1.7886197301312197 10.171341029786852
Cd 7.251713203917633 8.392974981901942 0.8580668420669326
Cd 6.851496804561276 2.445437642394244 0.2111839501163723
Cd 7.446204640588286 5.454233059194876 0.7160433487838874
Cd 1.9037813185049284 5.776753790115852 0.7991098826783816
Cd 1.9929958552383924 2.80757139854279 1.0915310632812665
Cd 4.603795281040897 4.195608841566128 0.9114840294189571
Cd 4.43872460330752 1.3803387611158744 2.268186541508738
Cd 4.71232535292602 10.121125148404749 12.835264314316474
Cd 7.489419488735223 0.804023924147093 2.5556978425635175
Cd 8.230370695480897 8.994597837826694 3.5418550354392933
Cd 9.419688208756776 3.285907397545215 1.4981873216874242
Cd 8.815035973846967 5.857476720565636 3.4020303855740717
Cd 1.75695994394767 1.9425224754013142 3.874413549173812
Cd 0.072829233023784 4.4404950076725225 2.7829504330061487
Cd 2.5536351674844755 7.869657871265237 2.704145925616064
Cd 6.310118781409329 3.7237337702073527 3.5264462402172807
Cd 5.5224528912234545 6.5883640265920365 3.212179413706567
Cd 2.425978971298949 11.858302677272901 4.002035396675836
Cd 5.38200694986728 12.15413339516655 4.284504595643109
Cd 2.8386244768789295 9.932506394208975 4.841491201636898
Cd 3.2570560074752244 4.727289990719904 3.7509878044971727
Cd 7.911945914699291 0.2966338264091483 5.4404566173509945
Cd 5.097606773630301 9.688706235876838 2.8763416273432996
Cd 3.9795654356276726 7.032116107639234 5.79745748926791
Cd 1.2870158556536824 1.095731671581092 6.678988838340727
Cd 9.130550530749485 2.897030319216784 4.395011489632451
Cd 0.7404861763248549 6.670505633628756 4.709644587667391
Cd 3.4750834920457216 12.02426767556525 6.815212089251569
Cd 5.978995787466782 4.765883341661849 6.233005962407769
Cd 3.751814730734602 9.971184568541169 7.718506945393674
Cd 0.03510168057097985 3.7427841978414302 5.663862165332428
Cd 5.933111831286346 9.539948266958485 5.678912302981824
Cd 4.470690367857624 2.215386178636171 5.318787680092838
Cd 1.0880788686415988 8.726482624311426 6.933083580217361
Cd 7.796821960964366 7.254852223817468 5.934238362529716
Cd 0.5736927411080731 5.941510326200537 7.779483586031641
Cd 9.693107896987497 5.059734276279006 6.369343968773314
Cd 3.0413472263544654 4.390516467511235 6.738254162607726
Cd 8.091481196446956 2.7076761206136872 7.197408650512166
Cd 0.2196106651616157 3.0406319261551213 8.667993724101526
Cd 3.411085046540873 2.020868948445435 8.660890454252803
Cd 5.878856360750723 0.6657498755134412 7.542853160080576
Cd 5.998435197285756 7.982204827536782 8.311135290296297
Cd 2.8704610651167513 7.431201511133721 9.091692498974155
Cd 7.904115111295722 5.590154899429765 8.708252852019458
Cd 2.2115579839165056 4.544197009234155 10.171341029786852
Cd 6.327927088414438 2.8233193826502285 9.575362100924302
Cd 4.925255548734653 5.331630475864464 9.232690765173992
