50
Energy = -21.79881945 eV
Cd 8.142761387415991 7.11560354092548 1.0368793266954348
Cd 5.241473646612229 6.753228723069118 2.059825302011102
Cd 6.913685765938538 4.257608630855369 1.667548979790672
Cd 10.685930686438514 5.890619763403837 2.0928344692605263
Cd 7.18421774593649 8.903909241747012 3.471589358648385
Cd 4.242961347719836 8.710501507945432 4.107757459826818
Cd 10.100896970386351 8.887788715933556 2.5457969008832424
Cd 9.580364649365121 3.2709307163557595 2.849279538262513
Cd 2.610531558406805 6.199830458451074 3.614498202940412
Cd 4.309275451817412 3.6655316876063733 2.7723622266276897
Cd 12.812501944299326 7.334962610677564 3.519350179968689
Cd 7.117584123007387 3.005881929499938 4.557032038417959
Cd 8.092606890981534 6.059745084447706 4.039439774554034
Cd 5.325383204009808 5.624239928635035 5.115009724391915
Cd 11.93850349266271 10.083165150044996 4.564136798192111
Cd 9.039364347009661 10.340276128904348 5.493818126472677
Cd 11.322360354164486 4.607219260161458 4.875442945626326
Cd 1.8558166387356663 3.215594946009589 4.277357907241643
Cd 6.0468581002506445 10.396893382917911 5.853931216330536
Cd 1.700880819652019 8.39578093654774 5.610895622349136
Cd 0.4409803199719387 5.4833454283023775 5.52221286859318
Cd 13.513406249127963 6.414161629577755 6.287529183069844
Cd 4.424074695626896 2.568642771145723 5.711363710873308
Cd 8.662113120545472 4.735241186484477 6.643377957497705
Cd 10.227700083541919 7.477926762381452 5.803192465553156
Cd 11.374145529036227 5.321858496912682 7.970634919583164
Cd 7.070108315182675 2.3543800721888815 7.520916300626239
Cd 13.513406249127964 4.447437544493311 8.189575997205168
Cd 7.388162033441272 7.630178195026511 6.697407908319543
Cd 0.035038345105495666 7.3496842789120524 7.798748804453168
Cd 4.452732996826587 7.801290878940371 7.081045207582666
Cd 1.4791997528869298 2.245031623080286 7.058116994271653
Cd 3.1925641888251155 10.942965418429868 6.353868351392895
Cd 7.7836536946306705 11.083180769163855 8.165520333978558
Cd 3.173798252768536 5.132358636442056 7.269200661440835
Cd 6.009689135137452 5.280254050473822 8.106242567076714
Cd 10.164116667213873 9.396484555652451 8.431148353788805
Cd 12.84096898405599 9.14351781910295 7.231654478494249
Cd 4.8612880316595755 10.617386283405676 8.905366560246462
Cd 9.093272339394623 3.9000172792744277 9.47946877870617
Cd 6.671335190844485 2.6919792619789944 10.528517122344672
Cd 7.090333985850244 8.558588619846141 9.557080735532155
Cd 4.313138246304654 2.3874519407868195 8.668777848709528
Cd 1.8292471913896386 6.310549620332435 9.82895277681013
Cd 2.205581379804771 9.280580837141782 8.723036136131865
Cd 1.7414111918644612 3.3183743705637685 9.859953333577431
Cd 4.465849317371939 7.545561790562867 10.225871346569411
Cd 9.55821531479984 6.872681595804573 9.749504311387007
Cd 4.287033282393503 4.523526392829401 10.88290934827955
Cd 7.027052226679441 5.766112437266816 10.924081430054704
