53
Energy = -24.28506481 eV
Cd 6.439837605397108 3.713536293150188 0.3623937057453069
Cd 4.8235410137679535 6.042821254590628 1.4136966870370644
Cd 6.042666231496621 8.843969759400704 0.8034527798576966
Cd 4.171438804745229 3.224357226160204 2.4087579822598033
Cd 7.79360331950234 6.180442734650321 1.2814322816144788
Cd 6.7306062617577025 1.5597175209593244 2.2759853993791364
Cd 3.2073070998105475 8.30641759643837 2.573816610255613
Cd 9.037842582228162 3.5579365296181056 2.252404933206873
Cd 8.919600234179832 8.816658101162277 1.956129536944062
Cd 6.602128842920544 4.571707245143941 3.969370241063948
Cd 2.306244943276738 5.491517168054259 2.9242592601239368
Cd 10.386218449953747 6.232988453660652 2.7918474360132493
Cd 6.486081405419504 7.6673773070311695 3.842465781368551
Cd 5.175344858257624 10.506655695101369 3.1225578606740334
Cd 5.034939875557691 1.7556928608184779 4.8688788213128715
Cd 8.270258286515846 1.7808920137206843 4.80473822192063
Cd 10.419165002337534 3.779267800126308 4.97194926423159
Cd 3.5772078381223102 9.228408170564114 5.389965286527841
Cd 1.4372150581887106 7.015571342757195 5.183702649135623
Cd 10.387498795708527 8.818188750440436 4.629700385764135
Cd 8.578310153597236 6.368255364370174 5.528229090583639
Cd 8.02171911782903 10.593546185326229 4.102669426883424
Cd 4.4962155864134905 6.107059680368782 5.482951404818046
Cd 11.913142556009054 6.304814035141624 5.302489659752857
Cd 2.5653530829286755 3.4882169140988086 5.060524880104155
Cd 6.490615393999397 8.26762510791246 6.714694293331557
Cd 6.666524913810759 4.5086799181157 6.934111621067949
Cd 5.833520552574385 11.361750975414376 5.885022454227827
Cd 8.971633934136408 10.171970778887019 6.881921283733245
Cd 2.1203514125065257 8.002923156293456 7.808884306737166
Cd 9.170131434052946 2.6397354202195116 7.5343863417835175
Cd 4.747944496369482 6.465215459127574 8.43865098551943
Cd 8.383887608079002 6.573736206273968 8.516779017146568
Cd 6.616990723631777 1.123960043970054 7.223268980039776
Cd 4.0615281218766865 2.8162504443866783 7.5638769252872855
Cd 10.977486359394758 7.99844332496128 7.523459864493105
Cd 9.38508014965731 9.134567359885102 9.73995916162497
Cd 2.043395751929676 5.033317267198911 7.578720365017691
Cd 6.9856714072482 11.431277755739229 8.648628740704016
Cd 4.264032560945062 10.158019253733341 8.154973741357239
Cd 10.953476790102732 4.9751764863726775 7.795264942728838
Cd 6.440074192232975 2.770582970429844 9.618105862165798
Cd 6.629748628607315 11.778828290264565 11.5155795446748
Cd 3.3466397118700795 8.405164255794592 10.457394970011938
Cd 6.401791433108136 8.570647309867004 9.910707251445334
Cd 3.639793487781305 4.27239199341268 10.151757000292859
Cd 9.306153505894342 6.65823788226054 11.93778883059541
Cd 8.401644653320169 9.60220907111612 12.541504020767837
Cd 4.789842698232843 9.758516722764218 12.676223802364646
Cd 9.205271842528298 4.14763861488887 10.128662951663072
Cd 6.516360438728383 5.488907343483507 10.752495645701043
Cd 3.8768964231030205 6.162190921216354 12.448143966019632
Cd 6.546992272701196 7.3629875675016585 13.211631447261551
