52
Energy = -23.30946278 eV
Cd 6.888132976024373 6.6457867672215105 0.6572261893352505
Cd 5.342837810323098 4.33188175482995 1.6635940703962753
Cd 4.3358794280737785 7.360616212211437 2.1475609854174795
Cd 9.395299036380404 7.089249577475974 2.2805922483823844
Cd 7.023149966546508 9.174755420554341 2.1838414436151257
Cd 8.539055964054736 4.263022331868951 1.3426667602303948
Cd 4.332717252012533 2.476345980885037 3.6178268249544896
Cd 4.390523118303582 10.1976870852407 3.1916981829590103
Cd 11.52338692272475 7.472996853719058 4.328369172646957
Cd 6.924979926929834 5.95688290495293 3.992090721785567
Cd 3.5248730551149015 5.4097176865198815 4.257269947732147
Cd 2.8251103675743137 8.388452362891746 4.864063363014408
Cd 9.294812280704756 9.45984984222663 4.138719195373085
Cd 9.948349997798958 4.612764115045616 4.06402066881776
Cd 7.381992240199863 2.8040443198539267 3.7737033350849987
Cd 6.921390387313291 11.191266486512852 4.61609601639013
Cd 5.7987679356114805 4.440410736333148 6.188432657376661
Cd 5.753142904108112 1.330746828163176 6.03310148437745
Cd 2.9250590543963195 2.9954168212962133 6.09613120933
Cd 5.928701430185342 8.31561682839544 5.369229024728593
Cd 1.2954417670567726 6.188131397240583 6.246499228501271
Cd 8.751441411775838 0.8471574742772702 5.605955434330308
Cd 3.6962060651125226 12.198928418554946 5.315646612642021
Cd 11.1967135851051 8.302443487577445 7.207128989518793
Cd 8.531653306719988 7.077478906854632 6.247975204572792
Cd 11.844849755918773 5.351542981481564 6.340740088007407
Cd 3.7969637539508803 9.717833758354514 7.383957972755333
Cd 11.298331441633682 2.3796091809085023 5.718997338867831
Cd 8.996875966416834 10.321032179699415 6.9575891972564925
Cd 6.18285451008917 11.746038965375394 7.437114288012966
Cd 4.261001555685193 6.708273486668307 7.350461344570632
Cd 2.1833710294295265 4.413860342535334 8.52728795780941
Cd 1.2575474486020024 11.910388978177814 7.088088644950609
Cd 8.738458641232862 4.051263941307191 6.846914367961885
Cd 6.696372546040658 8.84939661237882 8.233234366541359
Cd 0.7458747078744544 9.075831232173066 7.0693105968702525
Cd 6.946519613953723 5.841527615499055 8.55361892100958
Cd 7.3519684269529275 1.788320387637031 8.544896121463891
Cd 3.468966257134387 12.519667554935804 8.966497489721496
Cd 11.953260997707986 3.3509804304355146 8.570357047909688
Cd 10.21233795779758 0.9473943342345383 8.239524537410373
Cd 10.30048900473374 5.889282147658402 8.90847230492449
Cd 4.675875992379879 2.949215222367364 8.688226310767282
Cd 1.3010637626523884 7.12224867574247 9.224663538997628
Cd 5.543033730674277 10.965077673068455 10.401724686044155
Cd 9.314669176628625 8.574849266668304 9.665234167555402
Cd 3.566642345181841 8.639943651488784 10.225443135366756
Cd 9.4599834386697 3.2397976643516877 10.279966648681743
Cd 4.282577326419773 5.662575425958616 10.358633117179577
Cd 6.591234155240828 3.761688869718882 10.869137133791568
Cd 8.544477581206749 6.038569689774282 11.34273355622591
Cd 6.35817324243853 7.9955316874942035 11.121128704631214
