53
Energy = -23.11108224 eV
Cd 4.716122257768592 6.013071188476605 0.4419163055497799
Cd 7.295433459796428 7.14390015866151 1.6471809733696468
Cd 2.055555511142322 7.017675285847402 1.6735901559587292
Cd 6.4120891430759315 3.5874611596792856 0.20816298109358317
Cd 3.3992338599260647 3.3164669739575703 0.1348997955089269
Cd 5.319626941387098 0.9902360661468782 1.2061247412353948
Cd 6.804356585644908 9.750546331144816 3.1425062042505423
Cd 4.5268518226635415 8.695684114132836 1.442485207663114
Cd 8.726977982447737 4.604848661417677 1.7293109639168316
Cd 1.1807216823511517 4.079408987572817 2.1110534980161453
Cd 6.94262109491398 5.319782214149581 4.198630542825104
Cd 8.54272086406279 1.6000303137185377 1.6734142395198364
Cd 4.165823462669675 4.67606087907242 3.154446128990704
Cd 2.3687995685618635 1.2940786792971364 2.090955559477124
Cd 8.50228553560267 7.842284834836984 4.576316975711689
Cd 1.9563750966019564 8.964913660690186 3.9897381381473123
Cd 5.947744285053556 2.4658009187481005 3.7946241291927416
Cd 6.493487903021004 11.990753155194907 5.176437958702224
Cd 7.145160086064026 12.343844040034728 3.0284026748062813
Cd 4.729333668862234 7.33137924807051 4.177652212179808
Cd 8.5157356415557 0.24933347315497204 5.412602697714845
Cd 9.31304608096354 10.791209861031914 4.689959031323019
Cd 4.088051662502416 11.007629447499804 3.251548274268982
Cd 2.474356918536973 12.183414900916404 5.530132025250423
Cd 9.013027717305135 3.1060415303326017 4.389267507206846
Cd 2.89602721964867 2.353366327447817 4.734404704662412
Cd 5.8381561319955555 9.09319546144682 6.222169541620795
Cd 5.302636945018432 0.4967406931036466 5.99896178175329
Cd 4.180939398629773 11.990753155194907 3.1944472776172512
Cd 1.327594182585064 5.953561102654981 4.486236374314524
Cd 3.024723335239867 10.916225425165994 6.0699673556234925
Cd 2.2747328221049665 1.3459168943491897 7.605482783292675
Cd 9.67008803160543 5.584601174455402 6.097907030154237
Cd 0.7822651383584447 3.7304992633580705 6.5216588607727655
Cd 6.274744446753145 3.455366159753821 6.748461819563722
Cd 7.395145390757817 0.46567993026803184 8.109106811681004
Cd 5.19886009481266 11.888762605675154 7.837077948976199
Cd 2.960472637771126 7.887303914150525 6.720465984061501
Cd 8.446706209012676 8.016117626769546 7.687646440409589
Cd 8.326716054789639 11.007074480380725 7.5531919521862845
Cd 5.885167408571287 6.332881999727578 7.315816974313772
Cd 1.0634737348781245 6.122439241612513 8.25286032012256
Cd 3.6957696984701354 4.808858503395987 6.216130731927318
Cd 9.262437890808224 2.733694719339173 7.260734580410751
Cd 4.829619527365323 1.702496299523873 9.060439250734596
Cd 2.7416490353458207 3.883348606634405 9.126958353152967
Cd 3.1986236981096843 10.066740257940003 9.1014697583984
Cd 8.665616351764484 5.274944720629829 8.918104605714305
Cd 7.666333030679226 2.7140561065265647 9.97991985449694
Cd 6.2360892324005075 9.663603333775397 9.459274819264145
Cd 3.674689927356335 7.01509349260056 9.59469554639435
Cd 6.736935549295306 7.023969960989669 10.427429515362059
Cd 5.349535749026606 4.469648101802857 10.368907806772524
