54
Energy = -22.94726206 eV
Cd 3.4416175693188547 6.40351504688854 2.703282170475514
Cd 8.705691002170797 6.027487481128047 3.4620477438369703
Cd 6.194211530366469 6.428658902976449 1.6328804102055055
Cd 10.450904538318243 8.504461755039417 3.5275575743618743
Cd 7.834264451427643 8.937374717123372 1.9721993227915713
Cd 11.008007319504348 6.1400440735250355 5.3853040880155705
Cd 3.5364178082890163 4.7493840793731374 5.2455856910868945
Cd 3.1436215052093335 8.122422066368939 5.435630715567968
Cd 8.460408434979692 10.720018465972332 4.258168400491604
Cd 6.342605069791781 4.76355882449013 4.557683699213509
Cd 10.257121439904703 13.098836999069375 5.2021400915938
Cd 5.507297177359528 6.902265820653635 7.133651207288887
Cd 4.610442119281908 12.925247159136577 7.620033591478033
Cd 11.97419995341995 11.039805663939884 4.153708725416558
Cd 5.96188940742586 8.02580287916691 4.2705950698509785
Cd 8.377701364539353 8.160736654207065 6.055914091636827
Cd 5.6649782656059875 10.196296869953263 6.185298823127193
Cd 15.428991680270181 6.126619185952392 5.999809466538693
Cd 1.323237421248168 5.933282952669642 6.754730366628529
Cd 13.465576332197916 6.072805908099182 7.0777424958925605
Cd 2.7378746853595386 10.701459446797362 7.276037802060186
Cd 12.807470319619412 8.653028597185534 5.624583933216406
Cd 10.574943567486953 8.114585168882993 7.961091562711245
Cd 11.282321401827465 11.026080362800261 7.354453861789638
Cd 7.65089165089995 7.45101391803711 9.149401574318157
Cd 2.481763519754522 7.991152780135007 8.489314355896841
Cd 9.803452222006387 14.204546299338144 7.832684936899039
Cd 8.582081028175281 5.059956452625445 6.6948101006241
Cd 7.361270838939435 12.656835572502729 6.214428424958459
Cd 6.036374081657401 3.7669005018066413 7.401542823404206
Cd 3.3285566913212468 4.62860407783645 8.37768507970174
Cd 10.93705284647007 4.9419466739439395 8.412579255495736
Cd 13.876178069295788 8.72241730005677 8.411152828646141
Cd 8.08975103689076 10.338171238886066 8.180194259446795
Cd 4.662488360393935 6.796606541758619 10.147330990945628
Cd 13.216773619350187 5.977596104545087 10.026829490204474
Cd 5.096173048256397 9.627223523688457 9.085449655189818
Cd 11.852815428394978 9.837965720628144 10.34687788806141
Cd 8.328823867511836 4.482100935467262 9.798323741831382
Cd 10.303930201738517 6.971779108904379 10.720308142609516
Cd 10.044677984439112 12.147011536402308 9.943756245655283
Cd 15.428991680270178 9.544014215992144 10.867668054955544
Cd 7.1950519975711345 13.375618763902832 9.124668722137022
Cd 8.860442258010728 9.638688088288506 11.16122688957705
Cd 5.394355019849699 3.7194750824339033 10.25993963880829
Cd 6.534151641022986 5.684422513483819 12.184971809914254
Cd 9.31637430724238 4.833914604738713 12.648891951259648
Cd 6.159343316438925 11.520193523749143 11.050287911323954
Cd 12.317137244767059 5.045887914313218 12.740239041506907
Cd 13.294436411275518 8.01410132576751 12.310269673860379
Cd 8.406232709855992 7.622456673054382 13.558084255587907
Cd 10.072560729105934 5.236192526835384 15.632284037500664
Cd 6.045691578077667 8.73908347158044 12.066739992568529
Cd 11.24519514180003 7.703536238551069 14.365119632488277
