55
Energy = -24.01092972 eV
Cd 7.195038199232517 8.110242417377808 4.409005393043417
Cd 8.8962872299626 9.986737968526453 2.9099251317841883
Cd 7.096951531726482 11.23962501372109 5.153965792555975
Cd 11.822146026500377 10.119566559955688 3.225399310947918
Cd 10.088206023467933 11.770015981013966 5.18332837662557
Cd 5.797557673693933 6.533950622798176 6.558528630267432
Cd 8.0458951898709 13.788541561813094 6.285054330842604
Cd 5.109632411174331 9.369358166881918 6.463219020020778
Cd 10.422576983192114 6.845356155267698 7.361381263069298
Cd 11.933394191807063 9.294563993260779 6.110007089753017
Cd 13.449978931388362 5.385756649884787 6.072467400208728
Cd 8.841954491855034 9.246277469579946 6.793977587678817
Cd 10.288613435556442 7.4989158154394975 4.114947239355392
Cd 11.393055993799331 12.17729227486056 7.830554858453368
Cd 8.355965387566338 5.499314751128527 5.535806967756648
Cd 13.991498466402865 10.07555653392008 8.07993838548058
Cd 11.145430798728507 4.604223334880273 4.36868802736612
Cd 6.457707121806987 14.671624589658936 8.609918835793385
Cd 6.720751361457145 8.477844838267663 8.900291634225393
Cd 8.303305285951245 11.408822628714079 8.670096842224817
Cd 10.793600667665492 9.577312066912915 9.216514209019735
Cd 13.196444956828032 7.203192471912498 8.434587177849226
Cd 10.199918139959323 3.5762395276318517 7.080667895380558
Cd 5.4054857736400885 11.881126756905315 7.812856075300204
Cd 9.475802097377391 14.279966755416424 8.869909711685924
Cd 10.726624517874411 6.629626856728403 10.270941158287727
Cd 7.476231178362142 13.867692572494269 11.332921802442467
Cd 9.746039131486738 3.4794113679836256 9.959730759885895
Cd 10.193537333357682 15.45925110606824 11.458304518755321
Cd 13.593644800005423 6.010439742850432 11.233795252116126
Cd 14.611808402386778 12.846948359957638 8.373794588937182
Cd 7.801654486377716 5.621651336316516 8.633281446937154
Cd 12.446498792857739 14.163525987620536 9.945211892810656
Cd 4.446315697194141 13.204756255017587 10.281393787425154
Cd 14.266644025495898 8.981789682129536 10.819048170680736
Cd 12.61430154450865 11.401998857826031 11.123772183848969
Cd 9.636450611020805 11.743346408074965 11.382614472962416
Cd 5.200904913971923 8.027986971777233 11.363997460001334
Cd 7.9029838359615425 5.919491704068995 11.560376717140102
Cd 10.65458148928039 4.413316022460356 12.561157226109122
Cd 11.465744091639705 8.850705640772253 12.206432461800388
Cd 14.935759035148356 7.726722630716678 13.404083995299631
Cd 6.419818069279977 10.915235592393845 10.986327587826885
Cd 8.640998796567732 8.858546541939072 11.235661049153762
Cd 12.136196308276057 13.819711917059214 12.985010748742173
Cd 9.217232422212561 14.01301784615023 13.911852595765302
Cd 3.7612531685801156 12.4487721064557 13.018859278171476
Cd 9.550566106631557 7.145699713061739 14.050849997298709
Cd 10.981232739570286 11.386191891027474 14.20746922809358
Cd 6.682198701757045 12.633818002510047 14.118686801694317
Cd 5.3390702406732125 9.986746510521455 13.800928147654252
Cd 12.37359677615999 6.278208952908589 13.971373949647932
Cd 12.858895555995725 9.273509824224345 14.913704953951665
Cd 6.617256337179564 7.333086360349597 13.900994951418818
Cd 8.397484584257855 10.060090397491363 14.059107693137616
