54
Energy = -23.82483187 eV
Cd 5.757220782733016 11.068327591041854 2.524339021235296
Cd 12.26338884083998 10.153564065567995 5.068702943199272
Cd 5.580404717169102 8.455084196505322 3.6900963213120277
Cd 9.581292856289158 9.974058862413948 3.7245282077977877
Cd 10.514012116228093 12.660904818611678 5.376429206908591
Cd 10.422187179327448 7.619321913100532 5.395697944344936
Cd 7.687569055633343 6.764929329094425 4.746525326772775
Cd 5.277390124349448 12.410306936140422 5.102466677820724
Cd 8.031715591038589 12.51199215078661 3.7997588126144146
Cd 7.3871735395305995 9.80925518136706 5.844306664099763
Cd 13.743953491567856 7.515740169887021 5.517308369763536
Cd 4.336602502800943 9.602354282766523 6.346396451605652
Cd 6.468593466464592 4.522986456270718 6.282176837179867
Cd 4.642401531136601 12.210323896538181 7.922919518302558
Cd 11.95477327300972 5.06458075964807 6.100138418411154
Cd 16.053221045616272 7.797485298909638 7.595499520621175
Cd 12.374129513499792 12.18708850180962 7.788414302545191
Cd 9.971061780824527 10.106308529838916 7.304186749708225
Cd 12.337500605269048 3.0846660570808733 8.479737487832962
Cd 12.081328219676656 8.142293535572167 8.05191869023695
Cd 4.371177492826084 6.688266970537236 5.722801951009612
Cd 14.401143000467824 10.13995221836203 7.201259076651553
Cd 7.71238409750124 12.729215253615246 6.990088358104059
Cd 7.386174875749569 10.409430791985505 8.936536807320042
Cd 9.207907163485787 5.482575887939125 7.226240600459918
Cd 10.217626640530584 14.023666008624359 8.216659974841528
Cd 12.065677054671367 6.066455605355016 10.33844602966778
Cd 9.54762342517703 7.860371903560955 9.420618975669363
Cd 4.206886374102209 5.330707233278322 8.34143722370868
Cd 9.875862802336568 4.088678456869365 9.845008734708037
Cd 7.001558218611679 4.688306557411258 9.309653601619113
Cd 14.10365905105013 5.607070860371158 8.14525039543086
Cd 6.801382615353616 7.643427037465143 7.823222059612204
Cd 7.029431699228752 7.382818682889231 10.789694110088332
Cd 5.194036671381341 12.37703862527959 10.711274065320032
Cd 4.481052022894265 9.41286533742729 9.31512456753161
Cd 8.043908375153038 13.219487232359056 10.026094873459744
Cd 10.427620702850541 11.019730759201703 10.207219874565576
Cd 6.335461197931686 12.11687891071541 13.314604775893821
Cd 13.33727202297335 10.441871158770967 10.080029006959583
Cd 8.074074554086906 10.054480921038383 11.731292669345146
Cd 7.897165233091038 4.059168354259858 12.17969349118036
Cd 3.9331934033592115 6.860304625147076 10.813322221566066
Cd 9.779465300274014 6.317584515357401 12.221134880035672
Cd 11.836619231403441 8.624760833092711 11.97788841365903
Cd 14.625745935400749 7.798321040040651 10.232568472109326
Cd 5.062886313037413 9.375542736611646 12.229294668723384
Cd 9.401531644063326 13.064154449588807 12.560919014901414
Cd 5.023187373792104 4.582766920879543 12.300265095489525
Cd 8.584311823872811 11.549195838552707 15.133816791694244
Cd 6.762629128945539 6.643734498055777 13.73879415580222
Cd 6.535561962821674 9.380686563264081 14.892630577758231
Cd 11.15016807314719 10.973044875760808 13.579149003618932
Cd 9.361794981309464 8.567966499268161 14.028518705068308
