55
Energy = -24.00001848 eV
Cd 10.807580003872403 8.984459841980822 2.476777037985172
Cd 13.560272734036191 8.79858116672487 3.3426451107374517
Cd 9.743519305682204 7.2770323203363265 4.656723266268228
Cd 8.77314064891388 10.228892161648378 4.2404824418936755
Cd 12.432040016607973 7.279313625820921 5.840488002211799
Cd 14.143220252644161 9.924846552701409 5.913046641868512
Cd 11.904672002048851 11.359282894147379 4.366490882317594
Cd 6.092949336993682 4.996390774044292 4.410138386793022
Cd 8.701243041845595 4.729492741720807 5.671552250759191
Cd 4.937548865117928 9.288132988277267 7.711543517312115
Cd 7.473100919050182 8.179372224891722 6.31363356942581
Cd 9.734515989665885 12.610841333862426 5.918029876129184
Cd 10.559826801737303 9.628880788194492 6.810081136919927
Cd 6.877749526253016 11.221018382265138 6.308013088579587
Cd 13.435013666612996 5.6894673613683135 8.067050901711461
Cd 8.29767931908739 14.879709181652482 7.111310844823885
Cd 4.712234556943294 6.746462422344332 6.237919810094752
Cd 13.906881307155295 8.684195533958405 8.550171964160716
Cd 5.406607542542791 13.773801952673136 6.753567353318538
Cd 12.66659419946192 11.7496437146557 7.77827501868208
Cd 7.541063794247669 5.808237001436656 8.261186501637134
Cd 10.368018793592636 7.234242790229655 8.507140053943383
Cd 5.646945809813856 11.1797950161935 9.779552422330456
Cd 10.734190611773101 4.257068413942735 7.623481971609618
Cd 8.833736616760444 11.586995344794696 8.77991189206159
Cd 10.932617362369081 14.013206360915063 8.416215549496894
Cd 6.768118611671132 13.90062943856118 9.591818182416544
Cd 12.696217306629263 7.1298578251177664 10.736413351152866
Cd 9.374046931799732 4.9585584957768685 10.43833375662939
Cd 7.72312067266799 8.78946190697659 9.330691881372914
Cd 14.624394486438112 11.140193091250824 10.15240335819055
Cd 12.273777501718422 4.063364984353627 10.164366769048247
Cd 4.6687660760818135 6.40622351612071 9.118298092846382
Cd 11.220640147619932 9.933871389332097 9.843918444527409
Cd 10.13148151815283 12.742589664216103 11.326632713326761
Cd 4.282298129640947 8.658545049048339 10.90053156437961
Cd 6.679245226782045 6.49379265639375 11.280662441929824
Cd 6.027099574370757 12.711738151704898 12.335335354152205
Cd 9.219973019089755 16.040793515499587 9.779002275181545
Cd 11.442692845736373 5.276178131148893 12.728267880258183
Cd 12.955858547959515 13.445057289518875 10.72496470565736
Cd 8.108843579604258 10.434278648329672 11.813314429945661
Cd 9.750307193540321 7.9243559247521045 11.532125537192414
Cd 12.271619448152956 10.981258152339725 12.58164195250453
Cd 8.147111947357972 14.839469239386986 12.245596100427687
Cd 14.805362499083165 8.995368776450583 12.090687145127939
Cd 12.473502327088736 8.118250157397275 13.628382297541064
Cd 5.255441422959699 9.810680420816295 13.336300025759016
Cd 5.69276273667551 12.084129985629765 15.237163767946798
Cd 10.020386647399464 9.820087941066516 14.237932870572921
Cd 8.397512599001093 5.070971941490064 13.312148647435711
Cd 10.158447340742168 6.783791290273516 14.95321486674435
Cd 7.465574085838395 7.927694394369574 13.820720958363665
Cd 8.688004984406115 12.533686433604856 14.077266608964184
Cd 7.590689658663816 10.012018789995013 15.97269461903538
