50
Energy = -21.91107164 eV
Cd 10.650778767528285 5.480636237218148 7.036108818165513
Cd 7.671574246968329 5.494178433310169 10.258879844030064
Cd 7.699476090129944 5.506102980374638 7.27893272566186
Cd 7.087669414869407 7.0224150300350745 4.804709960120181
Cd 7.7370109991423455 9.584023118929377 6.581097298092765
Cd 8.918362672618649 7.867321284771158 8.729106645121309
Cd 10.17387461847351 8.127903210090103 5.708118971091095
Cd 6.837942286969389 10.282530857200216 3.8645483215295573
Cd 4.302641895782527 8.235689045334642 4.668118194570653
Cd 3.4284264247461285 7.798982607401975 1.5296923268757254
Cd 4.148069813235805 10.553029103446358 2.5654263664292296
Cd 2.6210740789463176 11.949712871982923 4.620655658611523
Cd 4.947733040280442 10.489811030982626 6.6150146716409015
Cd 6.211269917487686 9.311618183793069 9.18894125596388
Cd 5.188927179659363 7.012707222458518 7.282680234542166
Cd 2.08238820564244 9.634889097080528 6.402717154352217
Cd 1.3586355698574426 8.05342264888383 3.9562617283594355
Cd 3.1798701896732684 8.69244921174779 9.021353183416833
Cd 2.7798279460731665 5.490848293922943 9.306443074300109
Cd 5.076871262776918 4.015632464360113 10.562609615404556
Cd 5.073026084158276 6.974378099048035 10.567786333060535
Cd 1.013540269435457 3.9093422828961653 7.463626840746452
Cd 1.0219532513144955 7.075569758880742 7.460522939135654
Cd 0.11407085372360008 5.490011038552605 5.07201741900137
Cd 3.179723315900069 5.485804031358523 5.7710555970279716
Cd 7.112423498700829 3.9840916865917406 4.796667584672929
Cd 4.936771129445197 5.492193235466812 3.445169992419744
Cd 6.84444136122297 0.7112890564859085 3.855100799968538
Cd 4.149524445005508 0.43485604531199334 2.5573832861705017
Cd 1.3709273188915052 2.933898391472712 3.9438535507363564
Cd 3.4305044622295364 3.189293515914844 1.52574812290012
Cd 9.180921570837908 8.424924496844568 2.885728221586965
Cd 6.443813457533371 2.884929642200233 1.6100354756095703
Cd 10.139520822407114 5.493057512455257 3.903693177851739
Cd 5.1467816856790245 5.4945350285846315 0.4197252197760169
Cd 6.436724880478027 8.107409555761127 1.6141065881537737
Cd 2.654879526905027 11.949712871982923 4.628662830853251
Cd 2.0821799303821034 1.3591028105793852 6.386405950564463
Cd 4.943098429337036 0.49117170341120736 6.624228793445027
Cd 1.8496502530309915 5.495992765046913 2.484285761486955
Cd 10.174279858474504 2.8406987003394213 5.694005288239889
Cd 9.199282418562277 2.5532387575262163 2.862556317309362
Cd 8.002576322361623 5.497929177593397 1.842093551811054
Cd 12.409620242728169 5.409969106284016 1.7980075412596568
Cd 5.206809201238656 3.976842724925608 7.274137990993602
Cd 3.191488464262588 2.2995274671597965 9.000070244186425
Cd 4.323761933358879 2.7461795360939982 4.664525379026522
Cd 6.2238972969540205 1.6818635394342432 9.188977856495596
Cd 7.727133229562387 1.4100349495320483 6.574313648944717
Cd 8.924570874479945 3.1309799545514423 8.71441279729398
