51
Energy = -23.08517937 eV
Cd 2.7927066171434882 3.2309418663534446 0.4390558751038057
Cd 7.828480033315541 6.588573519608838 1.5051315065781778
Cd 5.779689377573884 3.0685570714325068 0.6101003597891604
Cd 2.3791932636421715 8.101224845863884 2.152573078245311
Cd 9.792251111776219 5.037231022234114 3.8361479899230173
Cd 8.402171008059943 3.5559969181705475 1.728088682336682
Cd 5.220642077245348 8.200433960361313 1.0922199857846862
Cd 6.489457962185023 1.24943565955075 2.886882830158743
Cd 1.286243004357912 5.258519658262356 1.973709233224036
Cd 7.330620082667737 9.532479835686328 2.641944786366118
Cd 3.363693170314807 6.023217163343077 4.524250238446066
Cd 4.353204779275376 5.534067012696588 1.5350459873623488
Cd 3.7895308955656604 0.6510048305287395 1.5124478493951419
Cd 4.2188426248010416 10.07948047406109 3.446446711101227
Cd 9.180686455126654 7.94521480834398 4.204179284126186
Cd 6.498579994885646 5.014372488910771 3.771992850663642
Cd 2.1681149374460498 8.865197904779683 5.229964802541772
Cd 1.480036982766326 2.1727326669483755 2.9615352466643547
Cd 10.997015641063106 9.424877629712263 6.218100054635478
Cd 5.846397961246021 7.7866509045523715 4.711164955698547
Cd 0.5002156259068504 4.25032769685612 4.776100796495849
Cd 4.2218697411171835 3.200033203646766 3.804582474553216
Cd 0.00949982012350949 7.15503841805741 3.869529772521331
Cd 6.521836322062823 0.253617471280208 5.72232665007748
Cd 6.461482480542326 11.624089492769512 4.599681546765171
Cd 8.773320745420897 2.250931713634418 4.49677648478741
Cd 6.082163664170294 3.3596342880508434 6.1842634686474165
Cd 1.2120661305322626 1.4364854387796102 5.811294088028929
Cd 8.73009742694032 1.5469940125517265 7.356928090748888
Cd 3.679017188291447 0.04424044242342739 4.361733525008799
Cd 9.19090098998009 11.563547238840103 5.500160560607774
Cd 7.683717777654031 9.03503464005524 6.99249256723251
Cd 11.537216228308486 6.4666254051993315 5.868755017173812
Cd 3.1091953314897927 3.8765865079168553 6.618954925834628
Cd 11.547371632119514 3.858586258371573 7.817933680815839
Cd 3.8394795003054365 0.7633272123902648 7.177097560347104
Cd 4.725126298623695 9.977192666365337 6.583639809466262
Cd 5.002827359733296 6.090725329409028 7.035018156249435
Cd 0.6175263855363006 6.598418277358219 6.729348167630029
Cd 7.944236936440346 6.055755417196683 6.2935923302581775
Cd 10.009706336848097 4.100667572137575 7.026955561558276
Cd 10.45641571572257 7.52612600031268 8.437123090278257
Cd 6.308719197168115 0.9468678028771039 8.822040841947615
Cd 1.475344039082638 1.645394825040632 8.995655978059553
Cd 5.459212022781349 8.564927848638819 9.141149255349811
Cd 7.827717621908759 6.755131851209856 9.341852901500886
Cd 2.2893324360586336 5.377762433502626 9.262787610124235
Cd 4.2136628579740245 2.9551458731853635 9.528255913120667
Cd 2.766022623437226 8.075140363410714 8.055375669738593
Cd 5.115867711858189 5.695279149675353 10.09753789001595
Cd 7.2984512592065816 3.8574832449127165 8.937401644369837
