54
Energy = -24.48717015 eV
Cd 8.13939458479503 8.833647036973016 4.32944116273769
Cd 5.4550424726035045 8.820686256320634 5.585259739176382
Cd 10.934845272486752 7.425829364791104 4.029530080670974
Cd 12.323281936277489 9.950842300283835 4.525746891292207
Cd 3.8342188629754226 11.670167476746414 4.5352514359874485
Cd 3.1521642990657344 6.9048933241202946 5.319418479544901
Cd 8.384668744360088 5.918773451450657 4.009249510445268
Cd 9.73242240376627 11.29804020216952 4.55995538565762
Cd 12.875053688434964 7.123124069230909 6.345565040022447
Cd 10.378296952523835 5.367695794021331 6.168953711111221
Cd 5.534110296957083 5.606464525187933 4.4414550547274345
Cd 6.777143723677983 11.58015473593558 5.030548363539671
Cd 10.033235596089803 8.755105858334511 6.830051545820987
Cd 7.552390655889644 7.042973014318704 7.232542503867595
Cd 2.399276437906811 9.63785839824381 6.341753216879972
Cd 14.096552418131171 10.118586985353652 6.827403782397061
Cd 8.842469031645958 13.036882685867837 6.809950789960507
Cd 1.6638669088411149 7.003297965125404 7.776700594455732
Cd 4.518815107239413 11.406623655496311 7.509266924826705
Cd 7.513638750359308 10.229035041235322 7.667886219853019
Cd 14.48393241728907 6.367684906826092 8.888883940793253
Cd 11.621528903534065 11.805970853139428 6.948999208903535
Cd 9.791018664512858 6.54495473792215 9.126854216808608
Cd 7.39730454717956 4.055797102432862 6.2256084969927485
Cd 15.741914659880408 8.982857868040007 8.8886667575545
Cd 2.2487751373375966 9.645995281212047 9.37961345946346
Cd 5.081281571607593 8.327289426527134 8.609385017068222
Cd 13.672274591377864 11.126386055482941 9.936697239424392
Cd 4.428504774580323 5.4002226785676255 7.658944275070279
Cd 6.811579662339917 4.4987042638601835 9.114918644341422
Cd 9.969223120978995 10.593680509335652 9.39791056308873
Cd 9.21070792328446 13.899182754572212 9.63694006100842
Cd 9.44336042393951 3.1438075990505037 8.09828015492043
Cd 6.521596235086777 13.105391655041833 8.764896429990456
Cd 12.149339819538454 8.58335905576902 8.90169367467432
Cd 12.321321342572592 4.512896447191628 8.251617582828846
Cd 12.08429261233969 13.499280359325532 9.440428683489877
Cd 14.271020053634798 8.482723922644842 11.485702302741206
Cd 3.456442272530021 8.988255203590935 12.101435532575392
Cd 7.765013219774324 8.536542260142662 10.187413638514455
Cd 7.992997924231533 4.949608431452396 11.70041467079967
Cd 2.925688458902526 6.59907056810517 10.284018748747792
Cd 10.572596488173563 3.8924662188505286 10.677875702852722
Cd 10.559010639835018 8.217800549589516 11.493141801677474
Cd 7.6901177779083145 11.751497354338527 11.199649753818345
Cd 12.851016580504298 5.896410969806282 11.370068163016237
Cd 4.947593749938072 10.966308269948987 10.412512547782093
Cd 5.656324225409024 6.638065032661195 11.372004443404022
Cd 10.598193432043102 12.659833879493762 11.995616875527592
Cd 12.34256593279128 10.337940419379066 12.691319272833374
Cd 9.20387772871458 10.297081538977572 13.311482557381707
Cd 6.256274230654317 9.642628147246311 12.864787889256636
Cd 10.48686442836978 5.6556312951514 13.106109068346237
Cd 8.096548968822608 7.4549829067612965 13.391168854970537
