54
Energy = -24.20252492 eV
Cd 13.263349263810252 8.021855491529918 5.7608875997462405
Cd 10.889934743143293 12.7566060811278 4.333669717191949
Cd 10.758551885073897 7.209936226027638 4.250886042158279
Cd 9.329449345681084 4.789495874366457 5.30121617677288
Cd 6.922933075794538 9.714405476234578 5.670457797970321
Cd 8.035699299386904 12.416323318150836 5.003841650836797
Cd 9.691339276785694 9.965212643239363 4.430352403673603
Cd 9.982392686793197 15.299911879438103 5.569477078167734
Cd 12.343864739002571 10.815200900517365 6.066702406657031
Cd 7.61716897396291 7.034059039474564 4.692818019634987
Cd 7.648774212542707 14.375633969291439 7.167722261113855
Cd 4.01248906199419 9.9193583199375 7.31358441033495
Cd 11.670997610980953 5.800106568486194 7.047417187690417
Cd 9.629593123281966 3.9210914061594844 8.148780840688298
Cd 9.848750907390707 8.509576342961845 7.055080527167546
Cd 5.92195698826405 11.992075797037321 7.351625716385779
Cd 9.680834040156201 11.81428360672161 7.56138751789684
Cd 14.328058363357489 12.542412046320889 8.398654638267567
Cd 5.292089728092432 7.323344905734441 6.7366147463656105
Cd 7.489071759571166 9.404130382579439 8.773797355139008
Cd 11.749160826289401 13.296918098024861 9.80968055016882
Cd 7.02493257957651 13.221508554122938 9.819445848286756
Cd 13.235380729551602 7.358015470268894 8.970773815832795
Cd 3.6811187636708347 7.84304282613553 9.318392850950948
Cd 7.701368643270589 6.203897870472814 7.912857390513299
Cd 14.720981573425014 9.756523070925304 7.809094460851889
Cd 12.319279028433064 13.934445343062436 6.771371946928813
Cd 11.753211359060204 10.038424043755606 8.968326778554525
Cd 9.280849363288544 11.183364494024907 10.402775182992896
Cd 9.969667877534631 15.32017509805766 8.63895589111752
Cd 6.216385738624522 7.010846748747335 10.574431843199907
Cd 5.245198437179122 10.756112272077644 10.344624283669102
Cd 13.298962199605509 6.786072430589532 11.936715236606558
Cd 11.669960699780178 4.93325956094634 10.05739029226465
Cd 9.334797408772664 14.396399551761087 11.396481479683988
Cd 8.475674826263498 4.947517713446497 10.63270199912265
Cd 3.5054545973890407 7.418112079349013 12.16851844428418
Cd 15.067937303943944 8.980871825103094 10.860499303677493
Cd 9.998789138057296 7.636901086550871 9.841434284274557
Cd 11.372318401395919 9.332735992542837 11.940863803156736
Cd 8.217194264745046 8.967736543394299 11.960815729887873
Cd 13.581287103479575 11.48426715913518 11.195889238611349
Cd 5.18630529116629 6.977855302392148 14.501039139179966
Cd 7.667349702696528 6.233281131147522 13.226200119057477
Cd 5.481233178636301 9.788089748696134 13.194448603265181
Cd 7.210153128766925 12.251485235303765 12.578933200062917
Cd 14.65989518638518 10.312734408920505 13.672535672548754
Cd 10.570057530750004 6.004498895418837 12.627355610988861
Cd 7.265094252745928 8.736198935475528 15.605145356706513
Cd 9.988270266005136 8.159680348256982 14.533139590108611
Cd 8.966749627473915 10.978353352065524 14.577822291934009
Cd 11.98632105113844 10.691330209307978 14.978928698115352
Cd 13.04749815663087 7.933507418456594 14.649135784970566
Cd 11.061910062779685 12.36886429030515 12.756348568140549
