50
Energy = -22.013777 eV
Cd 1.4049009084012154 8.950394904681074 3.6230184175689697
Cd 7.270106759365086 8.153512693704505 6.478806745920501
Cd 10.02618282256361 6.893872760550799 8.475616575660784
Cd 3.4689102701517056 10.060027275112338 9.089947788675493
Cd 5.3802796547016145 9.781861019496287 11.407887216760107
Cd 10.047516268914734 9.621717849613736 5.187590740310114
Cd 0.931941148196126 6.774881456930292 5.622651011933506
Cd 2.9460411015590644 6.308780068658148 3.2479656405544413
Cd 3.9770759791223735 3.4966281796019003 2.457749645288409
Cd 6.721640903766577 8.42974751892217 1.5005344265623692
Cd 4.404191375791229 2.7185083955061566 8.50122256413003
Cd 7.616789769695325 2.582160513414965 8.746204202979653
Cd 1.6509417788841836 7.40888498992588 8.534983009674303
Cd 12.092661732691154 7.625064148556828 6.266933677520242
Cd 6.6216840557883305 5.2825240440250685 7.51355826296585
Cd 5.209072011984526 7.602538884208492 8.514560768608112
Cd 7.360336697272896 10.032980146344494 3.9077077802604334
Cd 3.8477894772102683 8.878461135643583 1.7731457806373914
Cd 9.898411842378675 4.453369078528517 3.020781632776172
Cd 5.665020598195147 6.669467710463165 11.485553813526296
Cd 7.93035538468909 5.700165147459242 1.2075790818217997
Cd 4.890362476700624 8.424625060939846 4.6759312419663575
Cd 7.8255815346944715 8.283352651949826 10.09808206135885
Cd 9.224292410972874 7.678922882218356 3.0558617238919386
Cd 9.03489488584863 1.1024405760521683 6.645209583366957
Cd 3.465116526022359 11.2518366253352 3.6128988793322154
Cd 8.320642867833222 5.240883558691497 10.151731875902541
Cd 7.940702217476437 3.6315207364572113 5.286274064151262
Cd 10.171152631500409 3.9067159366796913 7.638724961766361
Cd 3.4614977977661834 5.312315299118328 9.748661084068885
Cd 5.37448127385573 11.322315619169744 5.91786501307474
Cd 4.989263135140274 5.936516823213732 1.107578601704
Cd 7.019165537115125 3.1072802479092916 2.435426652980762
Cd 2.574855167204486 9.467217084512821 6.372425701182398
Cd 5.050742930173767 3.707372154256321 5.402618761604876
Cd 11.022157966374813 2.358332279017456 4.955509804384004
Cd 3.8694522535619167 6.198861975936747 6.3280443219254305
Cd 6.432583107427483 10.551509647257737 8.529682613359231
Cd 2.753176881887519 1.650578907534413 6.223325117716876
Cd 2.9257295994345407 7.999839183001649 11.275898545353355
Cd 9.299193381724749 6.189166054394271 5.639784978796286
Cd 9.410267226971005 9.861122401600987 7.995734222399212
Cd 5.8674782632160305 3.805918147279333 10.801608658955095
Cd 5.994088966000938 0.8847743920251343 6.685861047977507
Cd 1.7161371266750112 4.270623836634538 7.533193033843201
Cd 7.786348401067161 0.675168287903261 3.998219166846078
Cd 6.486484827250417 6.065438871438266 4.1138223899647866
Cd 12.317240670699082 5.039348352733897 4.878491786146269
Cd 1.7178182535446669 3.904006101121723 4.538569748588457
Cd 4.722933637295907 0.8821408810273383 3.9246580700155143
