52
Energy = -23.85933673 eV
Cd 8.494153683311714 11.888166011128709 4.820637921406311
Cd 5.488674814184381 4.586303208981241 10.016252038945408
Cd 10.47226488593107 3.56962654158057 6.78939010460524
Cd 4.459789134227647 7.438843870518021 7.255283012670331
Cd 11.66338170894385 4.304514919185269 4.05233366392093
Cd 9.042700382867242 0.8800289960790147 7.960634123927683
Cd 7.076660375047557 0.14497788331198658 5.745740148113404
Cd 9.913980939654202 0.9705195578100191 5.109964258614452
Cd 1.2745638560402184 8.691157299328513 5.019251654497401
Cd 3.0605416312963487 5.85111566326132 4.882866898134742
Cd 5.703031954619231 11.401793770603533 5.806729473902886
Cd 1.6035889685564957 8.036154616935505 8.034907731982523
Cd 0.02192121839271138 3.62644442520881 4.487137802546727
Cd 4.283695540169592 8.783924873835124 4.47088138732097
Cd 8.791886769539476 3.1160710561987206 3.515250572709134
Cd 3.0996757973458156 10.414804877362965 6.831168148228562
Cd 6.718332058062985 10.195936120757866 3.0550628252154315
Cd 6.990484604170545 4.843598935464614 1.785291472249584
Cd 7.432496123422521 3.6162727803283676 6.426388898590079
Cd 3.343549146327725 2.101471523275943 9.269129552430018
Cd 4.635147880545585 4.422346201756005 6.946001219658185
Cd 8.216627568370676 5.819889193586594 11.170570581099676
Cd 1.0742197209016764 4.504221010025765 1.8522456911033085
Cd 8.872673147383063 5.982143944639289 5.208795119765967
Cd 2.8806845496629983 2.8169139676535813 4.078030926784784
Cd 4.065827960997486 4.729707945045607 2.086174468107938
Cd 0.5345916981069925 5.829879972540395 6.4471682495600175
Cd 5.828435668331217 2.7883551791840664 3.8266484933616494
Cd 6.236808188143105 1.794712881061726 8.778331686097435
Cd 10.018251677768898 8.726871248603691 6.937274612893718
Cd 5.942756468502191 9.90824678560008 8.516221120449204
Cd 5.969224542037281 5.914602846858109 4.574992230448827
Cd 11.853508775661146 7.284264072166546 3.069242771015896
Cd 7.055922175904777 6.263131664267799 7.872536927964336
Cd 6.069764078840963 7.7673781375857445 10.658707273022731
Cd 11.757018335573 6.5220275622417265 6.035277156195603
Cd 8.682663891626262 3.5037418378527683 9.458766224311706
Cd 4.499489965660535 1.3777156955835799 6.305044708357372
Cd 9.909036542685275 5.4152059725597415 1.8590486067765102
Cd 8.652312518760962 8.652397171353128 9.56287761486022
Cd 8.068207938292542 7.569186194209488 2.7693215736954113
Cd 1.748460071721813 2.8334426384962903 6.831650255589827
Cd 5.270387168493252 7.5485427142973505 1.7577221603234798
Cd 7.090914734745856 8.451675373513309 5.847185700811239
Cd 10.010161595653098 6.0640441325874805 8.513649650459563
Cd 2.2889801414186786 5.02527612715151 8.78783017578865
Cd 2.3398700844334983 7.343661420649757 2.3119826829915557
Cd 9.97947738452014 9.47230727630145 4.016680664466033
Cd 3.3068275442059267 6.918709855199317 10.669398936567438
Cd 11.853508775661146 6.575093465416336 3.5708518739155055
Cd 8.470387481331914 11.192743675781124 7.699908127101494
Cd 3.300510808934354 9.771283129143551 9.89700705051068
