53
Energy = -23.74351598 eV
Cd 2.4375715543408187 6.758484833810972 1.2418402420433947
Cd 5.1059355757460185 7.191536152226586 2.669596635913671
Cd 5.018640307120583 1.1249056217918503 7.474105104897174
Cd 5.229851588087206 8.24844024939422 5.478018937395249
Cd 3.91989689847272 2.161272510158407 4.959070830014446
Cd 7.112791724312614 11.521720884569636 5.162252137423309
Cd 5.878888571319684 10.143648762232822 2.8291212352938366
Cd 2.8249619068719682 1.8986124802825641 9.419438401330902
Cd 6.390012240102603 6.526467235725372 11.579017892881131
Cd 7.3246980469657315 4.602531254009203 9.302457157670823
Cd 3.9207023176480735 9.332798063212964 0.24639004422208666
Cd 1.793626617465293 3.7880871236852856 6.206732608768563
Cd 7.6552432922117335 6.468703713215248 3.9976366554154112
Cd 8.441054940122832 9.950266359607308 9.50748874765547
Cd 5.828950272780327 1.6790877733495297 10.30202956830314
Cd 5.666628015947873 9.181980204642974 10.507323402752537
Cd 7.184678536833454 5.4069301469755615 1.047027706766035
Cd 6.938539441670141 2.027154400832449 5.2486734391297665
Cd 9.975365781797201 3.0572547358216684 6.045918794329435
Cd 5.619222374609705 6.963992032640498 8.169425771024441
Cd 4.760883677038573 4.139098837406083 7.606697955980919
Cd 4.1842541262319415 11.197257485039628 5.599696251292564
Cd 9.097681721780122 7.098764405030991 10.140746111367292
Cd 8.00159856122394 7.84843057368806 6.691734278558481
Cd 2.705182496566551 6.781302940994552 7.136599401092602
Cd 2.854626823937015 9.453922735655707 2.9735258754251612
Cd 8.039788074034492 1.6324599286080907 8.028740466504422
Cd 10.65220174859901 5.520952067429924 4.280585669602349
Cd 1.8874162820408562 6.661124078997077 4.251462143735634
Cd 7.45862851032196 4.857671344559568 6.372737193754305
Cd 4.794819394957169 5.319748661363967 4.940538462808526
Cd 9.478170797362003 4.7094566922054515 11.826445562110036
Cd 8.703832483833958 1.8499261215110145 11.180883864219
Cd 10.889285849297023 8.689546865760159 8.282385424123225
Cd 10.343167399955366 5.861375543137522 7.332830352741169
Cd 7.17143208988853 8.57838125239009 0.5888258955205722
Cd 4.401376087688375 4.375512823366283 10.715164723109261
Cd 10.286825838416261 3.3876795673156788 9.096070247446928
Cd 6.706111677991387 3.6773115080725023 12.565685654453725
Cd 5.800961911552478 3.2721483955404955 2.787782468005402
Cd 3.314359418142278 7.217506473209415 10.366738179171842
Cd 1.9602016430108644 9.273924588370383 5.75814243804998
Cd 9.486039381672542 10.72730776990469 6.669518493948928
Cd 6.140288577506772 10.376033955439764 7.761192074397154
Cd 1.9014635602226098 4.76121437133971 9.106267995656076
Cd 3.318627452137124 9.577072830473979 8.42309098483016
Cd 9.657992743854217 7.18384443474873 1.6773812406129343
Cd 8.716813163603172 3.573103115023161 3.291368235437689
Cd 11.049948994917251 8.235804353333652 5.310080539703171
Cd 8.686545778332468 9.365032202379224 3.7188728292421405
Cd 5.1563072724108565 6.908141595366853 12.565685654453723
Cd 4.23157930449529 4.491390899272685 0.6138737710532027
Cd 2.512738607982783 3.982088500310873 3.0325469759973056
