5
Energy = -0.48871707 eV
Cd 11.083646742223765 6.561200226349078 6.866862358066183
Cd 9.523041412084705 9.284196003119478 8.120400695092474
Cd 6.291635164063308 8.975239571291386 7.8210867750850035
Cd 5.3148907655969575 6.668530018197307 5.753109738631106
Cd 5.395271681442963 6.113204791111988 9.040494592612548
