55
Energy = -24.09560582 eV
Cd 8.26856761367509 8.193167587430121 3.0641410883111204
Cd 11.755782984442051 10.402737014966453 5.320901595127155
Cd 11.343887512070033 4.988660539278114 3.4751395550860695
Cd 10.22920872446287 13.082464728244796 5.247582858173234
Cd 8.790611538867193 10.941564836231708 3.880884953339807
Cd 3.74231578130995 5.671322326448975 5.244119139998573
Cd 11.093652064019961 7.910450324104957 3.8387603878261167
Cd 8.737239735067389 5.895482108274454 5.003739425046388
Cd 5.671533787245915 7.458001254679368 4.038076540240194
Cd 11.564279434357276 11.99184739516613 7.799583437076964
Cd 3.815102927893536 8.43199786125979 6.54127970015906
Cd 9.36824748892068 14.355475831456276 7.767806233320613
Cd 9.026140379049417 3.669270593801519 7.300215461134935
Cd 7.255671340273008 12.813096826002008 5.797529349104012
Cd 9.245253352253684 9.038481552294112 6.299638179909973
Cd 12.716523296100716 6.597856497173773 5.993121652819569
Cd 4.77189054314626 12.03823333936962 7.358330419078892
Cd 6.3117975396458705 9.974319168162001 5.684131584812988
Cd 2.3899354249217057 10.54090145185969 8.161287646653218
Cd 12.646995251241654 6.87783129493433 8.94788693512313
Cd 11.668703692206645 3.5730978995638094 5.957745045169273
Cd 13.560905425887572 9.5060521406438 7.52921822444178
Cd 6.934108356408528 7.305460038371771 7.173448826387109
Cd 6.302127717015975 4.413423763724196 6.156979896406264
Cd 8.456714821098771 11.227302101849924 8.18389538989931
Cd 9.856085664908054 6.540648495918677 7.8981003345599365
Cd 11.381984704085104 16.288330732693733 8.829882618552514
Cd 4.302660071021036 5.7495124850087596 8.255485083348642
Cd 10.992767114087119 13.502877140075357 10.287193796120379
Cd 6.044375042923958 9.524535337390212 8.9151943482964
Cd 6.589724225245587 4.268138370417071 9.203534478837453
Cd 3.079794838363362 10.645800165300349 11.034182854001392
Cd 11.99877141298919 3.8658032421479795 8.800063821374891
Cd 10.474185012718118 7.439517590053832 11.26884051893094
Cd 6.531405537133896 14.249698486565302 8.426426173104817
Cd 13.650878269196882 6.460936222167427 11.686896999780474
Cd 5.619161844819375 12.05364748251824 10.379324492902965
Cd 10.638709010815933 9.24129303870236 8.945608916102563
Cd 7.547647825022449 7.231028512333377 10.139420065094553
Cd 9.213595470474495 4.646760291706338 10.32543695592266
Cd 3.1844693647173727 7.95426004580329 9.71864408135369
Cd 11.777741399162599 4.097475591746322 11.70793817433655
Cd 8.556342765448344 10.184259510945624 10.987985672992084
Cd 13.996164581014925 9.249085658197107 10.459324806830034
Cd 11.63638985457467 10.894434725333463 11.330295105648103
Cd 12.488399756248919 8.703115222461125 13.276325967586818
Cd 8.113460534309398 13.522113652418312 10.88237603896968
Cd 6.406287610226764 11.063992085075478 13.154503263139148
Cd 12.086004997658945 5.700167749274634 14.19506039546202
Cd 7.79953318270013 7.979792482786158 13.132335578065481
Cd 5.203993334774373 8.578382168861728 11.887822128406212
Cd 9.920181964921419 10.348259276713584 13.865485523113119
Cd 9.24570100794754 5.2896343839559234 13.257009860181174
Cd 8.721027553224488 12.94853891589239 13.718303151030934
Cd 10.09606423910202 7.700167383664363 15.086260192726291
