54
Energy = -23.43173833 eV
Cd 8.189642160638325 6.446143751140656 1.9826993181871937
Cd 10.934826485014485 7.216939614782268 3.2912514933599013
Cd 6.670592132594821 4.363788495165299 3.477561337631159
Cd 9.784487556205846 4.3515107863184 3.3359281442983097
Cd 8.423533800323147 9.145055700435549 3.0348874866825333
Cd 3.823390728844498 4.140031455860706 4.0516729581263045
Cd 11.495485419854708 5.4754712926744595 5.596796043706234
Cd 6.133090666667015 10.99883620067295 3.5043096348606477
Cd 10.855913218058026 9.607346216895534 4.942689681118598
Cd 8.407447827488413 7.125984397028486 5.5662115019345535
Cd 8.997065987454818 11.78066487083675 4.269572412283704
Cd 3.82861998885356 9.501681277108604 4.562815680479
Cd 4.6506795168722075 11.751122458034702 6.133906966512499
Cd 6.890646740458553 13.614416123080602 5.066358254090365
Cd 8.62408248382013 4.140817075532064 6.009245706038345
Cd 3.2088852453675023 6.816722040758081 5.390397573091802
Cd 5.804805452652691 5.235015311913444 6.357352667677609
Cd 12.943744907310512 10.347472559923926 6.797856900110255
Cd 4.4656379499462355 8.490599825054675 7.596257153393447
Cd 7.048774027419945 9.604721264852522 6.3322000290843485
Cd 4.375407209765512 11.165198496916878 8.979967051978674
Cd 10.216086213848811 5.088857580075536 8.309288652325069
Cd 9.95351722398779 8.455888977066493 7.721557385059761
Cd 5.866121899830887 7.415499071464699 3.8260213251238033
Cd 6.661802985470056 13.077561829696368 7.922430064473008
Cd 12.854288149871152 7.321086316589489 7.341770512335969
Cd 9.31308804986436 11.499278059291488 7.20855899568397
Cd 13.285042781733274 9.34188747181341 9.553772237338725
Cd 10.035243678410705 9.686727408154995 10.462023516779293
Cd 7.442767404500537 7.062819865463079 8.607371078054316
Cd 7.206638188237846 3.936916040630566 8.647871545640559
Cd 4.187742758346844 7.9521624588755575 10.522693688077343
Cd 8.88769904506123 12.912487364859361 9.870303751463144
Cd 11.700560972194339 11.971934238356551 9.034945440822003
Cd 5.940470389827514 13.01906070344728 10.807631222214086
Cd 2.4426953736006114 4.385221286980606 6.837376025557265
Cd 11.159334741109005 4.084507362001 11.057544410036135
Cd 7.268085837458655 9.939218484551292 9.302175136565515
Cd 4.140308934578643 5.525709001087736 8.913959908543848
Cd 11.510876550881365 6.9859473095287346 10.139156919439207
Cd 4.753172440441881 10.480394684474705 11.85029018638462
Cd 7.790944959281019 11.298523402952615 12.350525293284445
Cd 8.350375208438887 3.5078623933115387 11.267869890890085
Cd 13.3002400147411 11.606533676881684 11.575189855057987
Cd 12.460802197491272 8.66611945537918 12.482096709614156
Cd 12.649154623121177 5.672577140982158 12.988848380792488
Cd 6.257231023879958 5.5987714783656 11.031293187046098
Cd 11.785082005912368 11.119479589168781 14.239210689636966
Cd 10.557468291440106 12.746166004050009 12.208007880387203
Cd 9.072439095981755 6.243632177604662 12.419212504343212
Cd 6.945126292004942 8.351959422253739 11.883271775859637
Cd 9.48684753630386 9.17185595092606 13.423569752382818
Cd 10.68315403154309 6.827924707446718 14.940736077774
Cd 11.693126048827452 9.140184325116211 16.387782460202935
