50
Energy = -22.0259561 eV
Cd 8.010590237268227 5.1937176709030295 0.18702248258458606
Cd 9.019254608601681 8.025400311975202 0.548406047314982
Cd 6.445701584174661 9.349729168438762 1.20250495281624
Cd 6.005939748612781 3.567765111110437 1.6022577306179566
Cd 5.568663479814488 6.543694219203759 1.52328152582292
Cd 10.813586907070906 5.573005318141479 1.1014777685363502
Cd 3.16306140852897 4.662843262006882 2.614830132681257
Cd 11.498376415266517 8.03523029246711 2.472159870548722
Cd 3.92985792629723 10.409986748970534 2.6080272946927985
Cd 8.278524199490333 6.506046961471193 3.3932304664544644
Cd 8.992189256781998 9.600928248003843 3.175098159055338
Cd 2.9528159252331996 7.598498796122424 2.61497809428
Cd 6.5038352025746535 10.955749739675097 3.8608138235193996
Cd 9.131046888229447 3.5605712858455467 2.5675877556100537
Cd 5.969897910007984 4.9079518182218544 4.482876736867243
Cd 11.223052771407849 5.248694955337449 4.157097990691662
Cd 4.278310217627412 1.935143118943263 3.4222522126139436
Cd 2.958211731443267 3.4244123694595485 5.5277081680896964
Cd 4.950540206825151 10.729343359293448 6.370738476333013
Cd 5.838211981604158 7.957981906696953 4.376957441425695
Cd 2.5182198689402093 9.383295164257609 5.098323629445426
Cd 10.546932405498595 8.059082061510972 5.247324022282655
Cd 7.198669103411177 1.6335354908674555 3.6517622692983687
Cd 1.340017672693026 5.386756092872097 7.242100781059461
Cd 7.950745301458071 6.6462619255269715 6.389144206218184
Cd 3.4008370234217735 6.447879927741633 5.3916474471784674
Cd 8.03872406234059 9.800843471530703 6.164617343019695
Cd 10.427609368182216 8.495254359988346 8.088760491282777
Cd 5.396748822272129 7.833375194910585 7.4308109623101535
Cd 10.869609188511738 5.526516596165761 7.1359594920334795
Cd 3.2552151184926807 2.8479555217865515 8.353799513077274
Cd 8.62035745079252 3.710838443960063 5.505195269580815
Cd 5.770891395017764 2.031630587485112 6.205603833353227
Cd 8.544185082886049 4.07402777444802 8.422137998096533
Cd 5.531038826468083 4.878329605961009 7.442203164607479
Cd 4.783888766760869 10.333367855946072 9.357670507041249
Cd 2.4116052253725893 8.518830818966496 8.019913245815113
Cd 3.0776545500813217 5.85279932479306 9.518078062922243
Cd 7.733028073561574 9.099137709904433 9.035938878289839
Cd 9.30102690660695 6.513237181618474 9.962443173837542
Cd 7.543368937952984 3.9030097540046422 11.191208128288986
Cd 6.285524139845084 2.110473650614693 9.118237873537344
Cd 4.409978182599418 3.505896615692983 11.044728221160156
Cd 6.028300427590523 6.3520844089147115 10.093177135354432
Cd 8.004268782080572 6.594275850462132 12.784054708653612
Cd 3.464601876006647 8.340516024882637 11.169568575534608
Cd 3.0849972698118284 5.7076924673910705 12.63689048767666
Cd 5.797910930841176 4.552539777388711 13.563397292038498
Cd 6.461567082905934 9.06336285227792 11.622645570438362
Cd 5.155131626360334 7.494820901464078 13.787672661637513
