55
Energy = -24.41300824 eV
Cd 7.39769405813382 8.916465276547095 4.59274549867299
Cd 12.0713281860587 8.728501091632715 3.1306768167577284
Cd 9.315629024247645 7.591744414311161 2.5761928612525407
Cd 11.9742295077777 11.053726552107324 5.111875745667374
Cd 7.006229911357177 5.975536519914016 3.240285696588784
Cd 5.087195366519755 6.808863418428831 5.25310728934302
Cd 6.070069490608363 12.355029990714861 6.388914661183956
Cd 8.911554907868512 12.038287115519488 5.538250514697059
Cd 8.649983110801733 4.0030555871231 4.596385821832816
Cd 4.714234572860984 9.966856806631553 5.342090392473399
Cd 11.096541763634937 6.188290974397765 4.589369393125211
Cd 11.099914880397723 12.335363594357329 7.697188012029243
Cd 9.604178727233558 10.497089809191426 3.214309919608298
Cd 10.14136505015911 8.79175369178779 6.205604318166767
Cd 13.202266563586578 8.210165503082079 5.846363003534154
Cd 11.128727595043836 3.5877947760582436 6.0204517762423215
Cd 3.007671520219021 8.25306082648019 7.072667752134503
Cd 3.9370939076856137 5.171121368791348 7.697155676214185
Cd 6.128927695411646 3.9674720819354894 6.219363846406116
Cd 13.344532220660284 5.384348668798061 6.6600133811156965
Cd 4.598812615653254 10.387138063697167 8.5873541225913
Cd 5.826847215195606 7.520791960364362 8.12106314499398
Cd 8.335270510281548 13.091507357930825 8.31407509182432
Cd 8.222348972667188 6.5335704925441975 6.58065339206946
Cd 11.563702262498603 3.5780153554259377 8.971341914141425
Cd 10.298895988650813 9.59606670969499 9.156791578966798
Cd 13.33922684269037 10.425851943447228 7.816705256872637
Cd 5.473182774607673 8.49113232760052 10.867605475158866
Cd 7.691002287742558 9.889224522387767 7.5556859333413
Cd 11.854107867130685 0.6366509574928477 9.4505055222628
Cd 10.710005011692598 6.583168360419514 8.2507262197997
Cd 8.752106561922668 3.5712555556993015 7.8312476738500205
Cd 5.591623814846346 13.094095784963752 9.326405899002484
Cd 4.34968614064284 5.6917572769097085 11.059079557664836
Cd 3.027991083775302 12.143345214442148 11.201671668917761
Cd 13.522223377890256 7.698926708502534 8.85564806744262
Cd 14.28066681865382 4.782334485452575 9.412417972334959
Cd 2.1671005272912103 6.816874836285765 9.486974523884003
Cd 9.27778622897675 4.666535852728164 10.666482544996503
Cd 10.3406721535796 13.200040765369083 10.517881799928686
Cd 12.731591857652377 11.512076578616627 10.510885077004115
Cd 8.281312086168136 7.46445658837143 9.68408317656664
Cd 7.449484937360804 10.876715804940885 10.473547905431879
Cd 3.406743741712741 15.022154945906266 10.09556114850017
Cd 2.4036515940516168 9.2881442860717 10.973254822907748
Cd 6.499048190410347 4.510697071028924 9.421184458749236
Cd 9.79096258465801 7.296028750460054 12.370860063213597
Cd 12.216082156685092 8.787369922939032 11.499028564366872
Cd 12.040537170741876 5.820594751843289 11.084126541456714
Cd 5.6751854926411145 12.960080307728067 12.41470022528414
Cd 8.479830934870819 13.347854415353435 12.769503263982907
Cd 7.462895720876876 9.102363006947138 12.94112200207607
Cd 7.063080059552196 5.94550776961885 12.288666548324233
Cd 9.983490686475225 10.646046850169636 12.285664616259716
Cd 4.462955044882153 10.256575726234614 13.223961224181979
