52
Energy = -23.36347898 eV
Cd 4.109756878644653 4.402124543731333 11.448394376715022
Cd 6.065531499204547 6.360611293996869 0.5615511071188963
Cd 1.459993529775396 5.706939210875679 11.650040633829194
Cd 11.75501569393374 5.60539083366955 1.3225677740555564
Cd 1.9504714903785314 2.4912724823665697 12.1288739205966
Cd 0.1920633796239623 2.745724859565059 2.161602513454375
Cd 5.678454945671485 3.575114854765346 1.5141710082361663
Cd 5.665273771816178 8.992315341964568 1.936283743052895
Cd 8.446672842020867 5.604077746329342 2.0279067841288723
Cd 1.1051745142565357 6.84878739008187 3.4549337527069266
Cd 8.398277425048388 2.4907381191631286 2.3224414685227517
Cd 3.274649134397304 7.224747811534006 1.3333005759471799
Cd 8.315417545124076 8.45174455067058 2.9616447301974986
Cd 10.80603976787312 4.289492014139071 3.8994910621116037
Cd 10.806039767873122 4.167741238425474 3.2223231191501847
Cd 3.0843675047176102 1.5141924558841846 2.451212696077091
Cd 7.655077337419693 4.2217714349961515 4.864071733127218
Cd 10.091902681132206 1.8073766005318885 4.849174005941665
Cd 2.864572481537395 4.52223644438701 2.4989481786755525
Cd 3.5365529138713603 8.703057096957657 4.009152920578269
Cd 5.954304584421438 0.7935279423243633 2.5783175065079202
Cd 6.345315438428915 9.816530677492867 4.750865817256564
Cd 10.169667040096437 6.761230197849103 4.454658820647946
Cd 5.577487125563332 6.203231811354287 3.7058531215056116
Cd 7.320714998595648 0.8769317937929305 5.2084365300324755
Cd 1.6243925626041908 2.6639665362785268 4.968506050389532
Cd 4.846459475598664 3.2179182785957816 4.6550422867636385
Cd 4.3960565762691814 0.13787402842073168 5.036634656064619
Cd 10.530215598798732 4.355073940113456 6.395151856064862
Cd 4.176788345583188 9.792427390092499 6.750387815925695
Cd 3.1661879352318665 5.577591874253508 5.373932942484292
Cd 9.268346503814879 9.453688657611613 5.86366174077617
Cd 7.297759444393068 6.933086391251273 6.011122359161186
Cd 0.9475458529604102 6.477567144509115 8.540209781355104
Cd 1.5637564409844813 8.272937331081831 6.178131172947298
Cd 8.792694787970456 2.066842134980702 7.542030026115247
Cd 10.321673023895563 7.098796092849944 7.421511567788728
Cd 2.1527759403211877 3.9247288865023764 7.856900828781991
Cd 2.988636008762857 1.238095130948484 7.300787760469257
Cd 5.932577891187965 4.069500238023237 7.279238257008032
Cd 5.89548379250288 0.939693062737732 7.820784529756956
Cd 6.948473840968824 9.96277220283228 7.8368605785298415
Cd 4.781664427504106 6.7528596841891595 7.451722315152975
Cd 0.09782821010847755 5.39936478553127 5.935996161058629
Cd 2.8001985916893446 8.673799423532273 9.112193669703263
Cd 8.802128469918577 4.807034569474784 8.82385685672725
Cd 8.179403770490193 7.673303052180443 9.294289257793098
Cd 4.269463675998943 2.859354720937116 9.697391344446652
Cd 7.21684552063259 2.4711588404339087 10.083469296933261
Cd 3.4387568209448705 5.716128777792363 10.121512695262735
Cd 6.364818832397716 5.281768979979939 10.503493754666634
Cd 5.461603379088734 8.151741129328707 10.09296654011055
