53
Energy = -23.26121335 eV
Cd 7.779069866360704 4.28345328333384 11.383752540793164
Cd 6.441907388596518 6.759326056218424 1.0942544839926196
Cd 5.8755542772892175 2.2416680542564498 10.75724607807113
Cd 2.435205617716462 8.544886324795241 1.3491921868503844
Cd 2.603237879675061 5.7188173420063855 0.6065142377819955
Cd 3.193289055404092 2.9334336072355938 0.33808119658184643
Cd 6.684128903630294 9.808090941975546 2.039581136495511
Cd 8.778283678512743 4.8089923852152205 2.6951557104624198
Cd 4.052688658576288 10.5009266823584 2.7608699720999104
Cd 5.7863423404671535 0.5654324921696647 1.705337617047585
Cd 1.3240604678924024 6.363507007060591 3.5517219905495403
Cd 6.612609383778332 5.256377196202759 4.85429131989286
Cd 1.3324967461156214 3.5981035972713005 2.515040097073389
Cd 8.446349975854465 7.6975859795428 3.228821688379082
Cd 4.413100093633157 6.911783188017674 3.2426469146659276
Cd 5.324930856107815 4.121250931877357 2.3166460879536652
Cd 2.2448531966163436 8.882958427283038 4.651358213804805
Cd 8.690163140232642 10.664225696088565 4.289270975141421
Cd 2.901281963925127 1.0433164279271987 2.6013169158227454
Cd 7.69280052256098 2.1202479570967463 3.3518157631413255
Cd 6.156706141200286 8.393981432299906 5.1497463848665666
Cd 7.298622165441857 2.0307720261520106 6.335790610204499
Cd 0.0053175736981236794 4.274159036372039 5.372987181093532
Cd 9.322208277061815 8.967884589091497 6.745034837303988
Cd 9.927026560308738 3.097657737893403 5.1266757670886145
Cd 3.554664871101669 4.441551188114408 4.725101352752641
Cd 4.8779421137678085 1.702600628466878 4.6582549228899826
Cd 2.0276756855172757 9.778366814114968 7.507057164027485
Cd 8.316174930512853 4.699954187067851 7.307913745487575
Cd 1.6724722047082166 1.8671199863297347 5.260389286536618
Cd 3.6310682098400036 0.878949202139068 7.232351093497126
Cd 11.47196782534847 6.794186634429108 7.605829743574698
Cd 4.021578628346164 6.80063976670878 6.727261444499246
Cd 11.366395964547468 2.765221473048454 7.67611826629762
Cd 6.077802091089523 1.2666062686674302 8.937385595615908
Cd 4.372144907880445 10.72926455133639 5.734607943527917
Cd 7.10490186142071 11.174450841256757 6.793210478863041
Cd 9.896353249588682 6.1995913205471025 5.1887737371629505
Cd 2.0509447646743832 4.074737004779262 7.574787317638855
Cd 6.998506601548957 7.215834507180442 7.689850643069396
Cd 0.8585639818134201 6.871924286858832 6.555191330241381
Cd 8.699055561761202 2.4951648774313124 9.452650267996631
Cd 5.279642593439691 4.156959284980907 7.336724280691399
Cd 10.466381750745612 4.889185167359444 9.622685150128557
Cd 3.2713254480560856 2.1326748990872737 9.835434195735326
Cd 4.805090772083856 9.5381122255315 8.537269219915197
Cd 5.7702178715754835 3.891595904695011 10.442836853675896
Cd 9.826552589230767 7.985293708813634 9.845303975186134
Cd 1.9884967676319576 7.480018622767884 9.28821978126128
Cd 7.6447319692275775 9.850647001788111 9.45000790026811
Cd 7.8348507941579575 5.942717644201997 10.540356193687266
Cd 5.013591056414493 6.858781069163409 9.965568918934498
Cd 2.773448501270318 4.923790831348755 10.373788090936166
