52
Energy = -22.94453447 eV
Cd 6.684938108010449 6.714850407219312 1.5327327039777463
Cd 9.084199199478224 5.742782606718802 3.0416948514595
Cd 6.330947885018802 9.630451289497117 2.2626041776970656
Cd 4.445667016317373 4.650359199302539 2.42737607692435
Cd 9.169766579059672 8.740417585680797 2.2382765489081153
Cd 4.187912666867262 7.722826483384062 2.9982870583682937
Cd 7.2541884996785075 3.684235760837429 2.0296542294042257
Cd 5.755416794479573 1.8102761559485652 3.764815290031654
Cd 11.1601405346237 7.43447867539139 4.228711723007898
Cd 10.890751588554151 10.776951199517242 3.759875453861429
Cd 1.7786758724162957 3.3446158788121596 2.860036322064657
Cd 7.887863328787174 11.596972991737463 3.988082143392992
Cd 6.5636541988243335 6.654717292548065 4.653649927988494
Cd 1.711240521381488 6.233840494440204 3.7181491525075687
Cd 8.422461831743604 8.803534649898847 5.242741200548061
Cd 11.20413651741846 9.244574215189687 6.6088157319633
Cd 5.218343390641085 9.944631683987605 5.067605491559028
Cd 4.698918341013652 4.265697367305834 5.452480491582878
Cd 10.779055377128628 4.441781387319287 5.054356651208963
Cd 2.43576556259119 10.067356822341049 6.357893762724944
Cd 1.7693665101715887 4.422106790823639 6.230293443948399
Cd 9.32382211152625 1.8980568098034216 3.6801040888856744
Cd 7.768740452200912 0.5504196299361135 5.790419783537109
Cd 9.752260990499705 11.810981230372356 6.3668808046823475
Cd 7.65832165277153 4.02932656667375 5.503575184764867
Cd 2.372921996323139 1.5666643116362375 5.1120112727933416
Cd 9.757371407125728 2.2997616598033037 7.090139419975965
Cd 12.733378488081136 6.633484845564891 6.598771169918565
Cd 9.070744822746132 6.372474456317979 6.834638724769234
Cd 0.9729039563738542 7.401931669995261 6.438731665557046
Cd 4.985980538478763 1.3605965658175885 6.600317969512207
Cd 3.929747390519195 7.136653171386389 5.957998874343079
Cd 6.654725463907866 8.361208979157542 7.498593008058869
Cd 11.688985305374453 4.382053235563783 8.076368203309254
Cd 6.364714464620179 5.3939868909227355 7.869377410091388
Cd 6.939658312592981 2.24359983021735 8.614220589136862
Cd 6.933548811485262 11.617757964372291 7.034644632248338
Cd 9.081513277551807 9.871195498606715 8.727268849873163
Cd 4.6224849700455035 10.533106674279873 8.411601358324393
Cd 3.9895169319132706 3.5022899087440074 8.411507328249252
Cd 1.5367092679562653 8.954057650975686 9.038868876541645
Cd 10.985186120587471 7.359599794294961 9.033920193544022
Cd 1.765566438595668 5.7055399619482055 8.880090668014276
Cd 9.019570236909972 4.376415851300031 9.332680092406536
Cd 4.331942423885991 7.288340198668274 8.872711923458024
Cd 8.219377466292535 7.164266070553276 10.14921219192111
Cd 6.7935539393055375 9.893089603538991 10.621794955611508
Cd 6.630377561568183 4.19456927560689 11.052131830280656
Cd 3.8671664521794202 9.517833368875554 11.138748859384133
Cd 3.7509852278390396 4.866316381771547 11.042151198203904
Cd 1.9716187305339758 7.277773005336953 11.603419414086908
Cd 5.676161657569793 7.092157191622602 11.681934216950992
