54
Energy = -23.72744538 eV
Cd 8.64838462934168 11.012913539594567 4.2446909597429086
Cd 9.00659927943571 8.43924701826487 2.396537153854733
Cd 12.080202449127142 11.9548678535937 4.439040755650918
Cd 11.250597495578507 10.285896691856243 2.1080665701597927
Cd 5.393101879602559 7.657556378946001 5.290918253033331
Cd 6.485085014147225 6.645226641562672 2.6811976720244246
Cd 6.2426305880887565 9.582676526913673 3.0976682216589904
Cd 9.1197914599667 5.39687307812762 3.029190685062852
Cd 10.746887197925798 9.91796372877405 6.361600710157159
Cd 9.765033899349307 13.500442090496117 5.339413064372635
Cd 5.453400565522479 10.661341142026874 5.891396160392414
Cd 11.918224934109347 12.810210278951585 7.5711617010788625
Cd 7.919882067652966 6.998331121459212 8.606337457738807
Cd 11.246729053825762 6.965472105162587 4.248019802695731
Cd 13.285691355121708 9.091986638519435 4.072637027164924
Cd 7.162664515447103 3.329132623667434 7.64935151768163
Cd 7.182563790900244 12.76943189308574 6.745377020048737
Cd 7.269484722742504 5.172938187979781 5.380666924139238
Cd 9.364461463763568 14.231173722581177 8.142344250139448
Cd 8.19206339441251 9.959745316852153 7.891951518186566
Cd 12.373968687164377 7.494187120090163 7.047766596401058
Cd 8.494517396760168 8.065257946017496 5.577085206061657
Cd 13.246073510430037 10.308454282435074 8.130418999953942
Cd 4.482501955541075 8.703147152460762 7.949719176402816
Cd 5.23520875227009 5.765617747637088 7.655466447974056
Cd 5.702477623206305 10.989825602934904 9.357684528869068
Cd 9.984593918532267 5.636620021288046 6.898763224347422
Cd 10.447254812194856 8.401257001539962 9.367494019735718
Cd 12.025004202463865 10.80938477167137 10.829989026198277
Cd 7.139804529859183 13.585717195993386 9.901209518698243
Cd 7.2705861223387 10.225057489888274 13.54654391541985
Cd 8.886360488235653 10.931311531624223 10.532384739782268
Cd 13.549118700953036 7.896052490157525 9.778576799886945
Cd 6.259898069889007 4.455199847854898 10.189517435399628
Cd 4.394197754256936 6.953300208153899 10.389888253672046
Cd 12.030367174068106 5.162548401948058 9.047472741312648
Cd 7.079003784946952 8.525013580811272 11.027517827411664
Cd 9.409611104216937 3.8553151706661843 9.495604293209073
Cd 8.733185588092558 6.0006996364488066 11.455844380764555
Cd 10.448573669030912 13.690489713514575 10.716662974299133
Cd 13.646757307092821 8.639514502486996 12.574474395215
Cd 11.672441452310737 6.385797918833329 11.670397161596654
Cd 5.497782911898443 12.311432498404809 12.058127066940632
Cd 9.939913709053064 8.877376512029006 12.431213496136804
Cd 5.730055032255358 5.498133648051415 12.799386576175966
Cd 12.218814443354908 10.168612871259645 14.580635658271325
Cd 4.297361967433746 9.622546067419105 11.828306042460554
Cd 11.350042632688542 12.611240199885245 13.228402141814307
Cd 8.146912422248997 6.681799566221057 14.384138646879814
Cd 5.351898277447718 8.02386905936394 14.1762773858008
Cd 9.820628059912087 8.516192719053171 15.901106734154617
Cd 8.324114606155941 12.953979338626 12.842623008819336
Cd 11.984955732319074 6.937015109386155 14.625642064890945
Cd 9.480411011280927 11.322483663391901 15.20396925602276
