55
Energy = -25.55157254 eV
Cd 6.103542553117464 9.794674995113143 9.98952185996195
Cd 9.152891239249453 6.06843088967145 11.879865818947872
Cd 8.554210437082103 9.11623818854309 11.586093231139571
Cd 3.619290741431679 11.992441304240991 5.597438717497468
Cd 6.277370963704147 6.994394171302936 11.275012472744834
Cd 8.50992247876773 11.458906705115286 8.921129235403894
Cd 5.924697498485441 8.189409682289352 7.388995071427699
Cd 8.30979870087376 3.5782952994050365 10.716561831835197
Cd 7.772766005921285 2.280954748842526 8.039425062255683
Cd 3.4011664682927525 3.20254578681925 5.722678789361937
Cd 11.217833327087849 7.804786992440563 10.751916101298374
Cd 11.11950260605623 5.1807422684879265 5.613361239869923
Cd 3.9672046939686796 11.015387656643618 2.775698530470657
Cd 5.826865080927698 6.714241336684154 4.623452942478975
Cd 0.21198518126501018 8.286157308442142 5.366182044564142
Cd 4.038144568982522 5.877345920251722 7.114295045158071
Cd 1.0759061389527824 4.587665825761997 8.731849939568704
Cd 5.9755661856549205 9.944495681223973 4.762826957448644
Cd 3.4706507514459197 8.376867868989999 5.500630377778482
Cd 5.91864793557305 8.809431680211556 1.8907302191445992
Cd 5.089996415099893 0.7525844032214477 7.362258137307488
Cd 9.78176486454235 4.671339636034511 8.382481765749441
Cd 5.879284167026437 11.443623924625683 7.476807415131294
Cd 8.350778238156671 6.51171427089213 6.306486868404014
Cd 10.706329643491266 6.4667706960448355 2.8082305213275047
Cd 3.8626509360667938 4.89650315861056 10.126261005274209
Cd 6.350523174467737 4.089196360190535 6.126514678661237
Cd 3.1277210058050304 10.12707104742771 7.880790248105799
Cd 8.124029279836256 4.943934489847859 3.839944532496278
Cd 5.520604033319455 2.2267508583579723 10.027839411478903
Cd 1.380770362386193 10.64771585723429 4.228607592520089
Cd 10.833459930038481 10.765748107085598 10.60793143716707
Cd 8.014468574872858 6.701795218574621 1.222966144822251
Cd 10.997087709410952 8.25677431444324 5.256601815731352
Cd 11.066206891806134 3.4179534996254737 3.154341529735804
Cd 11.5756348195065 6.971932989193757 7.979883400029216
Cd 9.402746168221537 2.7364412842082317 5.650483667932489
Cd 10.0389479013595 4.438286735674122 0.6106330504337086
Cd 1.4983951230549495 7.54934553204605 8.006701057104223
Cd 7.193784725027596 3.816951931783749 1.1230789733414386
Cd 5.275243966444256 3.3041109751008015 3.361796997048124
Cd 6.67841432883782 5.490184749674252 8.731665030038487
Cd 11.08652170344286 9.912140629380016 7.8059878365409086
Cd 8.382203565384529 8.338784857559377 3.6774204663259313
Cd 2.8831277998623857 2.3836033837530413 8.514254591904715
Cd 0.9686756923873594 5.41327987959826 5.878863370430375
Cd 2.981773593366461 8.185751917523461 2.551414152763283
Cd 3.035246543615554 5.518545947874472 3.8556914093726955
Cd 8.464201506864347 9.744699671504293 6.365298467963729
Cd 3.812889088368779 7.878586667853891 9.797955466301786
Cd 8.565163303762448 1.8235843812122052 2.7939478124665045
Cd 5.088746829492537 5.885451921410141 1.7138508809633413
Cd 6.730656819679556 1.0921826481458865 5.012778270627917
Cd 5.853896441743466 4.073161632973657 12.304023204643917
Cd 8.599522055630228 7.899512870052647 8.857974060716783
