5
Energy = -0.51763159 eV
Cd 9.077219810466628 7.475068203549087 7.49582474424563
Cd 6.492679487943689 8.992402529446307 9.013702719519788
Cd 7.017771292150343 11.269460927650766 11.670565119294492
Cd 9.488225247505953 9.98633110231448 9.65226108567065
Cd 11.37101307815081 5.815211688490395 5.708648422619278
