55
Energy = -22.92224079 eV
Cd 7.890700081595544 12.209902960559136 3.1186881101875152
Cd 9.85417240175312 14.68870070391393 3.0648188904698794
Cd 7.882015957290767 7.833041128411746 3.983813036326307
Cd 6.038537161436897 10.115565834080481 3.966031877136107
Cd 12.102576021164213 13.08629810159287 4.177013150519749
Cd 10.597984592707155 11.394973402900751 2.2056313036409705
Cd 10.18391584416026 5.9646093385594865 4.184872811753874
Cd 5.215814036956296 5.489770936525348 7.438131570822568
Cd 5.388693182352836 12.959128323707422 4.623478995060551
Cd 5.629909937711922 7.952019093964108 5.907107506961931
Cd 7.298428213937143 3.0651094037869595 8.005893185955443
Cd 7.720027489046368 5.310297604771205 5.809706042162161
Cd 10.647964028663228 9.055505931667795 4.122024702394434
Cd 7.617037282044614 14.799334193574866 5.006351903159909
Cd 12.519562106223606 7.362387268215858 5.544874112890098
Cd 9.508122514952362 11.340295301183119 5.627418558729121
Cd 6.983516251397168 10.806458021051641 7.115652731148112
Cd 3.4692325300166944 8.887721228480315 7.695675187875696
Cd 11.899478417832706 12.947419610483216 7.043593843384642
Cd 10.65284192499231 5.649021818589996 7.100661577548145
Cd 8.283489497491491 5.929362934951924 8.939427265164207
Cd 3.9499316445649946 11.453243199116912 6.536277066549922
Cd 8.879024140378807 8.429594390402956 6.874787203887663
Cd 14.834540581283385 7.621431074478087 7.240698960269068
Cd 3.2281386698077412 3.8083430769417035 8.968677016565385
Cd 12.729957879339954 12.114018809159631 9.615731294812603
Cd 9.023852792686574 13.85261653828129 7.365128574400321
Cd 14.706929061335476 10.086687498178778 8.984119408958385
Cd 11.62023424100651 8.83533961830351 8.07021761885182
Cd 6.273797046316066 13.339881319718101 8.546705232920921
Cd 5.687680354767307 5.660715606651221 10.747570751216767
Cd 8.609786451287734 13.682467367495343 10.35740851245722
Cd 9.351255012679573 8.381480813061282 10.292652397219912
Cd 2.606777390423496 2.834692553313327 11.65406155247504
Cd 3.1759643773514954 6.70563991079504 9.53875623992271
Cd 9.701422709246087 11.03242220653083 8.76513579259628
Cd 14.434772691244317 7.355639418881725 10.200961344428462
Cd 4.408145756987353 11.288980784760998 9.525214898111235
Cd 5.311019103176712 1.9936080694153273 10.086263654382066
Cd 12.21932055602067 9.654002960005283 11.191884932747028
Cd 11.902196571217031 5.944816049991099 9.689430630167395
Cd 7.140061637324357 10.95829721989094 10.823070503639247
Cd 6.551260726905733 8.404050703536933 8.918848151529367
Cd 10.706680588220202 12.300198783728357 11.72056651421394
Cd 4.274621327987655 8.896580585558482 11.237254999295605
Cd 9.815670211060741 5.238033150039198 11.574008522342195
Cd 14.98751867541095 7.059749779347284 13.134185686548815
Cd 7.987233053336164 3.007414954013751 11.009434264009741
Cd 9.372562682213154 10.038474774343621 12.848382114655124
Cd 5.186074241811305 3.1706983615496775 13.106061487154719
Cd 11.98472184234429 7.093294919761998 12.622900668313623
Cd 6.9592036900642436 0.6391341609474275 12.933319921639109
Cd 6.804536788983185 8.148194216923052 12.424777172108632
Cd 7.2636307522168035 5.220692326907459 13.25169142433252
Cd 9.332585419729895 7.307769799453821 13.868077266442354
