55
Energy = -23.81671959 eV
Cd 11.444430028951334 12.975207406414507 3.740620888963358
Cd 7.493801838337495 9.529321333032115 3.3519907547626384
Cd 10.008260638285382 10.817882381263269 2.2661550414951175
Cd 12.695564053640878 7.495946961891753 5.754411473399643
Cd 8.446325161818912 12.626379168936795 4.165803120962542
Cd 6.056330353486766 11.109821771034941 5.389031183899177
Cd 10.407630242759732 8.24828108563459 3.5488832439431253
Cd 7.883542566016819 7.185606912602378 5.281428065887589
Cd 5.1454830049715055 8.315858726166924 5.328997559156458
Cd 10.434724460918153 5.647160359469039 4.804499240264044
Cd 3.5184433858779474 7.3687791825011795 7.535542262721413
Cd 12.32875034673851 10.298311241250087 4.704357880961956
Cd 11.043467518694863 12.851907688243177 6.668500946513919
Cd 8.546606574680268 4.176514336002037 6.518780485622369
Cd 14.093002216773005 6.123129233060774 7.900655214288641
Cd 7.9838946947245875 12.622537084696512 7.133093012961145
Cd 12.275168471058873 9.982707483364623 7.693622476294929
Cd 6.241471397395621 5.6721272772265365 7.449148373328863
Cd 9.39703582080332 10.054996116900584 5.976681325776257
Cd 5.454786970812561 10.96978335267538 8.243818553594705
Cd 14.973640613834606 3.221133342860785 9.998819989825977
Cd 5.057517884052444 5.832252419981879 10.170995396791655
Cd 3.3119869449630195 4.2926223840811 7.97069902992456
Cd 9.982185356956036 7.543729988486017 7.511596172126228
Cd 14.435209155163482 8.57763708344153 12.372713889865627
Cd 11.977696943674621 7.789645598975078 9.710925487394652
Cd 12.383350855868915 12.944530396387783 9.324543862560066
Cd 4.1499966311841945 8.853218652183713 9.968737002963104
Cd 13.266230176540974 10.524689195609625 10.56653849824039
Cd 11.396499471707111 4.708298675761444 7.391216585312693
Cd 9.03511048774533 5.046234427686907 9.371087226874074
Cd 9.019356643072207 7.9268991237368915 10.450106051411094
Cd 7.686905857790407 10.729621894549325 11.116325085279602
Cd 9.625687730169814 10.519471783219634 8.967816213489257
Cd 6.6105224279308565 13.351593462372685 9.720734132013638
Cd 14.964819887361132 6.264188741934035 10.734261085071585
Cd 7.193505636011756 8.635043387264295 8.01371163649576
Cd 9.554060859470296 13.694241534410144 9.440058335483434
Cd 12.528150204795073 6.277179121725791 12.827297245641393
Cd 5.466153359383396 15.692165586569333 11.246360042697253
Cd 4.046469931818133 9.781480136524058 12.901659531970076
Cd 4.188067713419349 11.892253040549523 10.757168716191483
Cd 6.8494291598778645 10.082537920747633 13.953798000770739
Cd 10.152446414282975 4.542158556146745 12.268992229904244
Cd 8.408679665371634 14.619038142211949 12.038706979710158
Cd 12.239986307498311 4.636962756145034 10.18345171671783
Cd 7.307826712520062 5.061939705621338 11.907432933654224
Cd 6.351381743638167 8.02580481088691 11.878142856035462
Cd 11.251848038088104 9.021449405355025 12.393868827782695
Cd 10.599841222468253 11.878754310836133 11.685011258297655
Cd 5.952535140182977 12.878059948878263 12.99275373450813
Cd 9.695816956937504 9.751237873033297 14.849506949415767
Cd 9.086267926677749 7.131138582215462 13.404057237870566
Cd 11.850357249582734 11.946501222678883 14.707040576879686
Cd 8.826933779481585 12.57922252083265 14.073039212301227
