54
Energy = -24.32861818 eV
Cd 7.739323125356743 10.434604591667751 4.733910573033622
Cd 10.023224588543359 12.374586518693448 4.890028187998377
Cd 6.818926903470701 15.039046165972477 5.109708934137037
Cd 5.6067813187211835 12.43144258290534 4.4756872731690365
Cd 7.917049068773332 7.464131891490205 5.160460797983515
Cd 10.593260108519026 9.454203126190558 5.235687860741264
Cd 10.795122419378957 6.55552859964495 5.659656431570042
Cd 13.195565734812154 11.243976431990946 6.157151520754003
Cd 8.45158065433893 9.620505195312225 7.742659304931423
Cd 5.898428967195032 7.5877437096283575 7.311251614341362
Cd 5.547843876997052 10.654474156081298 6.991429998050729
Cd 9.687819955313174 15.371192450556576 5.626807800702413
Cd 4.475552071229691 9.201360676787782 9.384668674826859
Cd 13.53472200003624 5.718715103469237 6.677439777598
Cd 14.62394429994037 8.032175210347368 8.2108655576463
Cd 12.521990897126129 14.035198101492346 5.457822127544974
Cd 8.477887094261588 4.6705340019175114 6.182620850340488
Cd 13.405436777288338 8.432641350884895 5.4875053245900105
Cd 11.366684309114666 8.445301416181161 8.257387691066638
Cd 8.787067841622665 6.773243637745955 8.582829261618953
Cd 11.03775220847638 4.616959037645235 7.97823858711204
Cd 7.0792931356138356 11.700804985682606 9.660182736941822
Cd 4.694440053531247 13.724170113694585 7.028092090736741
Cd 8.027066624155564 12.94151699228364 7.2102381820834
Cd 10.798478839137479 11.669457815336486 7.817376731493919
Cd 8.579181664283595 3.3133566666838203 9.148296094928046
Cd 5.191379453818603 10.838778291182848 11.786704959428333
Cd 11.326038501418422 14.842796039744185 8.05218172221698
Cd 13.124878439510143 5.740893760376218 9.678191525842172
Cd 12.481140068276423 13.150277800775925 10.235435809031516
Cd 7.459635078810943 8.682919888337597 10.493962109667462
Cd 10.76397962129347 4.173471552870448 10.965801751299013
Cd 13.571246428366857 10.648027848696604 9.115392167135735
Cd 9.380601827522405 13.585141160685543 10.001407920729022
Cd 10.216261985110256 10.396954132265364 10.344168320561176
Cd 10.565223263845064 7.398287489517471 10.973583493314248
Cd 4.0130516452950316 12.522184835045048 9.55970974830194
Cd 6.184028194835076 4.581740516051619 8.010756971022232
Cd 5.317448203623956 6.3181326646188065 10.11074905580726
Cd 7.921272369779303 5.345941076863238 11.349656855354791
Cd 7.878752989565288 12.023375452959447 12.539384697415946
Cd 12.810574670855477 10.856584644113687 12.184059883266512
Cd 13.054735986577187 5.524670319510992 12.613412745399982
Cd 10.647350934446145 12.906784699378969 12.665133567272683
Cd 13.885361961351395 8.28033704722898 11.120008552110727
Cd 9.236114642508154 9.296609564291726 12.879370937288872
Cd 10.276594944714507 5.535720538183175 13.660138411539997
Cd 10.817354107649983 10.974950858107034 14.854621051870891
Cd 12.268321489653001 8.25842258231288 13.644185900714692
Cd 5.090739549904032 7.838036585790527 12.560413445370253
Cd 7.63814476471999 6.897601280196809 13.892605076841523
Cd 6.559431735206759 9.873367264085752 14.289165123959632
Cd 10.122832726038878 7.810587284996635 15.668183753752274
Cd 8.45079895232992 10.128253365792508 16.511329531807572
