50
Energy = -20.49181301 eV
Cd 4.424384993314156 4.738876145047643 0.0813791795418795
Cd 6.126185336995025 2.5085545375908347 0.9459952452285115
Cd 8.100261127568091 4.841711668999733 0.6101093972738781
Cd 6.534577809381867 6.957727129849414 1.85468024082634
Cd 9.83024912013789 7.562950802308701 2.0954924742259324
Cd 1.0458927977286536 4.27988125785815 2.6732490213617415
Cd 3.465667318462978 2.602172431688024 2.2441050230488995
Cd 2.931748873543548 9.663752836790906 1.9469886467609907
Cd 5.722525424718217 4.465570718966959 3.595436659041573
Cd 3.406689591808717 6.577497410434868 2.1948173476145154
Cd 10.847171787213924 4.7421141984974104 1.6622873047241533
Cd 8.27030152502504 2.3369410055381166 2.9252857646204813
Cd 7.8367985396889885 9.40792316324057 3.458339443898904
Cd 0.9766271513505793 9.99249701658327 4.344580031986947
Cd 0.21615555986091392 4.040056042654408 5.948125694652013
Cd 8.305356657231348 5.71681585355085 4.063196046873267
Cd 11.522684220887623 6.579407490871029 4.486711302616608
Cd 3.1218350239772894 4.37308883671518 5.005300914392447
Cd 5.743898958542297 1.2135699707715597 4.197297228961521
Cd 3.85194420209805 11.08413810029352 4.53507922738369
Cd 0.6024149313667152 7.066392489908607 3.459628533924475
Cd 2.886580093746735 1.29431148679254 4.825378326086343
Cd 5.1043700266512255 8.314331769450781 4.013400137943645
Cd 8.429437300510552 1.8195958711017581 6.0023791841805165
Cd 10.442730265534077 3.5944964838223643 4.431749817230585
Cd 8.74091071577014 4.737010512125609 6.913604136935949
Cd 2.5544143325907385 2.358132013510035 7.554130339315244
Cd 2.826335449333662 7.222335749753028 5.439913605733109
Cd 12.056974149503636 6.977046838403613 5.803901525269691
Cd 8.90605306085433 8.054037608571786 5.968171574276554
Cd 12.056974149503636 4.280052050164884 6.806405354462371
Cd 6.546156750441378 9.765458250995229 6.348579034072018
Cd 6.252106598004302 6.434214444107721 6.093589018974242
Cd 0.6922225685248276 8.66950812191666 7.302616969454255
Cd 3.449144005420001 9.732801720097907 7.1509851768973824
Cd 11.021119253121487 6.995246853949743 7.655625738286041
Cd 0.9775932454061518 5.783669724617484 8.21188944271968
Cd 5.452653811974411 8.317757565026135 8.729363401897409
Cd 5.6812377953563 3.3255980506795564 6.464562105492747
Cd 3.947471428729724 5.751650443417546 7.750823034888271
Cd 6.756996406060673 5.325101835565511 9.001571900055783
Cd 10.125431060933707 5.682879868440482 10.387668332803573
Cd 10.195209225616734 2.830611479623407 8.798856914439
Cd 4.623562603387262 2.9675716040082705 9.534880646461692
Cd 2.4617426468409556 8.111403905032047 9.836760213914628
Cd 8.340501818260995 7.923287903727552 9.237139955576486
Cd 7.119723086738625 1.6688866176954673 8.670436348726422
Cd 3.2989776135421347 5.307736446155738 10.713811623795598
Cd 5.76071845976262 6.927701736089794 11.517537315512829
Cd 8.140327617427063 3.469868250887538 10.900128409528683
