50
Energy = -22.18965496 eV
Cd 7.248626958413826 9.484147422138497 12.712188616883665
Cd 5.147064798595839 7.792054241657501 0.9298532641965163
Cd 7.161384629224895 5.532276236060453 1.5564802538402347
Cd 10.044153492444012 5.406614677152814 2.2399579010753294
Cd 4.129322646479448 5.250013029199084 2.104884972505313
Cd 8.771573661162737 10.782227012589466 2.0636977458144576
Cd 9.722599553861363 8.035108905188656 0.835793308084486
Cd 6.119198781835596 3.5693628427971396 3.471563477328593
Cd 2.874728601904117 8.094219032946043 2.9170657462177014
Cd 5.1716884826856875 10.065039928997818 2.925530914907386
Cd 7.599786940055003 8.066148392050147 3.259413312540507
Cd 11.285624392795796 4.312194277120344 4.648584839920371
Cd 8.89030686238729 2.7513004934058314 3.6570845712504183
Cd 1.854350530177958 5.442233673111697 3.9281694813193844
Cd 3.4735376980123314 2.8803994680906384 4.423112333939889
Cd 9.790624223456671 10.34743418831114 4.871802121032713
Cd 8.080183076185335 5.642247884999878 5.135247306762511
Cd 5.075892358841149 6.7586036614241145 4.752674310632888
Cd 6.96075058354474 11.604923314938974 4.7223152166409585
Cd 10.598213838220634 7.453233364478067 4.5154441069899
Cd 6.536291830801364 1.4536915761456126 5.46171980533886
Cd 4.50679015679039 9.986009820581499 5.819042951951868
Cd 9.379748232971718 2.786652785298706 6.600271469457142
Cd 7.22012499521473 8.530586136801336 6.20125099157809
Cd 2.0316142473880334 7.961512703413675 5.762995770936532
Cd 2.7229468533963006 5.027324307047213 6.675208735784517
Cd 10.798472643214767 5.696161646735246 7.09665909675201
Cd 10.38205422779154 8.748593103854429 7.301279054139984
Cd 3.948110876957228 2.0452753987111496 7.258033360721564
Cd 2.4326173198477514 9.965414956729822 7.845306132060146
Cd 8.203295463057572 11.220957122133353 7.3655332660037525
Cd 5.788899206022092 4.46330061962946 6.5213065729791975
Cd 7.8628851129532515 6.431960894849208 8.100307928336818
Cd 4.881435823706277 7.310402603170463 7.710532516238871
Cd 1.8798468616606503 6.995866614847955 8.767392258042237
Cd 7.022796343629492 2.1727947282843103 8.328655915896732
Cd 2.7177390325063984 3.947702544199218 9.394180460358385
Cd 9.29462153779657 3.9822497007482967 9.326063476752811
Cd 4.644350914675402 1.535137490463828 10.098233568700374
Cd 5.656456190545624 10.385534371711532 8.713045333909417
Cd 10.681126435676273 7.029663911269676 9.71984858499544
Cd 5.70039586671545 4.935748298035599 9.473010106481496
Cd 8.555333025889675 9.307198240930362 9.606168266277624
Cd 3.5823406076850657 9.028538043203984 10.35347834766341
Cd 7.189542129920787 2.9684092927146497 11.343180724162789
Cd 8.636458294057618 6.037966727548998 11.525895979154445
Cd 3.4838432925579084 6.227651277500779 11.310487227235114
Cd 6.275182516555609 7.872362146177918 10.680683543063187
Cd 4.039624323519682 3.359392846936608 12.239784931755278
Cd 6.042201547426461 5.412916064883485 12.712188616883667
