50
Energy = -21.91421899 eV
Cd 1.9427886409487387 2.763387505868828 11.308870135291613
Cd 7.051397423793059 6.242603707015212 1.0908175040170276
Cd 6.880892362280815 3.2709026125307803 0.9964987717072165
Cd 4.253012498480977 7.283778789586157 0.9901411266251477
Cd 6.196666883935627 9.034752889396028 2.3457774110916745
Cd 6.394569201215888 0.5358072260743744 1.842896455809028
Cd 9.060796325875348 4.538402049943925 2.66126528934583
Cd 1.2943043352051364 3.837577217902361 2.5180952729871207
Cd 3.0869490173454985 9.473591933158534 2.7750793896036865
Cd 4.259099991536396 4.389910926062628 1.7540784582284628
Cd 7.58156066036991 10.028478051192696 4.730338078976601
Cd 8.775914063777064 1.0076007271121905 3.629103901650725
Cd 0.46745268464739526 5.32723279066707 5.016940345967859
Cd 8.66471668945517 7.588935632532415 3.2610152077209174
Cd 2.7519126070377347 6.505787428024802 3.5229385095955412
Cd 11.016657811954818 6.0840911358725815 4.359281319685705
Cd 3.3082751547267706 12.057713533119028 4.1395644647988865
Cd 5.799507387807998 0.6262668756597083 4.977862227320083
Cd 3.632938844020007 1.5695588663484217 2.891771849815722
Cd 1.0927336091782927 2.4463008959727266 5.195340515638747
Cd 6.6428162578808765 3.3756969510852013 4.157931481213384
Cd 0.5640074530060444 5.409524229142896 7.878573297689419
Cd 10.212239413071257 3.0800303743774595 5.219369584073083
Cd 5.848539933034127 6.191070991292823 4.067991625359649
Cd 1.0075264848718157 8.26569021574784 5.405470309957378
Cd 9.533126354105452 8.251657533345846 6.159630938207384
Cd 3.872587949220832 3.8669357993780906 4.993525561905918
Cd 5.4534128910271065 11.565376053052464 6.190676370063608
Cd 8.203600270662836 5.379697123530738 5.840913352562136
Cd 3.1335331920102534 0.6315873377416096 6.189162690305437
Cd 12.009013212985554 5.255213423402729 6.952643405569303
Cd 4.745362593943911 8.655115827241689 5.14340616504203
Cd 7.893545116326005 1.7139159175805585 6.826413177712425
Cd 2.711842088296855 10.249902495267746 6.669717308372539
Cd 7.820813101588955 10.355346055432571 7.733591832490781
Cd 5.847282267653932 4.263699865621629 7.27219523132184
Cd 6.428296388442756 7.270756348876675 7.120162130040615
Cd 5.211246954762153 1.314562127950554 8.22096570266068
Cd 3.592491804965148 6.213093848946522 6.709036497668899
Cd 9.59231003773746 3.7294988902627786 8.168969875884532
Cd 9.914007706351523 6.744195466447719 8.59393113085215
Cd 2.7168153347414656 3.0732754463278398 7.936386874599785
Cd 4.95353082498307 9.548659647501857 8.60412935433213
Cd 2.197561261662591 8.110027823224511 8.686751508192627
Cd 7.577624374851982 2.277412511358998 9.91581070029937
Cd 7.555112739964808 5.3583650924313675 9.81607379775491
Cd 5.000351756624145 3.6652500793910994 10.297014326102154
Cd 7.74435450949382 8.418761492884293 9.888087858263514
Cd 5.055085373963216 7.054051556638339 10.29161453425901
Cd 2.7218496643468115 5.370982186643947 9.855771175870633
