55
Energy = -24.13078766 eV
Cd 15.40899498472728 9.810275650901659 5.5876880320798685
Cd 12.902631039790275 9.367432256406797 3.8386485665525267
Cd 10.573918724598778 11.335604403874816 4.186249399986781
Cd 11.74508220033689 6.423162635165653 4.371139490762514
Cd 14.643807663489717 6.972457864474777 4.596741298424935
Cd 8.759558842586209 5.76697905157675 4.2180453526211705
Cd 8.98422165264994 9.814408881106862 6.348267506452896
Cd 9.634360875420755 8.576180246410283 3.658274069233257
Cd 7.594972945910313 12.489136242632572 7.31760270783677
Cd 12.967186371326676 11.278769616504306 6.378587294896172
Cd 6.7368661581573654 7.4163559926068245 5.718260031358973
Cd 7.239738149453467 3.983834814576971 6.0134280867926195
Cd 10.540442528316989 12.880953819049179 6.764906980930487
Cd 13.403370268368946 5.849017694723253 7.211445929814425
Cd 5.977972051033059 10.231516371094855 6.176182021810968
Cd 11.805861583516096 8.44704858350752 6.672641804704661
Cd 10.553288416739449 4.503093293918656 6.316191553418608
Cd 10.694940784501252 10.40449837720166 8.8142888890276
Cd 9.090706274442173 15.05028709855884 8.187362782367327
Cd 9.324353837838082 7.029404614799207 7.552891767434056
Cd 13.865680536098637 12.139536050421631 9.164084895777869
Cd 6.411997999371605 5.8729867169926555 8.351031110887051
Cd 5.284937185705303 11.202180065328612 8.923253117999252
Cd 4.695335851555835 8.302129721469187 8.103494740416894
Cd 11.688867814847637 4.4616183641782285 9.060628519444213
Cd 8.665339540725002 3.9828943667069865 8.699367548998879
Cd 7.684990066301818 9.130314549422453 9.021330732811514
Cd 15.883490781099617 7.427314137712576 7.376313596399256
Cd 5.57395124698253 7.251129596907315 10.90029224241756
Cd 11.425236156107076 13.598563919308205 9.69321757773785
Cd 9.852366824323711 3.8442927146331503 11.361623324897014
Cd 4.489723046726645 12.929484099793665 11.229670925499622
Cd 12.431169906654526 5.3294915189586485 11.784931733050826
Cd 6.568931708651655 14.374618990704693 9.695842173544623
Cd 9.538467469475012 9.34356246344983 11.529313042646171
Cd 8.597535451341999 6.614347106432719 10.544016333638023
Cd 13.901551068303483 9.144849221666497 8.733428461645651
Cd 11.483572510026885 7.532734584956622 9.769953388437825
Cd 8.490508327650806 11.861830717392733 10.15788756611824
Cd 9.301809743594804 15.31834293085798 11.107242362630055
Cd 6.40820856636512 10.209844525126044 11.638078079876278
Cd 3.147786921160167 9.067526662696574 10.462075157104946
Cd 4.538777532272687 14.985348835317092 13.50711993372452
Cd 3.195051383758678 10.731182721918579 12.788787172501838
Cd 12.745315729440227 10.43358436937924 11.384771188608157
Cd 5.008468514688426 9.034958123054864 14.578626553205309
Cd 12.123363661759477 7.970338108431985 13.000940884726703
Cd 7.265649058485512 7.66875787711771 13.288802797311272
Cd 9.804399791424514 5.9557427575063775 13.437992683241852
Cd 7.524232251411114 13.582273825448274 12.681946172772282
Cd 11.544480524756668 10.666186395172108 14.158733676213451
Cd 8.322947354573376 10.944479062874132 14.076816191323452
Cd 10.464948013139205 12.640730466326197 12.33164430204103
Cd 5.498997941577203 12.032104735770817 14.254263341649498
Cd 9.692151085595343 8.486819106628639 14.976151823347653
