50
Energy = -23.13110069 eV
Cd 4.0984919994168925 9.828852845578982 11.422495987970123
Cd 3.4329253019935035 3.6328811058024235 1.0514999422020301
Cd 7.206173760510027 10.172274716747257 7.373641741597449
Cd 5.192650248639988 6.236970918115292 0.6781599205540034
Cd 3.4944012546017316 6.8546986879695435 12.411521194252884
Cd 4.665716679454066 9.138302911155213 8.56152750186967
Cd 7.300654514284121 10.03654662402465 4.319492802218959
Cd 6.320620685276389 4.043172513041876 6.637141200101707
Cd 8.109198514759013 6.135930037048482 1.0342054482922372
Cd 2.587515884339596 6.370700326669659 2.130665414666502
Cd 4.68520599089808 4.171908787987733 4.048943209693474
Cd 10.61590087303222 6.372028647450198 5.3075818197754625
Cd 6.79162531289479 8.829345239527527 1.4405904475244098
Cd 1.353128784957618 3.833215442665679 3.0764367887431865
Cd 5.584650273341896 3.2069716150874505 9.62050957150375
Cd 9.888070288075701 7.168001565976632 8.084918763172837
Cd 2.7290473882122024 1.5557755969038347 4.35322520390128
Cd 7.051477010375281 7.057931556946079 6.37454146380563
Cd 7.553070861461979 8.215305389388599 9.572890703262363
Cd 4.793688519057466 10.6748588439993 2.8909846203130543
Cd 9.617028534611709 9.175900926653064 5.966003790724133
Cd 7.70602218278688 1.7897725845936385 3.2697497869546237
Cd 4.655475399817402 9.804644230356802 5.730602129383917
Cd 1.5773101941565488 3.6830215035027347 6.0776015664705
Cd 2.558052535189119 7.208833454438071 9.631685197609468
Cd 8.451722152889888 2.330715809612123 8.959757642628986
Cd 9.638862028532657 4.278410689429127 7.075398996448854
Cd 6.222675041346055 0.6798126668140441 8.022714267602257
Cd 5.623602035494019 0.9415040038720698 5.131335032481178
Cd 7.596353655148528 5.127004600699624 4.112199419967939
Cd 3.7691779416376114 8.826967662534189 0.8760326632080443
Cd 6.425217413693929 7.917511644390807 12.301873149301429
Cd 1.2459907855911094 6.412661152042367 4.721813606275273
Cd 9.35788051158144 3.389284376513502 1.464003332194535
Cd 10.255669817744568 3.353566900475509 4.347850838935813
Cd 2.887551137448218 4.319975130323069 8.808332023217352
Cd 2.5075079293591402 8.923693863525807 3.790424140962517
Cd 4.806529425846024 1.2708711433576445 2.2834443832916076
Cd 6.39594159278836 3.6428090308521224 1.2961413813791705
Cd 5.7301614250374255 4.849220862490096 12.120701808917264
Cd 3.773145134355876 2.0630858899375655 7.20215133763167
Cd 4.025588034275429 6.084091369326328 6.2531640480589665
Cd 9.039388251287637 7.973650905966254 3.246806103250821
Cd 8.49274111933503 1.5885217393645743 6.069408735747604
Cd 2.174526130682226 8.624426811299376 6.815888598278136
Cd 10.812034014915112 5.748733291035298 2.4309326847153003
Cd 5.312438113362413 6.20981360976298 9.019451941491955
Cd 0.7367740833933271 6.1051166736153135 7.6016833497538325
Cd 8.035479999299456 5.222986178226255 9.439024991339359
Cd 5.369056489129329 7.201974497089148 3.8164744363456826
