53
Energy = -23.24436472 eV
Cd 7.234118993313825 4.218095760159832 12.134458846846735
Cd 4.436314962117883 5.375978576935243 12.230011512213416
Cd 1.0107977431840058 8.393291982776159 1.3069648444723272
Cd 4.798401037936341 2.4925771627454725 0.6287204225761335
Cd 6.541557369360758 7.1482993475327135 1.0150421089839816
Cd 2.2281571266769107 4.12436350769922 1.4115870413491804
Cd 3.7776718878997566 8.25513807632404 0.48644639009755314
Cd 3.0603576678983706 1.5790189724270138 3.045258337109675
Cd 7.822556611574077 2.2078031654722836 1.9306092143250533
Cd 9.707667151474048 4.652007163707333 1.206147629647413
Cd 5.762717463512296 4.642077910107989 2.706241265150996
Cd 3.3897277174104605 6.5440986218459845 2.9228942376893263
Cd 0.3819022453572735 5.978651618291421 3.1747269237421123
Cd 0.3939745763574828 9.039896228719439 4.057464059467493
Cd 5.56842853293206 0.1745049005306907 2.3667578506991975
Cd 8.940918455927118 7.261203224022233 2.68268768935496
Cd 3.668323853345303 4.342553510095961 5.028704592393651
Cd 0.7093634172517398 3.1088036933947967 3.853677510983824
Cd 6.7592823192645035 9.274094828200372 3.34091127544813
Cd 3.789595175586555 9.443240371594591 3.7842987019763874
Cd 7.887407785119473 0.08330499656630239 4.24016879105111
Cd 10.461649532112395 1.2773009361609562 3.7664459269120765
Cd 11.579541762637238 3.9575798642963127 3.427229339510758
Cd 6.163114102287847 2.6064051836728384 4.844305847782082
Cd 4.539303566330759 12.35493530033989 5.175794388784413
Cd 8.39606652841911 4.51015136881147 4.119375388995827
Cd 11.173940663950855 4.86907485125475 6.220933650134666
Cd 5.86192547020311 6.79258893966685 4.782580780442365
Cd 2.321814043352639 7.144112422925968 5.718044372294466
Cd 7.291356480076854 9.021579171694052 6.449732283083017
Cd 9.551922375206583 7.345694733999145 5.499687026667512
Cd 1.9375016763626907 10.886523232140624 5.968278044046695
Cd 4.400072338479533 9.350116155862699 6.852622171398114
Cd 2.2783700762224703 1.6713958931399462 6.10654026735777
Cd 9.075619904039115 2.2655227267418736 6.370029451972423
Cd 7.305850901356869 5.097870496626723 6.758915830073746
Cd 0.6853606661015335 4.241497496268105 6.590503655037945
Cd 8.779830417476148 7.167858816449793 8.364940792495588
Cd 11.834326625208979 9.555998889736346 6.872115443416783
Cd 6.983382379584128 12.397116171545223 7.104379737980349
Cd 5.047857412023874 3.4050795746918263 7.502270520566193
Cd 4.640567217626503 6.400548199244657 7.472850480445479
Cd 9.767518591786121 4.0479402973782985 8.682419174080511
Cd 11.57954176263724 6.734965006981099 6.184709674760618
Cd 6.155295452368559 7.937153463803645 9.599571057925754
Cd 1.7639640583212353 9.050666826988266 8.534048008770595
Cd 2.413101469755392 3.057078680210378 8.912168088442966
Cd 7.302479364370745 2.2274128716255346 9.055052932509481
Cd 7.392858588916367 5.086654532649398 10.128996901106202
Cd 1.8065644634602156 6.0147317509907205 8.788162104931143
Cd 4.308854781843785 0.6152435499507504 8.135794893521776
Cd 4.434197878972814 5.095854280749967 10.278428483928474
Cd 3.395234199024401 7.972571538268717 10.677520879063213
