52
Energy = -23.43516782 eV
Cd 8.254551941889327 8.469353479185562 3.006316911986959
Cd 5.717659497755688 7.819540613321233 1.2975202393885839
Cd 6.149437640226929 10.654516161627798 1.822500551103533
Cd 5.217519465528361 4.921416643154443 1.7384704082169287
Cd 2.940830745234446 3.4382779204672467 2.7211877656225103
Cd 8.415134877664014 2.77017088599348 2.5764863759560885
Cd 8.00257476686646 5.748799376814307 1.5563032873078966
Cd 5.55697317851068 2.0435759281888126 2.5332309912249307
Cd 2.9457523522669695 6.766585462855892 2.2641440350864706
Cd 11.389781727949849 7.517728347744704 4.441414313617423
Cd 8.269618452505725 11.918611632303344 3.3292817516123474
Cd 3.6877343342382223 9.568533784732768 3.1902364440089825
Cd 1.3838851373533512 2.896399213230429 5.150974571510176
Cd 10.014606115269832 5.094403410172491 3.554850411541662
Cd 7.235355481607275 9.490418978493885 5.882165230390744
Cd 7.186907494866356 1.3847569066604157 4.992807648764859
Cd 5.562585298665605 7.457175703006451 4.434848614961731
Cd 5.441756828917463 11.67989594368615 4.634265101694628
Cd 0.7500478417297545 5.353751308281752 3.6447991445126546
Cd 10.23828491287575 10.215003035905445 4.5606892734559255
Cd 3.8396503257108106 5.324090537904698 5.44420834673426
Cd 6.607078004880541 4.587880867890381 4.519163354715262
Cd 9.607156842313907 3.008037549372618 5.5642431547749975
Cd 4.327270843257843 2.2654828138102685 5.5738637314480455
Cd 1.7945101576034048 7.93167451557591 4.875488912946096
Cd 8.361413346936725 6.72446490845892 5.777943516585878
Cd 0.7870987976099074 5.483575569943127 6.62529394452107
Cd 7.670113295279859 13.15932683959129 5.982032173476663
Cd 3.9659258828998167 9.72805661424039 6.2141401403860455
Cd 11.157979475876575 5.396878373388971 6.5714052599984445
Cd 6.665890590674221 11.82473761136607 8.378943554129002
Cd 9.726389232218487 11.429888211997392 7.312639836314049
Cd 5.7922049305256245 0.22436173380877245 7.355226070948552
Cd 5.725371945924834 6.8955536594495115 7.441100406672559
Cd 10.494540848415912 8.505545421495336 7.160408900079565
Cd 1.9579446085868528 2.3810562806974884 7.923026704900803
Cd 7.457459897101095 4.368089814653883 7.403435964105039
Cd 8.701051748190238 1.1716429985765446 7.780257695896601
Cd 7.98963449242697 8.959580334643732 8.759769834864068
Cd 4.652601143956239 4.1968589247595585 8.176829232582744
Cd 1.9222466950788308 5.205004923403146 9.312042100505534
Cd 2.655641665138413 7.621474366227571 7.738852348767459
Cd 10.371453306139081 3.4517847236901438 8.628638606937026
Cd 4.936131070003012 9.510076365859215 9.016254860503203
Cd 9.660956217433192 6.388248941494053 9.168550543772923
Cd 3.8018524851530886 0.6768420801249525 9.37106109285364
Cd 6.9458172984256965 6.786160001941889 10.408944993936656
Cd 4.031722431191705 7.0391534845309165 10.437513965246357
Cd 6.473571660360468 2.052350375885425 9.714636104786287
Cd 2.826641689450317 2.9662809419390093 11.037773706137102
Cd 8.34975231619813 4.103157259280841 10.671259637066678
Cd 5.375544792115002 4.417384347170759 11.316174360442835
