50
Energy = -22.57812758 eV
Cd 3.561860779001315 6.79153967371961 1.0998714308352535
Cd 5.809911591392466 1.1204704116313704 8.120511130221336
Cd 3.3267649390160057 8.739166934942318 3.631892700938913
Cd 10.35755141825381 8.231625439584654 3.377820889692439
Cd 5.542255035309585 10.671488949457961 4.107412941865095
Cd 9.460594023077016 4.11458467577871 10.459358499609527
Cd 5.190143863468119 6.2503201744944334 4.080054444369839
Cd 10.172675170273555 3.198139476908612 5.275190415224171
Cd 2.247009192209537 8.368035156518275 8.699860885334004
Cd 7.421318600967404 1.8355061592561366 5.176396514511831
Cd 9.000039030852482 11.33167937173976 7.945685913949243
Cd 9.273614882846543 7.0132004021981444 10.972730017413586
Cd 6.636141543648447 8.510246172855531 11.080084666847803
Cd 5.650858451137439 4.101496543150649 7.007819131358598
Cd 1.7512508563140303 6.146839958784659 3.339084542734004
Cd 7.977725103760539 6.7881035191719326 2.3437451982974
Cd 10.43787134872362 6.646969968347074 5.989061675912628
Cd 2.8002690291489083 3.9095469849608784 1.7250391189903482
Cd 6.997856480664508 2.544644100947499 10.356591329694087
Cd 1.9144798131429006 7.268287803641285 5.9980790545669045
Cd 8.55013541024033 2.6436948792472696 7.794350972182194
Cd 10.27293296239678 9.628332627807206 5.916559622118986
Cd 2.625426463402965 1.4639270194268648 3.2410329880317734
Cd 2.404833096818088 5.341384071370071 8.309645409968596
Cd 7.241153589753994 8.228165297473273 5.149307587073341
Cd 10.386153607193144 8.213906475097136 8.531555195929394
Cd 8.267601911491044 11.541114267886968 4.965207628358671
Cd 9.225091830290657 9.990490734689837 10.623531599429864
Cd 1.383716880033617 0.8630892329772754 5.882884818210448
Cd 8.176583600879589 9.972717954336488 2.4831096068681107
Cd 4.948849500261763 6.987275871326595 6.966862351727844
Cd 7.791833305333199 5.301365458609859 5.270170196860078
Cd 10.51471839900036 5.2735937095332535 3.2338385722181098
Cd 6.892121899452534 11.676098829209835 10.053684113363104
Cd 8.124586734042612 3.5505658690929445 2.6436131372119474
Cd 3.723245814617467 9.786848850303755 6.397478398144999
Cd 6.744458716847565 5.3892011834877085 11.296219398170578
Cd 5.665843724029435 8.705168171821844 1.735322854479174
Cd 4.459323338437511 6.842349625364622 10.039553855444048
Cd 5.933774556407944 4.984009696533204 1.0990855138884104
Cd 5.18884624706748 3.1450118360766117 3.4918064665055413
Cd 4.5164127786835255 0.9816667744235454 5.516656394330499
Cd 4.4964687492061595 10.07382618061352 9.359174982781333
Cd 6.076914709625346 11.47989934836675 7.019351515620208
Cd 4.361402983580795 3.826566035617292 10.066552342569919
Cd 2.9772152638961984 2.4072508006784314 7.844256809152301
Cd 3.0197832927874693 4.399098054791548 5.468995723190307
Cd 7.114743840987616 8.70651249586542 8.029376254085406
Cd 10.900575157409323 4.499146035033827 7.90915604292834
Cd 7.81537946538337 5.846149717613152 8.205688129554396
