51
Energy = -22.73668252 eV
Cd 9.456297441962972 7.207151959978141 3.769286124545848
Cd 0.06691840502242336 4.1835131199467455 6.220876734984492
Cd 3.007657659132382 6.7772548270827695 10.520641786663795
Cd 7.1409686647123465 6.640878281907724 6.343107944438543
Cd 7.420242826427687 1.2937906738175062 8.091077496882747
Cd 0.844589097128289 5.499775413755406 3.555762516640533
Cd 5.3611356277185935 7.562299256115508 1.243046508947106
Cd 4.459342598413271 1.5589121802446468 8.493021132251123
Cd 5.870999540985223 4.5618017848662005 8.345788716476875
Cd 5.414271373198791 5.214558163798066 11.54741659835238
Cd 6.548799063927424 2.594088975192103 10.707200510474397
Cd 9.90460176031421 5.130907384694833 5.901986981357523
Cd 1.3407230566666246 3.4339016999626994 1.1541253454464988
Cd 3.2040326362094134 3.845589496093274 10.034642662391779
Cd 9.725509025617509 4.512909154016717 12.399964983415662
Cd 8.39765663256203 7.3383928198688615 0.6453303701439548
Cd 2.713240800320777 9.884470625432291 5.748301423013644
Cd 3.9239352299871997 4.542577340536802 3.769412428499012
Cd 12.725737094267027 7.437868471826368 3.7130075972711127
Cd 1.8238077640921067 8.627007904556635 8.478444684006554
Cd 5.619827422084366 8.230098830961863 10.618719474291945
Cd 9.269677926252584 4.10284012357362 3.1398747072148665
Cd 4.327153687921225 3.3701731822316456 0.9490492640068486
Cd 4.351746946000217 9.917069681879694 3.1273010284185507
Cd 7.9147621094963965 6.072479433246225 10.273025791335042
Cd 6.875733095484984 2.2217463965975837 2.9173518908030243
Cd 5.8927376626197105 10.020524615756516 5.7687327070287
Cd 6.988450368173974 4.449729108808888 0.721495956279168
Cd 11.536356036441992 7.73697079507655 6.292433451734399
Cd 1.3516205276116493 2.3658333896023462 8.265912119366256
Cd 4.02574503795094 1.4043611212086846 3.273105709146349
Cd 1.2222997290026032 7.110177989598753 6.015576823712881
Cd 6.746519956885608 5.858016433554187 3.395216103914547
Cd 8.787804282410292 2.2310648765392305 5.539906477363364
Cd 5.9120619383284065 0.7751247576137882 5.589949028176195
Cd 8.864964902479462 3.8684811439948015 8.290534116067372
Cd 7.315795688309514 9.404825868830574 8.472910570141568
Cd 7.20823889930233 9.050653984855073 3.202288827018722
Cd 3.356313990175082 4.58607867090286 6.659725574621804
Cd 8.83825976159509 9.302790792012456 5.871757081192179
Cd 1.2711842923053145 2.587550760567773 4.0140718954428785
Cd 1.871959005728546 8.309834233802198 3.273341715210512
Cd 2.949369995013599 1.304912451132242 6.02469637258315
Cd 4.460703464997741 7.22555727208492 4.912091352302144
Cd 9.519348252471955 7.3252375370445675 8.27719023692103
Cd 11.193314881014379 6.397537928346334 1.4301875229418848
Cd 6.176723788903429 3.8598844308001885 5.541106174472424
Cd 4.338621909799912 10.16309082243768 8.289119415101364
Cd 1.0275433977395805 5.5444422745600574 8.6652625807646
Cd 2.8378676581342517 6.15433297868075 1.306875205848212
Cd 4.55292667571091 7.15702816901768 7.813666558631551
