50
Energy = -21.89713398 eV
Cd 5.566262270882092 6.541276970899577 2.101953352274957
Cd 5.48916680727367 3.642696835340241 1.6327354900773712
Cd 8.272413963362315 5.0079971692588785 1.147115575460345
Cd 3.130621259372394 8.314539348934897 1.913830012817309
Cd 2.9917311356904452 2.797002859506452 3.1286205290134816
Cd 8.064805242193671 2.052538688976773 2.23598923297344
Cd 10.667803160148262 3.480222883078927 2.455397696956758
Cd 8.291176598616154 7.902531686571652 1.8507521850402542
Cd 2.510327734187896 5.47148213329472 2.306043271090197
Cd 5.932082243255296 9.621231009988922 2.0896531182928397
Cd 6.979136324635269 7.4256025798499 4.803384298451014
Cd 0.9835350447907393 7.386906911162402 4.145677767356437
Cd 10.394290689913106 6.264448278228554 3.3037043783026596
Cd 4.990821189465348 4.786501256671902 4.782666891038803
Cd 1.8229842016117883 10.443492704185955 3.6030511331846573
Cd 7.877370390182064 4.594910282198651 4.352815814266499
Cd 5.5860658549906015 1.4301118087713611 3.839495596874007
Cd 9.601485837790523 1.8959054299834504 4.8539565641934015
Cd 2.9433580442324963 1.931001417235934 5.873967471591326
Cd 10.49335288293918 9.310218642702592 3.536510117202175
Cd 4.004882580271727 7.634037390157476 4.9779362649055106
Cd 7.853861087271084 10.366914468677964 4.317557682367165
Cd 3.5027732235951934 11.2148117502857 1.062737837949689
Cd 9.764089993447952 7.7142497438663105 5.971955847445796
Cd 10.565054483546321 4.73757938464579 5.910966497370457
Cd 2.0437283430612534 4.974869142456452 5.56584201276441
Cd 5.727912359064644 7.5417689900535665 7.442175510671022
Cd 4.645528200204638 10.596253811979985 4.666060374828636
Cd 1.241372352364045 9.430351707166675 6.2766853382106875
Cd 3.681856135917824 10.208563962239793 7.693770873667405
Cd 2.598686280041308 7.189654937406069 7.801357642893327
Cd 7.585588392369998 5.281358117072029 7.277781581273263
Cd 4.683931991315635 4.722659999458081 7.771789541913556
Cd 6.5077916733595735 10.758321527544487 6.860470666401407
Cd 8.55789468282335 9.239731011890505 8.220415322125953
Cd 11.43848686924831 4.261201811851256 8.727771560632348
Cd 9.163232559736336 2.4961002150215323 7.671383742696827
Cd 6.3803020315118095 2.3982942027199576 6.460923957195353
Cd 4.161186346618491 1.501064288782866 8.468135140606789
Cd 9.996478441879988 6.77956696551852 8.847016809531574
Cd 1.7803427867534283 3.5506966145140377 8.212609841816187
Cd 5.66343873680736 4.823358553734664 10.712779390025572
Cd 5.903572955017672 9.911776725263463 9.696203139993639
Cd 2.3204441910777382 5.567535036088632 10.305321668957154
Cd 6.867910806115563 2.1197814858626107 9.541629511071037
Cd 7.284065661650377 7.1962606517363925 10.219057869394481
Cd 3.4049663956229494 2.917959973135449 10.936842543289563
Cd 8.629115123700766 4.405474219078694 10.180246276533525
Cd 4.279733715745541 7.688476558873055 10.63396087693932
Cd 5.494078473950732 0.7918056057013466 11.932391929696673
