52
Energy = -23.27655671 eV
Cd 6.644338001437255 4.7739021505439405 0.9929013462511692
Cd 4.538212206588455 9.840824858796607 1.4652706813105068
Cd 7.091075475096169 7.816884530859014 1.3187846404607146
Cd 4.379846687652248 6.5640593595498204 1.3374065011474972
Cd 6.85490672672613 10.598234513156038 3.0755242108780556
Cd 8.962937398539882 5.730916904910102 2.5610923444893583
Cd 3.821680377422453 10.259640257454357 4.517002931492013
Cd 4.528352554467772 3.2999374240448196 2.5285077330710832
Cd 2.2682575163115373 8.334740720169021 2.571008095734912
Cd 9.457492838549223 8.759509998506307 2.933474748685574
Cd 7.625326209190847 2.722358289978574 2.996776695198077
Cd 5.965565133995673 11.87723438048164 5.899300406608423
Cd 5.676158107760646 7.891112262843044 4.141462388134964
Cd 6.376440685794994 5.124622313426697 4.3545053493156205
Cd 5.4688036763713335 1.2464036037083597 4.6576130508095
Cd 2.9380260227088892 5.585468887587697 3.7566525848606256
Cd 10.301720275010469 3.5871939817863505 4.169262895667221
Cd 8.676474375124597 10.544399554011841 5.351906478478273
Cd 11.411445310047693 6.494725715522213 4.114365453465239
Cd 3.4011517605206847 0.20817952551870336 6.926333270314924
Cd 1.9256930191240613 7.993030265478518 5.465226846988304
Cd 8.35437572420835 1.3681848697156473 5.5992161175427
Cd 5.6146342491772705 3.5658859845392397 6.757524115472643
Cd 11.282160635710053 9.148554943180669 5.373703656549648
Cd 8.391576170895982 7.12163788815972 5.446151543890949
Cd 2.958206535783481 2.9326550441677783 5.130838003454538
Cd 6.256429092882626 11.87723438048164 7.53346335102221
Cd 6.5364428099884115 8.92494388686199 6.89309108773041
Cd 2.9143517428683885 2.860621954882437 8.117910417929732
Cd 4.389953235314342 6.321889975593521 6.391033461595015
Cd 8.560034425718658 4.342895282458563 6.454556274910597
Cd 3.1737630128833727 10.15541742624806 7.377806030678638
Cd 10.905265325287871 6.7913759387163495 7.291623584490744
Cd 1.4430362651656208 5.146559797958344 6.622339151120331
Cd 11.002993377736086 1.706142432419099 6.9462731638212665
Cd 6.90404343398389 6.136173399989181 8.027436801057537
Cd 7.874311026410774 2.1984639034365703 8.626999102997013
Cd 5.388588604020046 3.711268583949433 9.800585576526172
Cd 9.500721353212793 9.430005040954494 8.000146029508628
Cd 1.506433958904991 7.768832066497355 8.34367703803108
Cd 12.267155980353362 4.344704005461934 6.327613364847256
Cd 5.743799358709967 11.380089352214446 8.798458095955253
Cd 4.579348137519016 8.020083559669978 8.941329528423696
Cd 3.1176924591018595 5.527482738365056 9.460596990085975
Cd 9.311354801981647 6.9910988119057755 9.788019362226875
Cd 10.45371967656009 4.142520152220857 8.854820136118205
Cd 3.2562701621226626 10.988321669049906 10.384385410433836
Cd 8.127965459935188 4.417058810860101 10.674849037388379
Cd 7.293650322455294 9.159392718718504 10.087848076895916
Cd 1.5806662516145589 8.427339215575035 11.20611887517344
Cd 4.453704353555664 8.810452939788595 12.051471722118771
Cd 6.095725884038844 6.493878686467914 11.10801442518214
