52
Energy = -22.21523608 eV
Cd 8.695750049701001 2.443913431837869 8.813680636877388
Cd 7.997493508751869 9.947523114056185 5.771042961794436
Cd 2.172422433520431 1.254750190931203 4.268806545670605
Cd 1.0388828610251366 8.426069159433775 6.5280179483899134
Cd 2.9786458743794384 1.0893798916000768 7.483424605245247
Cd 7.3967192230701215 3.8516552228100305 10.933196565363499
Cd 6.295966340364058 4.199160693857342 0.9363628084958966
Cd 3.163699815134354 3.7475648175925604 5.88627709057252
Cd 7.373283650397435 7.094662292110188 0.4597750751621855
Cd 0.33104269409290876 5.327388045980246 1.6021726611363043
Cd 0.5306790215280544 5.3160459975024805 6.780470079168319
Cd 1.6227427081792072 7.055519983562414 8.9750464922417
Cd 6.564299584144289 4.349045894583144 6.591480032251453
Cd 4.471196901617346 6.30533280613281 13.765388868831081
Cd 7.079754015455166 6.177431471774244 9.037325244725348
Cd 4.053351748227608 6.07680682177663 7.57487615133597
Cd 0.46359162590114655 6.888346583160462 4.127873246660171
Cd 9.28188929139754 5.502794705299655 2.061138985749086
Cd 9.20337013093278 7.7244269446574805 7.576145709876317
Cd 3.4961994769026936 2.0783554540877645 12.884460365569813
Cd 2.0571205818123595 4.657676916545849 13.36517121257727
Cd 5.087121877716408 8.29077710656554 2.106598560917355
Cd 5.497350782880854 4.198355148311287 11.76101714483049
Cd 8.86673031555766 3.529316794719592 4.2565112384022346
Cd 8.520586303542744 1.2938799000039891 6.078252596078808
Cd 1.5505997539937406 2.39198345505111 1.4816515907635484
Cd 6.594806059832786 9.312319975752905 8.379916339151873
Cd 5.248679440444846 1.7427264308136434 11.644651823908454
Cd 2.7003256906903137 5.246730778643372 11.008268547287964
Cd 3.53750280655623 4.670354270204207 2.334122538200328
Cd 6.106924184496117 1.1087756546537713 7.8444608841751435
Cd 6.199241802336604 7.354303545385806 5.875042059249047
Cd 5.414786225946964 10.230463864360976 4.317717487573389
Cd 8.674418219664755 2.45785936333442 1.3755155614153567
Cd 3.5374119903159613 6.486639648429368 4.6689231462638325
Cd 9.415808877388734 6.5135018877152575 4.870647678728296
Cd 1.6282910785365243 3.4439251285009735 8.785752676007842
Cd 2.544188291123044 9.32886989239519 4.026147252495863
Cd 4.8464269910496585 0.1758920138246053 5.311922691022058
Cd 0.6726612251584195 3.8649428639049592 4.148738372449276
Cd 8.001399534976578 8.393919270638234 3.154232084014605
Cd 6.324879008083034 5.6993682418156215 3.5820386619154534
Cd 9.666127345974873 4.6566755824902035 7.206384636721637
Cd 5.464758725224069 2.993185377130733 4.26500258302493
Cd 2.2537581222619973 7.636843403736407 1.486090711512493
Cd 3.8997685163136433 9.378725034694831 6.850301966355174
Cd 4.44771244913895 1.5493174771430613 1.8054589333245408
Cd 7.324191012359882 0.7674586971269993 3.3628325906288445
Cd 5.473099439634086 5.921394799450886 11.76101714483049
Cd 6.5562616049334785 1.719788558639808 13.239947205097662
Cd 4.4045315408178825 8.045495616544073 9.929953505556876
Cd 4.707231255501458 3.5180417877149996 9.106311174184674
