51
Energy = -22.98999914 eV
Cd 7.0793565335093716 10.852870692468992 5.799781637993225
Cd 4.1846723478722225 10.262775010333671 5.5943584021837225
Cd 3.376219185502258 6.37595345539662 5.306094997284746
Cd 6.06215922512111 10.13036262908792 3.0636168969839637
Cd 3.337676970746947 8.81714402890581 2.8549757950982233
Cd 3.2992759499677717 5.912982198902992 2.0063135828367145
Cd 1.5602767076520474 9.098664613234526 5.297509159304976
Cd 5.844078659565299 7.388156591387863 1.83743012057311
Cd 0.8902170498098737 4.188031323321467 2.6084764308678667
Cd 3.3587950170634704 2.8899437316911167 1.6032238556788123
Cd 0.6853511271894202 1.2926396844856125 2.053924394249114
Cd 0.8344797445500804 7.005310451072979 3.451401710672492
Cd 6.0025729940834225 7.714293021874261 5.0929957320475525
Cd 5.690267527186983 9.916860236543709 8.313359464318644
Cd 5.17793314656145 6.392645743046981 7.6744219743017785
Cd 4.5655207779397164 8.142172223135038 10.420044478545286
Cd 3.2213087220836862 3.4743855037480817 4.715564072652618
Cd 2.9942644365505227 8.622530167535535 7.878624777683918
Cd 11.724455068065508 4.733061115527853 5.328673142984954
Cd 2.6384696943487627 1.4271442754093526 7.1350978181564155
Cd 1.9330054578526554 4.411212080372122 7.4313811974872594
Cd 0.5358096037507273 7.060741935409716 7.145463234467119
Cd 2.490561093275018 6.19277400263873 9.714134111345778
Cd 0.5289427986098655 1.690618472702922 5.062771439022761
Cd 5.819593070557588 1.8018689004435584 2.896967427871214
Cd 3.0372246030299563 0.5393468566016614 3.7802028948978816
Cd 5.756214243726958 4.780212912751186 4.097184926442962
Cd 5.33310212920781 3.52833725298315 6.971453016598195
Cd 3.4659187187892773 3.2056517793704846 9.524328770058156
Cd 5.012062678499638 0.38710640706919586 8.586350073718146
Cd 8.137853904429695 4.326950994278145 9.67539951671375
Cd 5.389960756741311 5.270991511277368 10.748210905420782
Cd 11.724455068065508 6.319225561529426 3.1909704166942947
Cd 7.384185506143391 7.353577793862538 9.748956368164952
Cd 6.122739323057666 2.378793211480149 10.365358703158854
Cd 7.784750628313912 1.5025117772264382 8.03867376481965
Cd 5.386339738463661 0.6695566732023511 5.649027983824751
Cd 7.685217103150561 5.263861001389482 6.385220424526874
Cd 10.034850412822529 3.414459905777736 7.480179779121455
Cd 9.929948681793945 6.290520262111663 8.54251732617441
Cd 7.959214806191706 2.135794341305312 5.12714372570282
Cd 8.248540671728227 3.537802296165448 2.4446258511940093
Cd 10.181907724810227 4.073008755852434 4.626663249935562
Cd 8.30283295379048 5.929918979201569 0.5650614799638388
Cd 8.171890434432024 9.373957415196827 1.0732450227803723
Cd 8.268073316793547 6.41178460696311 3.5697666113880695
Cd 8.23249011396295 8.450602710815367 7.1192881915259365
Cd 10.437819459891722 6.956705685496017 5.745409072673394
Cd 10.561977325915322 7.766640698737265 1.0166380652924192
Cd 5.7541110102098845 4.419868016685549 0.9047050187710464
Cd 8.99013381847242 9.24619139236882 4.065333595110442
