54
Energy = -23.77096724 eV
Cd 11.055342450149451 9.164143652569031 3.7391237439791944
Cd 8.636508766769271 8.12471754130138 2.4396303985645194
Cd 3.7654233567172706 10.204571493839925 4.258625475071961
Cd 11.093147603597382 6.470000690410175 5.256741731146158
Cd 6.337776748338943 8.599410126251671 4.418134789885435
Cd 5.911040884459116 12.208621354729033 4.511773498220412
Cd 8.513786187230593 10.785471954331186 4.005349987718614
Cd 8.242776056949118 5.7676069600223006 4.010285054060365
Cd 12.890726893923443 4.101160420471132 4.723619589605799
Cd 8.481659861196572 13.18858585295801 5.740204225759719
Cd 10.456828648780478 11.044544976922314 6.510192208524744
Cd 8.87686059068663 8.328875653285333 6.287411773886195
Cd 3.8690732169176347 8.089284415551298 6.344401851396145
Cd 6.375553132379446 6.308153875682336 6.382637748385541
Cd 3.530639708966849 11.87081962255046 6.649424431402134
Cd 6.043073268363846 13.226911947511944 7.4913379528936614
Cd 8.760482407230604 12.50258364726959 8.646512000039975
Cd 14.433198892966153 4.627997734843153 9.855014671694276
Cd 13.947692451077655 6.143479258743652 7.024317934555223
Cd 6.592457219504652 10.17098625138459 7.038292656193154
Cd 1.2743328717262212 13.169590211273428 8.386141500245564
Cd 8.673538530698606 6.230085504104718 8.694308623285112
Cd 9.176940196521844 4.222389053050146 6.286142101434203
Cd 13.631632744103166 2.984321646366741 7.409902895003082
Cd 11.365157323872987 7.577137914446611 8.19364249227779
Cd 12.872497264839748 9.148389915870151 5.93592844377206
Cd 3.6890445728404875 5.899885784683091 8.321995336969332
Cd 15.095813019068297 8.842437815797291 7.826706563834193
Cd 11.212974864116164 4.488037633682376 8.52102098552875
Cd 6.185521255359278 4.189890733240155 8.414799559441343
Cd 9.11016381228969 9.36281018276585 9.064890048263953
Cd 14.078561760975196 7.485688569998206 10.22004716289562
Cd 8.800746542551632 2.5708637050525414 8.744568325399204
Cd 6.298417607237655 7.920282320814199 9.035508659585354
Cd 3.801518387464155 9.784836011743925 8.774684865075761
Cd 12.50652190033916 10.54300580754202 8.617027818991957
Cd 8.485773184813763 6.317684891950907 11.741501692806224
Cd 10.742648716692285 11.695962543455341 10.766518670239973
Cd 6.578543324521134 14.072568686414458 10.25573460896729
Cd 6.597926570347505 10.719053239727744 10.074529000365676
Cd 3.228691764021895 7.668659625099889 10.784107474829698
Cd 3.9685977944831765 12.671602831696115 9.780606071274503
Cd 10.178270538721183 3.2892861586665862 11.448257531159294
Cd 7.359589894089173 3.533569604113087 11.14897161022406
Cd 11.68138647611588 8.929474267228755 11.184492247550628
Cd 11.36911232553927 6.056642116895033 11.180951052111826
Cd 12.970199985253245 2.518401984336131 11.251909253667325
Cd 8.342318751284866 12.624074073738882 12.134022322792548
Cd 5.278606854693116 5.55177447855006 10.996894718593564
Cd 3.915208573956795 10.359427904013542 11.886047600117426
Cd 8.88964332004525 9.368979142489085 12.102704831224237
Cd 5.048780724680832 13.137557556817805 12.641688566416205
Cd 6.107128146880666 8.205035001730883 12.085901884184569
Cd 6.49619551740111 10.758719115768658 13.580867222238663
