53
Energy = -23.7761087 eV
Cd 9.799468841686085 4.678951734633438 2.1222354341090863
Cd 5.023428600041422 8.114857339695035 1.9763235734160198
Cd 4.7602592081832205 4.9169309949085305 2.2580403600317625
Cd 10.095108943858438 7.672230836740773 2.4567778493322163
Cd 7.393960137637273 6.404981453092465 1.8361059454305269
Cd 2.2953768878118765 6.569185933354823 1.9212705695409877
Cd 7.28029414008096 3.236252999951355 2.7806994564241565
Cd 12.544044320585716 5.576749536380533 2.954590941270607
Cd 7.548501200876766 9.255397241809627 3.051458136909384
Cd 2.458324218174882 9.465055453387924 2.794764989878859
Cd 4.878046810871795 10.768730356622303 4.051446549395613
Cd 10.880466783699532 3.6686946262387794 4.653913815240034
Cd 5.1908943526259685 3.264179599795146 4.953932785401967
Cd 12.574279524810372 8.25526646808279 4.2600647194135925
Cd 10.121092199037697 9.87600725172877 4.590979304387786
Cd 9.700634854211325 6.655808270028001 5.287708862864927
Cd 4.417047257535352 7.835021237672751 4.991926254080731
Cd 2.8908933964080696 5.080407247818581 4.613956001804314
Cd 6.794565776504681 6.012798490406482 4.781485606013287
Cd 7.48123201643392 11.722103125461157 4.881013941988594
Cd 7.28919499766479 8.688471285624711 6.02965066081093
Cd 10.733793150779583 3.8385788349400842 7.561161851953833
Cd 1.138642136056629 7.503803139439579 4.590572823665837
Cd 12.589945022578737 5.876239965858023 6.077696608391771
Cd 2.030382772055482 11.4082122276454 5.0666025265328045
Cd 8.14906542197253 3.213336492499745 5.788580655978283
Cd 4.854344050166359 9.851734440460861 7.253595678031279
Cd 6.850920097257247 11.973689880761825 7.830470404429233
Cd 9.660456286994462 11.615512533654883 6.915861103372936
Cd 5.704366878097722 2.915446117575819 7.893979592782854
Cd 1.9609253780404021 9.172352838301343 6.906539420691599
Cd 1.9870728096335084 6.299302835983359 7.354586579519906
Cd 9.771995909416988 8.738486411875446 7.647433958494926
Cd 2.888997700167509 3.496487262125256 7.205884021136659
Cd 5.134437753499174 6.192924450456013 7.313344035772806
Cd 8.203055242252505 5.742008503294888 7.582447816085313
Cd 11.486614033586816 6.545925101588519 8.676069324274476
Cd 6.854920401738175 8.08426353208287 9.010328275590409
Cd 5.400152098336274 10.782270645070454 10.245292534063033
Cd 8.67104525641966 10.855961941402034 10.04598303294753
Cd 8.51931029467669 2.3306322692319457 8.803893354692402
Cd 3.3878307163379358 8.286415960868739 9.423023593047066
Cd 6.243573097746969 0.8581881548756185 10.222555949579453
Cd 9.648826055025786 7.954623372132924 10.603660833073185
Cd 3.348401614990846 5.097505829837268 9.78567102653696
Cd 6.400868801498271 5.115381091401669 9.786339570833539
Cd 9.55558661098712 4.8500978684139175 10.306360166303403
Cd 7.074021187442439 9.315311739118341 12.11189599565928
Cd 7.582392836830863 3.0636625359022625 11.854867579159489
Cd 4.857403870270039 7.14780957672972 11.627911384006968
Cd 4.404922161949529 2.8840602696567466 11.415771888458075
Cd 7.757751586016253 6.424759950406613 12.235184201849748
Cd 5.61707911792784 4.733147562465443 13.494303274829866
