51
Energy = -22.91120536 eV
Cd 3.961076566997203 4.413925450422465 11.879708657939249
Cd 9.293731483625518 3.0555215716530593 2.0079728554990246
Cd 4.862206768260905 10.14769018249435 6.816441709783201
Cd 5.513768666917169 2.032932438085923 6.2123891506984625
Cd 9.19687251093894 3.151883947454562 9.094880947525294
Cd 9.906401137965416 8.388201541753745 9.173800237775854
Cd 1.8069240171874035 10.27209765407346 5.9318929471430835
Cd 10.243679540131877 11.066132819573196 7.709711945367423
Cd 2.9291583168261415 1.8763847078484344 7.8394754544067045
Cd 4.286267437778604 9.349861954350683 1.5794420186597535
Cd 1.6224450104905777 5.481133013439534 4.206079150749089
Cd 4.923653188601379 4.8307687841342855 4.989068199572866
Cd 5.982001038307653 3.9925043802492297 1.9758338620308058
Cd 4.062050804069832 6.37361649497477 2.2671403614623764
Cd 4.681524693946115 4.490030803757696 8.125670246542702
Cd 7.421558186973397 4.527777039180149 6.798863847844188
Cd 4.271464974955049 1.7288827120293655 10.529747026334382
Cd 6.713065691749479 1.3304743130256063 8.821081041310094
Cd 7.689127302143472 2.0283524893197047 4.174969458145857
Cd 3.578562953084381 7.09018868231526 6.472979290588986
Cd 10.382919959504266 5.617727609796914 7.652983143412192
Cd 6.244796215750056 7.118374414846933 7.8490073842103305
Cd 4.409183968233313 9.128779686965451 9.580843333689268
Cd 6.762066052129561 7.614954463083675 1.3951160244725327
Cd 0.3334986972017204 7.529735466894253 6.084560432473887
Cd 8.974851033954412 1.4053945373561416 6.75846635707179
Cd 6.590547025036857 3.837554879358767 10.490897153905939
Cd 1.7042593051381305 4.784899109749248 7.163083535101296
Cd 11.413586708234186 6.764863271681153 5.081132353507967
Cd 2.6308126101244014 2.7412286083693904 5.080307880691935
Cd 2.9008206583281737 3.6381553609372226 2.172812397140212
Cd 7.686470916097921 5.552966012766001 4.011636722299075
Cd 4.10160279776167 10.93496707947309 4.113376653584284
Cd 5.816019991906618 7.851373252775949 4.706809595349876
Cd 1.5282091205042918 8.88960553562253 8.478926820615476
Cd 8.5858200408908 7.600903886360518 6.159010322780658
Cd 10.606543981700579 5.643815507250785 2.495068820262334
Cd 2.7695738934401093 6.451399898286499 9.639579199859744
Cd 5.595624031657796 6.717741657553722 10.847515931860071
Cd 7.385362125205876 9.845005945082862 8.626108956823023
Cd 12.207952390658873 8.66012280067414 7.309225528052651
Cd 10.623790517135054 9.890979475186876 4.965838737448147
Cd 8.386572486031604 6.053274202824602 9.89074756304033
Cd 2.292987089304447 8.3477955345519 3.6742805446922513
Cd 9.118128742282687 8.220324664952443 3.057338550272051
Cd 10.188948359613585 3.8042911970106967 5.166093625583369
Cd 6.809685883180267 10.274283718690086 2.929376186525994
Cd 7.687529133988317 10.533332738671602 5.710641622132769
Cd 8.21958153783514 5.297261861549872 0.472303472097579
Cd 4.818185323432088 1.5699752135632685 3.3132400124795303
Cd 1.8053174437624404 3.5773397589547264 10.043311060159626
