55
Energy = -24.12389142 eV
Cd 7.330693975611793 7.098399829963364 5.206643082766044
Cd 11.21166700470549 11.559057619735874 4.560905571422704
Cd 9.403045651721678 9.202240007320405 4.444591428426374
Cd 8.4527163211445 12.509815633930938 4.7683271384674715
Cd 10.301102234156234 6.476216480383313 5.281810461909838
Cd 5.438845943132894 4.7611337998987215 5.270446999015554
Cd 8.571698501141517 14.587849224850105 6.823778770965367
Cd 6.302111565896454 2.4937542181000594 7.053633900775436
Cd 12.32257410034302 8.63558930534441 4.60347674926909
Cd 6.6866661873767015 10.175723160804592 5.1103256819755805
Cd 8.535095481027549 4.228448116846907 6.186610651867472
Cd 11.351485500540287 13.221666555881125 7.049877746347464
Cd 14.970879660594731 8.2124846075472 6.004152490356225
Cd 7.423221401107262 15.457924964773923 9.533322621940751
Cd 8.883848245743446 7.725715862966027 7.917666066025003
Cd 13.18933970298776 5.8931893320964095 5.868120421586645
Cd 10.424930837108917 15.520670034566404 8.961095529381787
Cd 3.408995519359302 6.078877095701971 7.132322546572897
Cd 9.410244733725495 10.622815845620776 7.237975258417412
Cd 5.027080223145746 8.467442397400287 6.693712249542987
Cd 6.602288158201746 5.836633997614223 8.192167274681212
Cd 11.60968891995477 8.650113841157681 7.79407293870086
Cd 14.9455401123529 9.436181190840403 8.66653911923086
Cd 3.902867143944528 3.6396426020038573 8.625374636282466
Cd 13.257871546552883 10.83927882399567 6.563207532376488
Cd 11.061974867108463 5.1341535349378615 7.886868607318848
Cd 6.678878588065884 12.380229726690171 7.209257536573956
Cd 4.065551676349066 8.430170386436318 9.46033973818188
Cd 11.789013171410245 11.224226508853448 9.480915385170018
Cd 13.722586900359008 6.642540379845112 8.730834669982142
Cd 14.941250820048216 12.243640353118941 9.421440685998093
Cd 9.346843228119582 14.684521358052383 11.609444158914993
Cd 6.5051378553668 3.0297150946976528 9.971342990587043
Cd 13.164745375205792 14.53976694780378 9.165163090021581
Cd 4.768011251606487 5.66603458554477 10.701766240785373
Cd 9.008743674209862 4.780991556593183 9.939689405659967
Cd 6.798365226207295 9.861899840726291 8.72917479273986
Cd 5.304982667671632 13.429156230200594 9.586383029865065
Cd 13.177312990733046 8.738646484101654 10.921452759977813
Cd 7.431305364367143 7.429421936854871 10.639272866905317
Cd 9.97601287973255 9.117166802807043 10.509245518345699
Cd 4.9973436655853885 8.46375639348402 12.293230286410116
Cd 9.535901369977893 12.120955280975883 12.993519497741916
Cd 11.453284410465505 6.37245591464536 10.728985981521065
Cd 5.793598692581236 5.829714013618362 13.502013362233162
Cd 9.344964992343561 6.498845820176396 12.81496187221593
Cd 7.727149240423092 3.9294279841167987 12.53056869903129
Cd 12.301219688629969 10.666091501125969 12.8334342341683
Cd 4.599733708078975 11.0889611128728 11.060440489750627
Cd 12.1089099868705 13.433457123697254 11.687301571849408
Cd 8.83949651165309 12.219021703707059 9.696661308048133
Cd 7.188647448740104 8.350832550067759 14.249686716512198
Cd 7.493692325446814 10.31234585742725 11.792723970259514
Cd 9.97494728685428 9.217981822571495 13.749586425190586
Cd 8.325350284907467 9.222461465600054 16.943592060430262
