52
Energy = -23.44370032 eV
Cd 7.755796726549955 5.4247633493102 13.1956264019699
Cd 6.1504873116282175 3.4614553579479304 11.893082869113496
Cd 3.3700968338981983 3.703192484612189 13.274704652226907
Cd 4.119294178151859 6.506297957268641 1.188245183175544
Cd 10.096299989917483 6.196536916571841 1.4435705172546518
Cd 5.23414293146096 1.2640445651109404 0.31522759738933737
Cd 6.865186393470935 7.681065185058106 1.5646139301758677
Cd 5.861852289601983 4.131603841122288 2.0269355945333714
Cd 8.777305669379048 3.3480340378232625 2.1773266781606253
Cd 4.605696514333569 8.734026376628135 3.292366859453814
Cd 2.033613164207579 4.532097403061032 2.4943659607065047
Cd 3.8215930480835483 2.0498960911566972 3.078898719367049
Cd 1.8775508032035462 7.553884080002843 2.877904356587772
Cd 10.40354914275867 4.889463390768435 4.215908852849921
Cd 9.62270836078279 7.976476202495291 3.807387587516705
Cd 3.2175968754453863 10.27869973509648 5.462669101225924
Cd 4.368497317406927 5.634224034625189 4.275508738625005
Cd 7.009749697382434 1.0068671712370323 2.633777456733679
Cd 7.476752597140632 5.777429090935258 3.9824113599877786
Cd 0.8134392399945419 5.759543690247747 5.117816201697499
Cd 7.3757822734991905 9.862579668785415 3.518230389765216
Cd 6.0238305200073725 10.905536888729635 5.984210688690924
Cd 6.047386980247749 3.1264044032615996 5.06774954841751
Cd 2.123499454164063 3.2141689087638463 5.2654769067636185
Cd 10.867949346398097 3.958417368878122 7.054749709192969
Cd 0.7055776746889086 8.73926928362982 5.300679782439186
Cd 3.7998657413058305 0.9981396877444645 6.0042190748075415
Cd 6.1984996466631035 7.661383004822575 5.7868794881722465
Cd 8.686957643346155 9.329819345376816 6.313227970342019
Cd 8.958616747733108 2.322325762179698 5.090985139425305
Cd 4.519927996345145 4.502579461541122 7.130126640655741
Cd 10.118798276686675 6.785883431960501 6.556946003230105
Cd 6.734329638974401 13.236294361997604 5.297085349076963
Cd 3.349168582696558 7.226496737071107 6.502791888653205
Cd 7.460175777408098 5.128528082391624 6.929432071581994
Cd 3.2791827167036973 2.0810931953223277 8.77786870600542
Cd 1.215929659085953 9.896102892910399 8.03476762744592
Cd 0.11978975589600746 7.138880214035255 7.853207420941681
Cd 6.008301356541378 1.2586816550144588 7.951861136357423
Cd 1.5335758442165248 4.488059194202079 7.993455199804827
Cd 7.058578309241216 10.158526350763474 8.665443229869648
Cd 5.656628973234969 6.950705033982427 8.667166097010703
Cd 8.79183194066295 7.728526389678465 9.01067969016736
Cd 8.664836951009411 2.316739886416971 8.179172650896977
Cd 2.619760317004519 7.1159498469098965 9.500931589336071
Cd 9.505831126569584 4.852207500218824 9.564305687500541
Cd 4.150715019792255 9.657022209247867 8.380495254745432
Cd 3.47858188931091 4.393836581084181 10.53258178963486
Cd 6.331740317702696 3.6832984796641384 9.676798168229842
Cd 7.367471203439616 6.074497986786697 11.147512217213293
Cd 6.389068448966184 9.029136524987045 11.253492404599779
Cd 4.5749658325356375 6.802872401424823 11.893082869113496
