54
Energy = -24.05039093 eV
Cd 5.035184280849534 10.624543549524569 5.090332516900947
Cd 11.193103106250636 9.865183275004112 3.8413662388189715
Cd 12.330688685320887 7.150387546435903 3.9618625691165676
Cd 6.864744481092612 12.743430130287203 5.834429049221559
Cd 8.19159414330078 10.268540397431545 4.525943703806106
Cd 10.024586282912166 4.45484166372422 4.166578889776449
Cd 9.26538534860005 7.386278760385678 4.290977139749076
Cd 13.374708505432686 8.653910695852783 6.3739171118710685
Cd 7.185080200567319 4.895635036813283 4.772457063254314
Cd 9.177049374427494 13.391324542457092 7.456482734728801
Cd 2.5253080632165488 10.192406375116386 6.725309168099231
Cd 3.214498992544732 8.128262663929224 4.745187841391324
Cd 13.719631002059364 5.621850050859667 6.6610849368688845
Cd 12.983357975192035 4.288292724626726 4.031879337428811
Cd 6.259977561406547 7.844309345960788 4.389880472369655
Cd 4.583052286840495 5.6270124724321136 5.913800016287618
Cd 4.818673835005874 11.337730646431236 8.287301798906386
Cd 10.37977489527775 9.160577622020769 6.904219178854191
Cd 2.106223476313589 6.808489443759803 7.141705236390008
Cd 11.182272593825335 11.9050292908165 5.962798242054931
Cd 7.700754359818028 10.189505527504558 7.566994400194894
Cd 8.977806901902953 3.3638332058855 6.825598115393691
Cd 10.750491204231544 6.164435532903917 6.824430104345012
Cd 13.004806915973486 10.363741552908486 8.840837959792948
Cd 13.946734787479976 10.599119115693238 7.438156394850205
Cd 13.169091512963835 7.292253105211893 9.109381708588149
Cd 5.388247875134023 8.398929663947866 7.2504652293543215
Cd 12.015129947057822 13.125430693449259 8.625924373461395
Cd 6.547510307430861 5.400253451670259 11.011897468507328
Cd 7.953151999997795 6.905659361158651 7.071494464130011
Cd 11.919763991428919 3.1406023286292424 6.520800818020056
Cd 13.719631002059364 7.68143838460898 8.154978096562855
Cd 6.463422092157298 4.302916293531388 8.009746555612528
Cd 10.037450927476222 7.530107556260516 9.46718683256338
Cd 12.257827418009544 4.189870595065515 9.253641145333
Cd 9.845553777812231 10.616701694172093 9.451806283184013
Cd 7.1970924651223225 12.644898798944393 9.562273940445586
Cd 9.188403862867435 4.6041038185313505 9.552074496443334
Cd 12.02575420093347 9.129001424916561 11.40735232819766
Cd 6.005744103612657 10.420272330166428 11.16802575258767
Cd 12.064701474122103 5.922037838050383 11.580691106847238
Cd 7.102013549329311 8.053976642737009 9.623383332952919
Cd 9.814923131958817 14.210706971243134 10.320710440765922
Cd 4.406955018293191 6.168614289425281 9.05293756787955
Cd 11.686770158630289 12.132275852398598 11.518525240575409
Cd 4.604815912742055 7.794202308100062 11.754525294015043
Cd 3.264292177192266 8.96523341170478 9.437049760695611
Cd 9.115804884682719 5.904164195405522 12.319835552116523
Cd 6.723781707101861 7.386000229892843 13.67997626252772
Cd 11.154820192408685 7.58328837454689 13.850103942274684
Cd 8.752770139903525 8.976889404882463 11.846840266094242
Cd 8.604088753051512 11.960992910002409 12.102041530331917
Cd 10.49762460869699 10.633087070860581 13.969530364256158
Cd 8.834731305680545 8.523562893914876 15.379412687398549
