53
Energy = -23.69568429 eV
Cd 3.268972460362949 11.002959403177975 4.83485472303799
Cd 5.729213517885054 6.443808806176206 9.252344883264247
Cd 10.10272929872562 2.097470002555002 3.2999181188296216
Cd 7.2673635565129056 10.000925389803166 7.957157566142534
Cd 5.530406535346394 8.037143086609793 12.607782659436722
Cd 0.06339584089128682 5.590418245883327 8.002646975555615
Cd 5.074755440066324 3.838188070748655 7.518927409087558
Cd 7.111561985444745 1.6273323442438532 8.377150364735453
Cd 9.989946432544476 2.6927474976701857 7.499043004276189
Cd 1.548201654688712 9.92268816247296 2.701631051563723
Cd 5.538914750850047 1.7277239805904134 5.540114834876281
Cd 9.776587025431585 6.254978028106346 10.353928466220715
Cd 7.259145251243431 5.646188255341567 11.927371650240048
Cd 2.7919242234345485 2.1539308929736083 4.74428183393637
Cd 11.325533497564166 4.010865905462682 5.092337033348436
Cd 5.064731746163317 9.36930737835432 9.947449408206523
Cd 4.010233128198095 9.43596040386906 7.2868658427488135
Cd 3.501635349480814 6.498879312376338 7.010689750425495
Cd 10.267097621538513 8.275165084112784 2.552661586064684
Cd 7.719872643170495 9.90281833760545 2.5481510840254793
Cd 4.954262095441751 4.981481863291814 4.764800981621622
Cd 2.790365995099185 7.6624291060573535 10.832334561800497
Cd 6.509315552322899 7.222282899396834 6.520362711954526
Cd 7.335336088904968 1.269520808303374 3.0388172849041255
Cd 11.465233372481451 3.7408898660825596 9.906376960162731
Cd 1.286089351979394 8.975682144214844 5.89211036555843
Cd 7.861912899437002 8.529575766146994 10.554629412634975
Cd 5.595075986785864 3.2872751881460296 10.448629228952665
Cd 5.214171686411861 5.685630019315954 1.423512733884862
Cd 1.1506274220067074 7.089179904150567 3.681911351579459
Cd 6.049265312303814 8.433072213619806 0.6139949126744411
Cd 3.185086631725423 7.858122001256974 1.434176080226711
Cd 4.257297323107559 5.389460150844747 12.077372741596374
Cd 8.571393622891298 3.3750846755426602 10.473320714284021
Cd 7.777373515703469 4.154033702621973 5.121251815907943
Cd 4.9199848585570995 2.798008895947789 2.5058039874133575
Cd 8.517554265008732 6.806863982571237 0.6951683632174538
Cd 8.428691167194426 0.9516904141639336 5.751660741938616
Cd 4.280013244211782 7.823497638371021 4.33202760312952
Cd 9.464845578224114 7.980267002702156 7.869935659840018
Cd 10.398907302376339 5.160938846220475 2.4701264002618903
Cd 2.652691094152129 4.810003709675854 2.6616291185622702
Cd 7.996684514374689 5.061977991469169 7.898903385239999
Cd 7.649474878873518 4.139606510414447 2.018328192942304
Cd 6.172922243690103 10.113426867048334 5.141093266937439
Cd 11.419645201962297 5.5821275897695415 7.5892095690092765
Cd 7.058286937712743 6.963521782941167 3.6271948259309883
Cd 1.001753460438664 8.351978025783048 8.686041512853185
Cd 9.089817498072703 9.501251846431204 5.257040021852806
Cd 2.8293402848689575 4.861480166302199 9.507645416815436
Cd 9.670992041815195 6.56015767398547 5.115813034839471
Cd 1.6020508343464321 4.682194853676527 5.56828597637103
Cd 4.733866882197333 10.50033840962503 2.2977339233031473
