55
Energy = -24.83283669 eV
Cd 6.923938386979214 9.263830581133021 4.933301055451864
Cd 5.143912590873398 6.872337269608389 4.476193736330925
Cd 9.420621512119682 8.327237863033714 3.736241647720879
Cd 10.595618797303542 5.616537984460472 3.6315550568401007
Cd 10.74489732156994 10.876370383555344 4.642981183811257
Cd 3.018878424621779 8.285087282416375 5.883637324804392
Cd 7.6676241965760195 5.511201035089904 4.005021192497548
Cd 12.624195789188208 11.926466746645836 6.632041686417733
Cd 8.119192969225425 11.998966779040265 5.357863922590179
Cd 5.018220445964219 5.416573168896144 7.259246672914288
Cd 2.7116436683120444 10.90356862633156 7.3433978103944515
Cd 7.571708343131531 4.027446136088804 6.683974278187369
Cd 13.00701131980064 5.8196567370112815 5.345757314143911
Cd 9.006115987894509 9.951695449888838 7.532637581444607
Cd 15.051033347292552 10.637204922158247 7.444566263897451
Cd 5.515735862067693 11.367009356991893 6.562235670123772
Cd 10.382406131953143 4.738292560200988 6.459049895232181
Cd 11.339323488372006 8.361106224745173 6.162589852993246
Cd 11.782990725439248 9.777327040047767 8.857250550260604
Cd 14.098591329035012 7.641192830707245 7.400605560613884
Cd 8.357769182062695 7.131842470250052 6.7514632393047345
Cd 10.012463484227384 13.045605976221653 7.379484018232889
Cd 5.632651598936547 8.50878529777683 7.621362325169152
Cd 7.209410651153756 13.514568923652028 7.973130765313662
Cd 6.958853181227907 5.027840211055107 9.515427435435193
Cd 2.2438672144593412 5.897916548675236 7.8581207496638505
Cd 14.973411679884148 9.025939279767695 9.88060550467241
Cd 12.818354422295634 4.860604758332451 8.21611016238373
Cd 10.583524698929187 6.860973913219715 8.859881219895685
Cd 2.1690101870307243 8.552973018968736 9.015040633957364
Cd 4.125218068108592 13.145151900462565 8.669373003807278
Cd 13.578969318654503 6.567756026590797 10.548510194874572
Cd 11.889667597248776 13.396052758047091 9.527208400480124
Cd 6.620223344921536 10.79271858879561 9.35801162340716
Cd 9.610158337687277 3.535005087459653 9.044213267513088
Cd 11.978066152785361 4.038139051563748 10.921385639084729
Cd 4.672776803633073 7.229922747482636 10.166116394637536
Cd 7.503912512177818 14.582644566035679 10.623386312702575
Cd 3.8067069629259924 10.470048140235217 10.521534339643384
Cd 7.9305367921432 8.034438709864594 9.664572571011309
Cd 10.313530440155416 8.605072101398253 11.24831812768682
Cd 9.430069050880416 11.34823102947233 10.116342142677349
Cd 13.830344894342591 11.62023980673279 10.680194446003712
Cd 4.927634908791355 13.112131695415245 11.46887622305533
Cd 9.237354930686715 5.234233403392299 11.48413487871799
Cd 10.150408692873349 14.207314126229923 11.823832201962377
Cd 6.380181243154824 9.229611885998713 12.082842535027693
Cd 7.52703327910087 12.091402646275002 12.326163190473185
Cd 11.806082066502702 6.218230149942376 13.02705108706326
Cd 6.447459803569024 6.242761648378102 12.265312947029777
Cd 13.221833319758666 9.129895684676825 12.312316569969239
Cd 8.803033214311487 10.049812220254372 13.862393402941473
Cd 8.847986939259535 7.139435423681378 13.684482185224315
Cd 11.272102622474609 11.508830236200012 12.567901376407962
Cd 11.427419060290662 8.76644828380951 14.626439922264094
