51
Energy = -22.32360712 eV
Cd 4.698729726242884 5.6109725300762605 0.2854362979905631
Cd 6.9838039836321935 7.399814470359966 11.461064682930296
Cd 4.284775957094484 8.471344079011011 1.0661148764204913
Cd 7.4887824783071775 4.42362768430995 0.5021765542246163
Cd 8.835989091054541 6.822190934218621 2.202539959281931
Cd 1.9753563352612722 5.7639624500392 1.5811344034186123
Cd 7.12362886104898 9.569005433090737 1.853171648102541
Cd 10.055981990919118 4.037400867203262 2.381856838504756
Cd 4.35681896549088 10.105170976528878 3.662910766464746
Cd 4.1409974966037035 3.8055714178072972 2.5091144589266756
Cd 8.603905326985336 1.6780072265154231 1.2209967203321097
Cd 1.9158237422112947 8.648802355449972 2.810926905467533
Cd 7.161448526913434 4.280290712564559 3.6690729175178776
Cd 11.541075081600017 6.714621840586726 3.9653281662244915
Cd 5.904987301013703 7.033613182959977 3.40816864905385
Cd 1.2408901418217757 3.7771340827292135 3.728960194374714
Cd 5.893158251717531 1.4772892414508494 2.732064240089979
Cd 10.18836707716244 3.9673386747555144 5.37979024581679
Cd 3.221150554654345 6.3834801276867585 4.374089110181808
Cd 7.345690680504584 9.712300207915064 4.759209776945311
Cd 3.343041134063008 1.6243492093839584 4.550466614267493
Cd 8.455033592083359 1.4643764762968705 4.329586853674407
Cd 5.021169637160212 11.791639571112333 5.943483626065723
Cd 7.396635824163442 6.37363756870355 5.889190045659858
Cd 5.924491138575176 0.634860389312721 5.727089294812603
Cd 4.8188333132936165 4.2139871079665285 5.5406635741662225
Cd 9.25435011318942 8.894406712254435 6.805687528572488
Cd 7.374108374381822 3.352538737208145 6.701456648935569
Cd 1.5037122696916136 3.082375966219231 6.498175836060166
Cd 4.263354135872917 2.003455942540788 7.656097475692583
Cd 6.684451150444579 10.072054354785571 7.812947003387616
Cd 10.263649837589922 6.9506006678586845 4.7511166681804875
Cd 8.194938647559084 0.22428132591699693 7.572859895944745
Cd 11.375606072784654 6.464930396240738 6.843791137342883
Cd 10.723396786227097 1.1206964043698802 6.230915710399561
Cd 1.6864789188947849 9.033597103446745 5.819292695813681
Cd 2.833162543024867 5.709125679562317 7.167137925694736
Cd 7.4188319139363585 1.5290684957398661 10.064328834580332
Cd 4.930164519129478 7.988178267230282 6.250765197055844
Cd 9.912352501239882 5.870958922626575 7.73479155203244
Cd 2.267538501772545 3.395215271592114 9.34883655218269
Cd 5.629298285029784 5.644238775694478 8.203618965586058
Cd 7.763349352021155 7.576818613439844 9.09385388086222
Cd 0.4070366235445284 5.697845603848056 9.696236050912436
Cd 5.187478513692988 3.4265185519635715 10.151880890277836
Cd 1.8790137992231608 8.111075091140465 8.73684029126421
Cd 3.5711211522101487 10.364225362645454 8.004785807602335
Cd 9.875270499813867 2.7924292822634045 8.540213724999534
Cd 3.392558504782945 5.984396899517926 10.612651663468815
Cd 4.945099666280393 8.351859649326054 9.89854552565113
Cd 8.006062749761035 4.7025542558189 9.96415851306524
