54
Energy = -22.92943302 eV
Cd 7.227639158461214 14.054258266804167 4.631989208923974
Cd 6.197511492986112 9.124634880091707 3.5921636154085643
Cd 10.512966893493848 10.511470033415717 2.5926145338636744
Cd 7.832395089636148 11.613160676725924 3.085383548408394
Cd 11.434082934120662 7.75853934459564 3.135545500331023
Cd 10.229550791828636 12.425511127721562 5.008607529937841
Cd 11.81130696320409 9.022387831692253 6.465797035388258
Cd 13.519582866668616 12.97800978745246 5.0066931711039695
Cd 8.721588280749588 14.109860234536223 7.074441761656366
Cd 8.816715451606573 9.693224743979203 5.561440815516344
Cd 5.583014661615773 11.613547664234936 5.210719282658637
Cd 7.108323490848973 6.909927297145689 5.250802834158076
Cd 13.11867024166893 10.26086172878513 4.095515114883228
Cd 10.05421679183621 6.844898701737197 5.582591751164739
Cd 8.049111033759978 8.110883167552029 8.046189752057229
Cd 11.750874636672519 13.768154952770113 7.255398295839266
Cd 9.108425608449027 4.861216325745765 7.518479708873829
Cd 10.77563777994674 8.523635957157797 9.208243085713748
Cd 10.135556194433144 11.240130730564626 7.987063725356394
Cd 7.087795449987338 11.177138976259537 7.736098546781475
Cd 5.37187404341571 6.083013305830426 7.411524540849849
Cd 13.483987109429357 11.132146621909547 7.5834359601644
Cd 4.673917433739632 8.91809865986413 6.284549651030064
Cd 11.76015564976749 5.867668773425263 8.386842435828719
Cd 6.899130355502061 13.774790887340755 9.379125791486986
Cd 10.107982852052132 14.484938726623477 9.728334846327003
Cd 7.3467474630221865 5.384928311002051 9.773871294754462
Cd 10.301729288918086 3.5563264549605584 10.085381629751597
Cd 8.397608640918659 4.248809889917777 12.415867718958868
Cd 5.3570788620244 9.23327343230988 9.23321459383422
Cd 9.925070088573422 10.758491592552884 10.95619079908477
Cd 13.426536060772284 10.015147964515988 10.27455304283313
Cd 4.296577891688402 6.492198995615903 10.027894593575835
Cd 7.846803835485218 8.249960858159213 10.986632914992391
Cd 12.842387002990188 13.047740467692194 9.953006832680279
Cd 13.47667992119487 11.865095824058407 12.59493243887365
Cd 6.826718328662716 11.281214567402847 10.98996974514606
Cd 13.134878034548716 7.1455247958659145 10.7722422307261
Cd 10.88262554936521 13.509452151872848 12.389982271741262
Cd 13.166899470068921 4.209689485704348 10.946113114900834
Cd 7.9877141936383875 14.397725423802049 12.019304444861735
Cd 10.193679330690552 6.505227642750729 11.310192027048227
Cd 11.210838333065489 3.601487786965756 13.097795690348129
Cd 9.960318705786385 6.107213512135759 14.394047834686722
Cd 5.710626128515867 5.299375490065105 12.335396677410975
Cd 7.18988378620766 7.200992065234474 13.978899904515886
Cd 9.528177377900619 9.046072340060391 13.543597410945285
Cd 4.635734056932234 8.567014770344297 12.081703007422522
Cd 12.57247721716257 8.980201988634645 13.140968348990798
Cd 8.398855822786507 12.013800023486507 13.652897997519387
Cd 11.241758931170217 11.42788550862005 14.506310898008989
Cd 12.885948635650168 6.0409727827946655 13.657843742852775
Cd 6.275970573188642 10.104416750159055 13.853806808904228
Cd 3.107688586528624 6.3476750926935095 13.70781531425598
