54
Energy = -23.78277305 eV
Cd 10.75631369998436 6.56155669483382 3.9922378838260317
Cd 7.8564118565277345 7.119769026675042 3.288377766819217
Cd 5.916027030282743 8.363764473856103 5.229756383909271
Cd 9.806875415416688 9.425853959543732 3.1910675095894345
Cd 12.259352448085808 9.375705813887246 4.859312953560223
Cd 7.478590645513558 10.701353657269083 4.450248510463692
Cd 7.38251935376751 13.412880521820767 5.414179068631008
Cd 6.351696067492363 5.415045558760892 5.565770906709012
Cd 11.853168856560305 6.91867604998586 6.754982528190914
Cd 9.212976321662232 5.418686949866123 6.339079622627457
Cd 10.3286890821447 11.671289813084746 5.267835622409089
Cd 9.390234147866657 11.624857234042036 9.445011275081312
Cd 9.192663647130924 8.64616620758605 6.43286975923404
Cd 3.8953025705564084 7.193568293604962 7.109275072893678
Cd 14.123865695877601 10.293523221827693 6.8728869486043
Cd 11.168273900239177 9.399865533777742 8.587891209266667
Cd 12.882661060391897 5.353089376003187 9.146811506456764
Cd 4.6949828186648075 13.180973329475377 6.675412648617294
Cd 9.750642339147385 6.897415939497372 9.449024635135984
Cd 7.2646262606093 13.639113207700085 8.5011227636434
Cd 7.353632881494206 4.037255941541871 8.320251580521184
Cd 9.871693094604844 14.071763860164806 6.97563152095519
Cd 16.50707841410949 9.643775384307585 9.21968923198378
Cd 12.071836542377268 12.349628316656032 7.882217902590095
Cd 4.094021616488955 10.323657147053181 6.472071302809048
Cd 14.286195437710228 7.752432320944093 8.359418084831747
Cd 7.1726259414546405 10.554893482987945 7.538091177736942
Cd 4.993757931377485 11.999335429912312 9.503177332752506
Cd 4.499047869360709 5.932885267900012 9.899848554056017
Cd 8.735944450345245 3.0407601339239094 10.859544865239103
Cd 9.677546677775947 15.32120040140381 9.565596158630349
Cd 7.490834473691279 12.684081734477454 11.521862587974422
Cd 12.474289651660913 7.906684225253443 10.929942056767445
Cd 4.411468501876901 4.18535430671939 7.566957965211104
Cd 4.783078333263897 9.034415398167695 9.388282753387951
Cd 7.047989133440577 7.203649821187195 8.12107451084774
Cd 13.782494372146774 10.699842930327227 9.98368046986184
Cd 10.474262187102582 3.8085796586174956 8.505838928661639
Cd 11.785012441841346 12.818857157372516 10.889355817339734
Cd 7.862521052463894 9.144898325555333 10.201045018956817
Cd 7.338092106709059 5.708399750051895 11.026306410306107
Cd 12.974579085744962 10.547040331035523 12.885963563258214
Cd 10.218431484843626 9.767965168719982 11.853317432522495
Cd 5.656299761762507 10.394465220978422 12.06725087353225
Cd 9.58506497891936 14.820073764681558 12.384284684104959
Cd 8.013520925371804 10.7283853918625 13.917068468667603
Cd 10.954783945840047 4.886553126259916 11.49558686468005
Cd 10.528414271232336 12.367829596653477 13.554045592318056
Cd 5.1532790388039205 7.526499289702363 12.226299803208317
Cd 7.99575133363203 7.724372821729807 13.10180553220143
Cd 12.556155364185045 8.766458127474133 15.162300087889665
Cd 9.429546473245251 8.527428219613181 15.610004747598822
Cd 10.78971528317157 11.094958741995328 16.139017523230365
Cd 10.91360157662374 7.060904194264268 13.348455872290767
