51
Energy = -22.54300451 eV
Cd 2.425994415643333 4.579174192975207 0.6817743357867708
Cd 5.1000815267903326 5.696189413221926 1.2769187616369106
Cd 4.986026104490537 8.49146061866747 2.3376383262957385
Cd 1.805309208682682 7.318146648090498 1.6124095978257433
Cd 7.635784382042937 6.757979436466625 2.1990901515965224
Cd 10.146677097289087 7.945150287122712 3.061313101468509
Cd 7.11732425311216 3.6159990631920675 2.2471255754909913
Cd 7.692731286774528 9.877135315505635 2.9318165531777027
Cd 4.204660162558007 3.34336377054874 2.9329987416725762
Cd 9.887719396630168 4.937313070654954 3.108200957755557
Cd 1.0895681197691947 4.752763402235122 3.397462199504546
Cd 4.777905500993038 10.666705322376023 4.362936374145755
Cd 4.259015768000938 6.068111064038753 4.311729848005179
Cd 2.4811845093439966 8.632633312848219 4.205287835160727
Cd 12.124232582659758 6.456278291115785 4.774368093480578
Cd 9.709882765321797 9.927595919687013 5.144466904716599
Cd 10.424944634109826 4.005042932881927 5.93242817964756
Cd 4.081249273409649 7.884063052180231 6.795991602603777
Cd 8.9357874804433 2.12538877837894 4.033391304743582
Cd 7.222894605658758 4.9657631387178975 5.038501292728449
Cd 1.642496453787034 5.991433897462082 6.0486610939245615
Cd 5.881305944771043 1.8416383511936218 4.966272878378266
Cd 7.155991129339099 10.93228493176249 6.14728085521519
Cd 6.578389037194411 7.906402283333488 5.087842487048226
Cd 3.4376902848072386 3.4494812164391933 5.826602160546864
Cd 1.0976834083043705 9.344340204676689 6.718936692078939
Cd 9.120757453926254 6.977736335825595 6.1892025775993424
Cd 9.545940025767486 10.335865009071105 8.092872257665439
Cd 8.051696316325168 2.452457652093332 6.908373928002467
Cd 8.10612087744382 5.334569969443938 8.546384076155704
Cd 5.4572821855471565 5.272216218095497 7.338675359027933
Cd 5.1154442033396395 2.2611580120089365 8.036562346700485
Cd 11.896725656267407 5.63840923170867 7.837850345239502
Cd 4.458141830219412 10.82575160248605 7.396165170451738
Cd 2.6887616895595827 4.286751670317189 8.652966167475187
Cd 6.893959930940532 8.063981321592982 8.149186114759996
Cd 11.86595193274373 8.55512086159724 6.902296931266617
Cd 1.432017817817367 7.01172830627957 8.857944927020414
Cd 10.425993296019405 3.2289687814136334 8.983503640469069
Cd 2.4317812442868876 9.771740062682788 9.285989713988876
Cd 6.9425905073089025 11.435525680567487 9.070086350223452
Cd 10.115533053177652 7.562654073031678 9.26958155089352
Cd 7.532648030525765 2.2841301364667634 9.78350537897574
Cd 5.170885371814908 4.178834282966749 10.474095894194422
Cd 4.237804050374641 6.947474828445653 9.722332913242429
Cd 5.1521022571605615 9.625920764337978 10.554772680875667
Cd 11.444536898865728 5.126935793486155 11.03179200761804
Cd 8.16739048632372 9.312338025951115 10.790148394728615
Cd 8.233056936759002 4.4582152947606 11.55790624733947
Cd 6.475671718586618 6.922091512204324 11.56309839415987
Cd 9.551471546013463 7.034381306434394 12.240055376333446
