55
Energy = -23.43780238 eV
Cd 7.399683861102051 6.9524252801689705 3.621590917043972
Cd 11.055189532906324 5.235893076849583 4.131070326779603
Cd 8.005976086690922 9.221426946844463 5.29537441688396
Cd 12.010545315742872 10.056516742411873 4.527157986031935
Cd 10.255839830435054 7.948350495889152 3.5120115344077445
Cd 5.403152706779856 5.081084329912813 4.694095538471494
Cd 4.394299935506538 5.059833276111503 7.537492776156622
Cd 10.057095236982965 7.517300478801478 6.7137319708775305
Cd 8.351651704663977 4.396857306216153 4.967702862462
Cd 8.861916389259637 17.473883582945504 7.566116302853895
Cd 12.900644625095369 6.69166653985399 5.86904486254747
Cd 7.3713891862051435 12.025654318563593 6.10943147182847
Cd 14.26450179933488 9.208437284117185 6.316868619373897
Cd 6.606598412198136 3.0609552146277577 6.892715539904952
Cd 8.457694700131873 14.578962779090162 6.855456506306502
Cd 7.070122498029474 6.791158809103346 7.179760392029767
Cd 6.029005625757559 9.807871070060738 7.6334766184310014
Cd 13.098637348682793 11.898762260015864 6.857053288115716
Cd 10.150470556202084 11.073738510357181 6.719446491949394
Cd 11.114699288652496 13.83395764915622 8.136858473520395
Cd 11.648905651140549 16.60986390155835 6.935956283150006
Cd 10.521929103595708 4.444249681317497 7.0364673025181625
Cd 11.812574665207629 9.288041898065163 8.575605053473902
Cd 12.18808342132292 5.976592088935656 8.919827142345337
Cd 15.133798031399204 10.609417564573588 8.839059619038723
Cd 8.841350776422342 9.069706038832525 8.954903100793551
Cd 4.053281575824028 5.502089576581664 10.682694832684529
Cd 4.168882149505582 7.798669837384823 8.606870590523416
Cd 9.126196439020179 6.018221426333807 9.489683436308663
Cd 8.952223141691183 15.51643697174188 9.862314450208963
Cd 6.535407234885825 12.764559879008827 8.854542453514878
Cd 6.642001157036473 4.445688498469396 9.548572321677112
Cd 8.96093066123362 2.4084544978977562 8.566268290898966
Cd 14.605044191136852 7.629374224256013 8.849083878234888
Cd 6.620696465053926 7.642089409598028 10.387935269004137
Cd 9.670855873161315 11.806266976210626 9.80974292326627
Cd 7.411413318847715 13.764478093473125 11.5170058026159
Cd 13.155213993315323 12.584083975127635 9.810505265999629
Cd 14.666302812334562 9.15798474127375 11.53428918780186
Cd 11.256090014395378 14.266298941800539 11.32830268435816
Cd 11.100755591916986 7.6639516287417955 11.197979203362822
Cd 4.0444252997101895 10.795189399417898 9.794206173322701
Cd 11.980558890444211 10.478474096097035 11.493446555977789
Cd 3.2411084715139573 8.24476918465538 11.361785210536608
Cd 7.039462209453677 10.617836900434726 10.881906163880416
Cd 8.649500960746682 2.8792439718629264 11.45562669242285
Cd 6.401325872976171 4.480008880269265 12.5457802321557
Cd 5.201664415185689 7.111830739600304 13.23877505245636
Cd 6.9369506586313 12.098156412172697 13.860230233379626
Cd 9.404087954988162 9.785626768298954 12.660026596311841
Cd 4.79428166605583 10.245222729548829 12.779560305560022
Cd 8.319328493429493 6.9515793143155 12.810526626830777
Cd 10.499000554003368 4.922688629576301 12.307828173639049
Cd 9.810146266169745 12.66390153608865 13.227719449858045
Cd 7.049082679854234 9.14619093735356 14.440491847883111
