52
Energy = -22.83820991 eV
Cd 8.173376901129831 4.261777988026881 0.5946173063143881
Cd 6.798716708424435 2.0470497582698166 1.8658963460796654
Cd 4.800239377185574 4.269287184145407 1.3427696319065565
Cd 3.5966561770228016 6.846439687987697 2.022368009988753
Cd 8.623043758987608 8.680445982826308 2.791680933387703
Cd 6.57951634655501 6.827686362512496 1.081556342748901
Cd 6.380088071925963 9.847107910392566 0.884554223255273
Cd 2.078027290373468 4.31833742680655 3.152198508290318
Cd 4.35864171530971 2.24112436070983 3.6032870471906393
Cd 9.516869635897141 5.871660274513795 2.7542737578282703
Cd 9.338150841520113 2.8506322117429055 3.370607707895573
Cd 1.9370260875335237 7.973873125051275 4.372594814029854
Cd 6.612045371553117 4.809426481582797 3.762390859325417
Cd 7.11102784780793 1.1245536573497104 4.669454869927519
Cd 8.954881931618273 10.486889485850234 5.263759673635797
Cd 0.939170512689277 5.337374198595467 5.90201506589796
Cd 8.872132639505569 12.061591032336551 7.988941953707649
Cd 5.9081523517103385 7.862200419397982 4.1445718501763205
Cd 6.4422266663482 10.86257799231356 3.675947143758408
Cd 10.708961775288483 7.849459058007213 5.236769752136602
Cd 4.089946204966025 5.717317788685641 4.939427531785186
Cd 2.1643902767254803 2.4964304203355057 5.681912722532432
Cd 8.101462692602126 6.541625651801671 5.5328223039575875
Cd 3.8087027756645 9.733605173245577 2.5412185352706853
Cd 11.053829076238243 4.680692503363136 5.165938565304178
Cd 5.151839742146236 3.260336941190485 6.250654097494634
Cd 5.8449619538900555 0.41533024205238395 7.326015285599471
Cd 8.086694362585792 3.6324827988653365 6.176315060808204
Cd 3.6661510490049123 10.316070111484144 5.487641425592469
Cd 3.387436951250545 5.123552729338753 7.811482341551205
Cd 6.111855135067891 11.711150850405279 6.569073767121701
Cd 7.109251986759652 8.810537688534804 7.071778519843325
Cd 4.375787946311045 7.837690238387681 6.925315481611999
Cd 10.33911848310462 9.391333834153487 7.7859769502786005
Cd 11.03161530996183 1.6501218123301815 5.7058596040462835
Cd 0.7302222745671624 3.0199337252272587 8.254902265400302
Cd 9.758524828385976 2.7957281109382612 8.499528476215024
Cd 6.3749357101065325 5.704832616079309 7.732690670415555
Cd 9.988492197749455 5.799809643811234 7.840843125305706
Cd 8.817874338345572 0.321181251954651 7.106438938376203
Cd 1.3730195290078628 7.965398883182631 7.364093000443418
Cd 0.24138373119006612 5.802324534368032 9.159648492119334
Cd 3.653415679014984 2.1051536733878673 8.690302953319742
Cd 8.576254631393166 7.813533192796368 9.59924483935709
Cd 3.650249227861539 10.344520446878134 8.588748923538542
Cd 8.161802868456622 4.97083001565671 10.191263604964085
Cd 6.5855200860992404 10.813121512935252 9.485332404334983
Cd 6.643752414309014 2.6952768302032646 9.169152872296321
Cd 2.734736310445826 7.25128330362473 10.043635452998299
Cd 5.578310828008729 8.044176037005014 9.889762703887072
Cd 2.264329308958718 4.0717844286662865 10.605334107599317
Cd 5.111421616685628 5.029579945944305 10.62363071440055
