51
Energy = -23.25066068 eV
Cd 9.27369146361466 2.891129674070984 9.709961775454818
Cd 4.385109639298257 0.18708092602982945 6.7498591229925164
Cd 12.449775743542281 5.767634161718327 2.844084502738121
Cd 9.203569206214654 5.883308572854438 10.06547037189449
Cd 3.5620757393888054 1.3553557710786965 4.090141310727283
Cd 9.582778562716522 5.341167232397072 2.145246104070543
Cd 10.20586476894943 7.843996948417599 7.8492137754868425
Cd 1.9148553142325715 4.186039351341586 9.220664179242966
Cd 5.2912756281765585 3.5768705824841622 5.787390017273219
Cd 6.7224084838570635 4.845795614698762 1.657691759012232
Cd 8.551160448777312 10.449851814080878 7.2664645539003345
Cd 3.8101374619623383 3.9962859995331006 2.1628061389020043
Cd 4.395380034466946 2.646854931590999 8.754639674827287
Cd 0.3360808849773142 6.043914361386239 3.5299598756049755
Cd 5.805140948999738 11.010311368580023 6.1175859536972075
Cd 3.9598631783013123 8.330459654828362 10.26190806665649
Cd 1.0664076344703854 5.1898950369192685 6.545051342531885
Cd 6.527184627604334 3.818196481670613 10.485460134229308
Cd 4.537683841927677 5.843082362938867 7.71864644269924
Cd 1.1655186501968102 3.1978581947882763 3.573456702568715
Cd 6.26520854561668 6.264523721722808 4.51736625726716
Cd 7.024754138756399 1.4331510390471867 8.261051009964037
Cd 2.338281214017532 2.5602479758839523 6.526171504397135
Cd 6.047172154631572 10.333978013341971 9.22222646755261
Cd 5.256625038599179 9.540043833548705 3.050265398693574
Cd 12.217317583714996 6.86265819498133 5.620419231572493
Cd 7.517825250837365 7.763343315864667 1.9363713622973018
Cd 7.810060353115031 9.26730735085384 4.589567156101024
Cd 3.372871188500459 5.572407602845923 4.706114397450222
Cd 10.271542119251384 8.039885586145376 3.2809010386796027
Cd 3.8662314975599883 5.346932462159419 11.008558231842356
Cd 6.873024836543352 7.7407520005804455 7.23613153811652
Cd 8.5035778155693 8.986633609182656 10.05304546152695
Cd 4.289892790083709 8.208020466771266 5.745009168582065
Cd 4.531001291052698 6.856712543353064 1.8172549006163992
Cd 6.07440760843748 2.1189473050946988 2.7410165894431775
Cd 9.332772088631994 2.3627912242278435 6.607033092180693
Cd 2.382203758763122 8.30821182882719 3.1517412344790525
Cd 8.077331232693691 3.7712055986641744 4.274675971219824
Cd 11.01203602287553 9.783246941128647 5.55272890900291
Cd 10.758381739100692 4.834726010261988 7.716580290600032
Cd 6.974454610896149 0.8318654783525566 5.287317743111293
Cd 9.046474963064123 6.357814657838685 5.508990636308422
Cd 11.193584654859313 3.879149033423258 4.812008069186079
Cd 1.569654015184385 10.817249876092792 5.334010035075328
Cd 3.860658176960549 11.990439070302813 4.0864091343795454
Cd 3.323147520103149 10.014629282179854 7.866933158043472
Cd 0.9100314556440974 8.05757985627869 5.815786990675969
Cd 7.368330161492131 4.790050847609467 7.495095356657638
Cd 1.9137370916120877 7.262303359513171 8.50946478177994
Cd 6.446480926751173 6.813136979106704 10.309087185279122
