52
Energy = -22.77026151 eV
Cd 4.3445889621970695 3.7581080952517305 12.079680461576363
Cd 6.125848664024785 5.564398004477576 1.8194060149385836
Cd 8.33004800543879 7.570316097489152 1.8081687322108304
Cd 7.059180191025205 2.75966117869786 1.0517039375562018
Cd 3.4329541281179177 6.619418768678425 0.706288937126095
Cd 9.217015972847229 4.6610659582416645 1.8840247498258813
Cd 5.560177929092232 8.602508957678515 1.8856191283804957
Cd 4.381935371772821 1.570166307290684 1.6619966260343255
Cd 2.8348724460760177 8.529699490879802 2.9560735021490734
Cd 1.3739071762938357 4.217981324235532 0.3107506604791656
Cd 4.890226537042857 6.487270588164481 4.470661979709051
Cd 7.777746816851946 8.972046582512668 4.331637249774734
Cd 7.399111176110967 12.345389206679338 2.338515412343365
Cd 10.41416533344984 6.952066380518597 3.7831225440602765
Cd 1.078577225916295 6.207869056116532 3.011845599104205
Cd 8.167744358345905 12.250840746900755 4.633044968094837
Cd 7.832392804540982 5.5003400776701925 4.768088357075626
Cd 1.9768230727505223 7.707807871372231 5.736652993671839
Cd 11.168729055791339 4.040778042771944 4.011152391204755
Cd 4.750372565401202 9.671380977409836 4.748553992992888
Cd 5.010668769712354 12.250840746900755 4.033396709554519
Cd 2.337308599386152 0.9214664453947043 3.628020276186721
Cd 0.4463901466780885 3.2408261626508534 2.935321708606706
Cd 6.025697947691234 3.141498200888138 3.995476273295889
Cd 3.46983731071623 4.254822371771302 2.982952291316352
Cd 9.040038587262565 2.020103485582676 3.566547855018504
Cd 3.0799472656920646 4.301269537950285 5.901790911072754
Cd 0.14836653291178478 4.920372201865904 5.497425485041702
Cd 7.21376279635034 0.8156968235207174 5.798882974684515
Cd 3.9678113009796077 1.4361978789216296 6.415970169111426
Cd 12.11043022115668 2.941130659885982 8.214168562011785
Cd 0.5786349902581739 1.8577668998533485 5.750687318908435
Cd 6.71874224790659 10.612654830523695 6.833330055728703
Cd 6.850995915046726 7.45755520525005 6.716931191276484
Cd 9.089979184710076 3.0661902317951437 6.452198290995889
Cd 5.9557505608209045 4.180658879196484 6.795530102647684
Cd 1.6111812538990362 8.346123482044671 8.777930027570694
Cd 6.277108148123385 1.404251208292639 8.495990846361025
Cd 10.416144797565838 8.562327160011202 6.240126688867504
Cd 11.05705977001415 5.470473023900856 6.525810760074582
Cd 9.143739958913894 6.6617630323428925 8.420294843478526
Cd 4.207974528280517 6.563050967912481 7.485421142994274
Cd 0.4071084090146477 5.835075376885223 8.274626174936078
Cd 4.035754137173534 9.62909461251501 7.663823537707881
Cd 2.717911785036493 2.809291487760368 8.793737216890655
Cd 6.490067775526508 9.456858064474092 9.775239215425044
Cd 8.041659430057017 3.9463092697473177 9.048553603181068
Cd 3.8574730013723375 8.60598782428383 10.664670399789463
Cd 5.224774890266776 3.723210370011734 10.033952550060864
Cd 9.019360997198772 9.774686870806423 8.45061161082726
Cd 6.3868165344238665 6.487671616280264 9.76383061256688
Cd 2.955445815471981 5.684357002820217 10.080123758204909
