55
Energy = -22.80316751 eV
Cd 5.697003757940816 7.7382183404579665 4.055378224559779
Cd 12.807385297062277 8.924427323803622 4.6786686710426
Cd 10.392941620357186 6.732312058821516 5.9678676118789244
Cd 9.81412100816422 9.155492891466887 4.385561079059979
Cd 8.419844834900738 16.715836501390502 5.472680174434042
Cd 7.354855893764353 9.784715710207353 5.76034014639726
Cd 5.468898409623662 4.011312373565546 4.303176731007263
Cd 6.157456511909277 7.0988164914550635 7.13494427757466
Cd 3.2151400627156796 5.85327080326078 4.371103037339562
Cd 11.439350508974375 11.500173776263077 5.371650685923715
Cd 15.038402984087869 9.78704622559652 6.573786830920284
Cd 6.466627231237055 12.347474917876623 7.35639115455152
Cd 10.337888406639875 14.2231925997035 5.365785392105176
Cd 7.87438805128636 5.673846012268885 4.960060679706624
Cd 6.20703308316491 14.919413203005195 6.019240378622618
Cd 13.708259867648183 6.941510417209538 6.829244326891793
Cd 4.393170370797752 10.722646451161065 6.147688200118142
Cd 3.240877927584984 8.105762032969713 6.226850741969535
Cd 11.180722809240676 17.140316812259066 6.374241986800173
Cd 3.5741322171852223 4.927124372100989 7.346252202918013
Cd 9.368902043002558 11.28101555310083 7.587996531504632
Cd 11.464857267995447 9.057339378829603 7.619647510514667
Cd 13.968254456505557 9.559782326879963 9.315807232262207
Cd 12.687227175300695 11.968726568180779 8.06665366540779
Cd 11.764564883678693 14.847268988089201 8.11202412052744
Cd 11.772976566146562 5.198065567323002 8.163755873409713
Cd 8.720995410899716 5.20451423549978 8.084585577794144
Cd 10.114816069164123 6.40233870710945 10.39652811260086
Cd 3.738426736478471 7.324599630888532 9.079072388138844
Cd 13.17419933135102 6.817319512255923 10.200224974702573
Cd 12.89239520722793 11.540154714255342 11.311133721011045
Cd 6.322337972259839 3.819626115244901 7.2213023729613095
Cd 5.838029699538017 9.870742058052208 8.96594125021402
Cd 7.792288035751387 9.078334173459051 11.246027968931411
Cd 6.578593528756253 6.329045517376787 10.181757050419794
Cd 8.696696561781645 14.356609982444704 8.042073641376605
Cd 10.60436654016634 13.010240752729876 10.135436134682658
Cd 8.632518764351476 8.332421527464586 8.330235285534487
Cd 4.674775879907556 8.533753753936091 11.528108743140427
Cd 7.738305754080799 12.096180580350467 10.139664047178071
Cd 14.220235941781903 9.025371183629689 12.241561307336394
Cd 11.195820540719664 7.778045110739581 12.805332923448871
Cd 10.640993296727126 9.537048163861035 10.371980829924993
Cd 8.183722089818062 6.382544723064807 12.6834644043458
Cd 9.994374137305718 11.489348623106677 12.637407567666042
Cd 5.36674480240807 9.53167683996762 14.131601681532663
Cd 12.218588484431393 5.891759882227438 15.233913996136907
Cd 7.0260341826486945 11.592174692729753 12.99735968635476
Cd 14.108172630501272 5.989812751672088 12.933409966274716
Cd 14.22640492398347 8.197237500770175 15.1205216321571
Cd 6.416227779992356 6.981715554526001 15.039764077420356
Cd 8.709700828726367 9.397042500845288 14.408572166341717
Cd 12.47685692767729 10.712470259715014 14.208646058452878
Cd 9.378733215748262 6.563135367720715 15.44297722952243
Cd 11.291068866434971 8.78733527464519 16.102305124484687
