50
Energy = -22.51864016 eV
Cd 5.559886948963943 7.29031135660282 0.4109995764001349
Cd 6.830550397890338 4.475631956185294 0.9380958806603042
Cd 3.9773655909891805 5.1080252934383275 1.5338708629086213
Cd 5.635033958081025 1.8653580290779148 1.8077138610163128
Cd 8.453505045707312 7.122712876128829 0.9037042415838986
Cd 2.794851171205204 2.4582606841519588 1.9745366245318183
Cd 4.077846417514292 9.027019330636486 2.2214436155259216
Cd 7.257215706062048 9.514473569535106 2.1962546364152367
Cd 1.5288550424866056 7.660557835090001 2.737638238160524
Cd 8.644442040410274 2.074478851069891 1.9787195988351314
Cd 8.8708798083741 5.028632643776483 3.0595706218790757
Cd 6.032628189416943 3.90030972729857 4.1951963890051225
Cd 0.9842543218727985 4.803190513651933 2.327535657863136
Cd 9.941279961976717 7.8837077438974665 3.3787536977650805
Cd 6.239299633222945 6.916989246328312 3.619582015866055
Cd 4.175817055004401 1.2942769371576324 4.456400385830199
Cd 5.450119886109065 10.773355165859746 4.233938153316923
Cd 11.199011088534613 5.408622149158135 4.948627257476641
Cd 3.0676732086066862 8.959402172434832 5.03530887529741
Cd 0.455373659815913 6.130327397058586 5.074572110183993
Cd 9.773965557694298 2.684170032739772 4.7226487971956885
Cd 1.702557667478931 3.0792267184235267 4.70079115579865
Cd 3.627137491522825 5.740595928585413 4.515999616256823
Cd 7.268821493299955 0.9597231841949517 4.407752163900312
Cd 8.058424162968349 9.382775349430194 5.1259389251866345
Cd 7.85903512583962 5.920081783023472 6.00573014552985
Cd 0.89146432908262 4.168812888752572 7.3106997808579495
Cd 10.439745028095746 7.8718545467112095 6.342460753312144
Cd 3.1590485658365113 2.091536801543576 7.173307833926088
Cd 6.28216502799581 10.880084770157257 7.154423090823024
Cd 4.969660848347103 4.684811459432979 6.895942218373092
Cd 5.506338483583795 7.821744740385193 6.394830589779081
Cd 7.550583576617479 2.8434618725653804 6.8243997159165435
Cd 2.3759782753545124 6.739991058947679 7.293093508539659
Cd 10.32642052740735 3.905408975659366 7.443818464898527
Cd 3.108126261386967 9.491830911205318 8.07579818449985
Cd 5.739496075622335 0.3805676808589406 6.890485277766726
Cd 3.571214697583636 11.953725646745122 6.462130631763057
Cd 8.436117793335491 9.054996855514444 8.191179703859207
Cd 2.97746229928573 4.254431873994322 9.34182287672534
Cd 6.596765682843768 6.337164501126766 8.791811656363137
Cd 9.61665090107529 6.385875726614258 8.871569860590657
Cd 5.535744102720529 2.3703867071729077 9.105826442820058
Cd 3.740443340890129 7.056712210530913 10.007707697702978
Cd 8.196616034285713 3.8299440298272125 9.700941660324935
Cd 5.739168365381617 9.15608122355487 9.518692287313588
Cd 8.32159885159903 7.854397991489358 11.261425569671681
Cd 5.414191953300298 4.587893557211676 11.033974899206914
Cd 8.008438206066005 5.109588079499347 12.531415305754074
Cd 5.639203531668026 7.314952805977933 12.479392275236227
