5
Energy = -0.48583235 eV
Cd 5.912560634515519 7.765402010198274 11.774973765812264
Cd 10.761870768510658 7.896369635789867 8.937545124503488
Cd 6.4022098655972 9.917481315501739 9.17722457773541
Cd 10.428701723713194 7.230110652658498 5.8076433082554795
Cd 8.905228984031142 9.762485982456687 7.10105250063572
