52
Energy = -23.56670711 eV
Cd 4.943500438670273 6.878478439713053 6.533543508610073
Cd 2.2130463508620624 3.877696457584147 7.596775997935444
Cd 9.331506437153775 4.415110703599219 8.711677894498312
Cd 8.635940248544554 5.286326757885005 11.562679889617268
Cd 3.2442210207090376 2.0166850138479164 2.7489201961601912
Cd 7.194941689557101 2.933368177566221 10.632054189097165
Cd 10.861683968480879 6.246570715896553 6.9148696046942835
Cd 8.106351739627145 9.39107285089904 9.138006592303634
Cd 5.572172880675548 3.998656916600847 7.720003378133856
Cd 10.76399434680858 9.132602973598534 7.818734653205472
Cd 4.429609866679327 4.18409311013854 4.979387171303256
Cd 5.632673919926387 5.435561217001958 11.22504090812702
Cd 3.416875495186446 6.084504267171604 9.210028423948316
Cd 1.071851049003899 8.702162906094447 1.5951745193849294
Cd 4.071182080683975 9.1441411960224 2.3114938703550227
Cd 5.188776232842107 8.460623511559215 10.267326090503829
Cd 11.085851303612882 8.595274539553287 4.942397705949531
Cd 6.819690796812448 9.654456691751522 1.568655105565834
Cd 0.6296320030719955 8.78425274907876 4.499972209257565
Cd 5.707866967676175 0.7013425258802103 9.4631565179371
Cd 1.1316164137200697 4.271964426295226 4.793369600638689
Cd 7.439252542912415 4.49878606691714 5.438057602656296
Cd 2.9397362089682826 8.99908378254515 8.441659849844497
Cd 8.002949115264371 7.426997880297131 5.948319248569268
Cd 5.6902444039654325 9.832263350103101 7.464821062970846
Cd 3.1730651050566596 1.059257669241444 8.161416563685858
Cd 2.3871463954854555 1.6314640323321183 5.467942918890257
Cd 1.8057463005989858 4.504451132346886 1.91526709523197
Cd 3.373661049142462 9.393696179302605 5.461670347115146
Cd 6.320781147614884 2.292400536426779 3.20130439056085
Cd 9.960957633307869 5.865462850165732 4.025535953945706
Cd 3.922051085691461 3.1463242457956024 10.229520277778404
Cd 7.7815552371772645 4.676215246956778 1.6367585593033087
Cd 8.341608916277256 1.1596738536794429 5.106405191282959
Cd 3.0969779206467174 6.788408783747247 0.6158215086105339
Cd 6.208280414534442 9.85880976984633 4.509164524048624
Cd 9.51323949812167 3.0159414723149256 3.2272940131360652
Cd 8.61234728085547 10.534700632352685 6.340452382332844
Cd 7.025875563887626 6.481446903865657 8.573298306561163
Cd 5.461855730952707 1.2103937861696235 6.046373151131792
Cd 9.056066807700281 10.006320122636934 3.4373758325586072
Cd 8.812474363528382 7.469956661585612 1.8681934880926734
Cd 6.021556437951154 7.055228246385554 0.41475462066556645
Cd 6.185395938801324 6.714409060463205 3.7078545802439216
Cd 10.051236792343909 7.163271995054372 9.87669734241144
Cd 7.96260845437984 1.934971729805121 7.853193896365708
Cd 3.186064498016271 6.651038097418082 3.9013899349731713
Cd 11.17429487660857 6.316590112939416 3.1324988469436645
Cd 7.613830775586808 8.064509859831714 11.935109597359943
Cd 1.8024951302925531 6.773075273576755 6.645568837305718
Cd 10.318843593473003 3.3670146314814233 6.0556831035193275
Cd 4.799507987339376 4.48722736677209 1.7016664247702826
