54
Energy = -23.72187376 eV
Cd 2.9716869955649448 5.393253322201188 1.7175999831591353
Cd 6.981413705953393 12.21307098415669 2.783736705927835
Cd 9.398390977851465 9.362770222301128 3.903282791268311
Cd 6.579576957846857 9.879914040268021 5.581024223725151
Cd 5.227123735413722 9.93600876280647 2.415806768866837
Cd 3.9589028052907436 7.626014758259341 3.6203988690248474
Cd 5.405325005484283 4.7465381302935095 3.725792287647328
Cd 7.9797768876027 4.678154740748589 5.135455309674865
Cd 10.168495872468757 6.5899610259501795 4.5211763938665595
Cd 7.140828243126067 7.419952358993241 3.7381482945277527
Cd 10.18458590991063 4.959161032887862 7.100938421727051
Cd 3.153645937089546 5.5264139576555475 5.64192531142215
Cd 11.476056237144567 10.608066564289368 5.919095636433904
Cd 9.011500442943273 12.067430771252504 4.843559037721111
Cd 4.162021513147647 2.624529700953476 5.702513164611994
Cd 10.155034719294896 12.983650000128295 7.39843119258628
Cd 13.918375549347891 9.93879752188265 7.503449915934741
Cd 12.9698589147058 4.894407213997184 7.856476456829279
Cd 4.189824059080853 5.946801501758194 8.464753021272669
Cd 3.8661621904641863 8.394576444921018 6.491841998682028
Cd 9.091214248076245 8.671856649416934 7.017828721073343
Cd 6.512153326587887 6.897833969642841 6.661061212267906
Cd 12.19075061798515 7.638529944850396 6.415592621496443
Cd 11.094240335350147 13.918002952465306 10.093493390402145
Cd 14.471763456644272 7.318485492789245 8.448610219553778
Cd 7.289905688220461 12.316645094800071 7.264746569611176
Cd 6.231160056265879 3.7840853834562873 7.425499397351092
Cd 4.545609922051176 11.030596676678517 7.636471482788058
Cd 5.138370000294807 13.222992120267476 9.449651783838611
Cd 7.655282537693805 7.161512926699067 9.3518226619415
Cd 12.7799270637188 11.775934553965772 11.136998601459505
Cd 12.990827454470212 12.53506508078555 8.185136297365892
Cd 11.098704343577383 4.513340226688416 10.400741097076661
Cd 7.48363893800782 10.213921449213837 9.450312724596744
Cd 5.901772132199825 4.4376419276935275 10.341237395461055
Cd 10.561169225157478 10.350893264991099 9.096226468578891
Cd 4.675742717110793 8.72797867757781 9.445177168443875
Cd 13.802427751390487 5.726813923491444 10.801684937340726
Cd 10.816939525987527 7.419589926248077 9.254669787269425
Cd 9.595454276974346 11.864336693441441 11.763327072629993
Cd 5.225627151703053 6.83622541974175 11.747470580826532
Cd 8.560695201118326 3.767191973816147 9.27983436647174
Cd 5.679910975179815 9.758082895770826 12.058835942109047
Cd 13.20900056462232 8.889378346528396 10.678027809598067
Cd 8.185678566287836 13.694677380638431 9.771126470440029
Cd 11.533303105717879 9.880909763778286 13.050748393240001
Cd 6.528009569905388 12.541513670192499 11.96256322280871
Cd 9.126305324161883 8.676353510413922 11.46162293531591
Cd 8.409571332260773 5.482623852242834 11.770863659106745
Cd 11.521443515359746 6.853933131729519 12.38369318553118
Cd 9.561264658151924 6.01657826324498 14.412465932336515
Cd 7.852669840242758 10.814805561112742 13.997889723218595
Cd 7.173236175758109 7.7416565445940995 13.74122524256989
Cd 9.735642588718681 8.858538542011354 15.105935987655442
