52
Energy = -22.68512827 eV
Cd 1.873210674804094 6.367883265458018 8.74599309029769
Cd 7.452167036060251 4.928584548049897 6.586161399398698
Cd 1.0726662110148932 8.240805223681985 0.6390292897113526
Cd 6.062024017999692 9.989347732130282 0.6360390634697597
Cd 3.6108571519957287 6.329217123950179 5.193268310394825
Cd 1.6974666109183896 1.6723280430559542 4.635162574254846
Cd 4.167055875785226 0.5763155703833103 3.46997736187732
Cd 7.160408137425337 7.893898528104367 9.409661035353736
Cd 9.609809261850184 6.992705745357114 5.193219534836245
Cd 4.499877654469874 7.302145211727641 2.5611361280190885
Cd 9.224325126739298 4.043158233573983 4.18522112510287
Cd 7.27265983291081 1.8581753593279888 3.444702176305078
Cd 4.1763886147693485 8.484592215963982 9.066369224624342
Cd 8.13965767412975 10.960885424200015 2.3652732434234567
Cd 8.582172522637965 1.94413909171117 6.242774147478468
Cd 7.19172529861226 7.235100065199152 0.6701238524301302
Cd 2.302563388888135 5.579856925325585 1.0629821832842465
Cd 3.173918188337322 10.142118871808165 1.3202463479905286
Cd 5.034940556476358 10.274278246353376 3.68155437185411
Cd 3.5620639732311057 0.9701340201778771 9.39217931214108
Cd 0.9507427255517743 7.466018041025295 6.285091587055936
Cd 4.198748851666609 7.875119508418832 11.450591660381674
Cd 2.991680788442813 3.9374521532136972 10.207733945712095
Cd 5.931033990596266 0.41879954847200374 11.013766399118705
Cd 4.61155948219105 5.376126382907774 7.722739532287509
Cd 9.91528800348275 3.26314290126231 8.497267943037404
Cd 8.465586421305174 1.9350601866175665 10.715304604922617
Cd 7.2725551128478765 8.060973338896714 3.6312896955434892
Cd 5.044736909173065 3.100700103303724 5.588103793372345
Cd 2.1879593365987975 8.939197098359289 3.9291848723409677
Cd 7.228415615780214 11.935282143387836 8.418264249740279
Cd 9.37717338705811 10.381313018588497 4.897084676198291
Cd 6.104697571240842 7.63321585213963 6.368833800874851
Cd 9.501702321338623 6.308872411040144 2.34717014457955
Cd 3.4791121071050606 0.1892428753440234 6.518367622290234
Cd 5.171997979409979 2.46901960573985 1.4846078277033892
Cd 5.057650604390849 5.055698326902682 0.05888838352709241
Cd 3.2874764629088196 3.936351826247763 3.277115808870476
Cd 6.587566759360623 10.670516861283305 6.196696295028332
Cd 8.968444253147572 8.99011596896914 7.395704944514692
Cd 3.618077075463075 9.473950724718694 6.456019331908258
Cd 5.041655184700382 6.184458101254351 10.675876933323558
Cd 2.3938172831486475 3.0304264262026535 7.413732982557495
Cd 5.674700904572746 3.328919641873665 11.450591660381672
Cd 0.4768050904088053 6.535691000326576 3.220608380446546
Cd 6.2714125772959335 0.09713658972412277 5.6721347712196755
Cd 6.160904656892081 5.159014500707147 3.8005030334336167
Cd 6.042866521598924 2.7711245290037354 8.328423268830292
Cd 9.947425231152032 6.2448458596206855 8.108347824913201
Cd 7.697323108460969 4.181188577971318 1.372281453951006
Cd 7.756544238260364 4.964610826770675 9.88627874354184
Cd 0.96861118980054 4.542226417865777 5.351800849845923
