53
Energy = -23.15480529 eV
Cd 8.410841908759892 3.916417958214832 1.6426844087747723
Cd 5.471553341569383 3.6126773664830227 0.8015044197005525
Cd 6.9458044989181715 6.239364825147293 0.306622408611593
Cd 2.178773009451287 7.477468545392764 0.4653231192539413
Cd 3.2929784913241216 5.044175982540055 11.61273376086952
Cd 4.814297886605965 8.835199284029871 1.1262451436247285
Cd 7.4815794550688155 1.3587021901661904 3.571393341650447
Cd 10.068087402139016 6.484326135746359 1.0004899109270875
Cd 7.72619005939617 8.972925649320779 1.4357475436656615
Cd 0.8198742362193263 6.242841488568391 2.7634789536294315
Cd 2.7104798163694155 8.82926366974453 3.295577414178708
Cd 6.302282016265262 4.308114964691074 4.023480589031598
Cd 2.7252742845745668 3.8587389723317487 2.391024160934991
Cd 4.702388593552382 6.230595124263418 2.470505174684404
Cd 9.31021044104001 3.5166582516309726 4.569579779905405
Cd 0.9466346547245297 2.5936850480251707 4.525266045848811
Cd 5.546443711680529 10.02625567075068 3.822031044461857
Cd 4.6325215481665465 1.5262316073798827 2.7472316651836453
Cd 10.891646541269777 8.76246070568298 2.7447672769289078
Cd 3.882301873858436 3.1000275560793606 5.259587085598741
Cd 8.122072388742717 6.722633394536879 3.597117045456952
Cd 0.6440848055699937 8.208385806496374 5.374531473792192
Cd 8.105546241165861 12.064877360735167 6.457708574734987
Cd 11.194159737215662 6.037101684452561 3.931645771428236
Cd 2.962254452075205 6.138416324102343 4.973600441217944
Cd 8.566084151794643 9.929895318485265 4.13772273840242
Cd 11.87595653218439 5.203135399636235 5.199340530500251
Cd 9.940773261087479 8.073086319284444 6.176191665742694
Cd 5.313260003796714 0.429684290528331 5.471463189970154
Cd 2.1982883356392673 7.686430616201705 8.06362317976333
Cd 10.84263721044659 4.84634428023829 6.758321210367628
Cd 5.634409271290452 7.2692786984020294 5.15238698615654
Cd 10.082601430626804 1.9635120403743633 7.051825896253647
Cd 1.9101322064666397 4.481979924360278 7.169331100962184
Cd 11.567737674367912 6.751069345480258 7.668915403001348
Cd 7.784807345244729 5.802964244925412 6.573306125998114
Cd 3.5266920290588386 9.605284810626152 6.153423026481474
Cd 7.1101772639182945 9.505721704589996 6.629803408320452
Cd 6.7370478500286035 2.939722333243126 6.620897523205303
Cd 11.194159737215662 3.8508249489542763 8.445489364048404
Cd 8.084197795322718 7.869519344744418 8.994436498572124
Cd 0.583621565378811 1.6075186024622057 7.5152311338734465
Cd 4.844365205836411 5.290332560549777 7.334546351243273
Cd 10.831990299496285 6.898967941327693 8.815017037581178
Cd 3.7180610980617916 1.4064082140568948 7.916712168422547
Cd 8.740609679689099 4.193876770003546 8.984061212123732
Cd 0.7423273520034116 5.574863777890706 10.093665588738046
Cd 8.19281586226299 0.9743380522900436 9.204185152178882
Cd 5.116442172599615 8.232648888801858 8.401903221905023
Cd 3.159075522509677 3.6972514800849186 9.8105556351362
Cd 6.370239850417088 5.793458333651885 10.190624273406785
Cd 5.973559352862232 2.907313350157805 9.5694778361414
Cd 3.5448938608769356 6.641987770236148 10.522630915509113
