53
Energy = -23.75773241 eV
Cd 7.20418947740889 5.981212154801254 2.18509863045662
Cd 8.71407438436229 3.671204465184202 3.337109967048443
Cd 11.214417750432514 5.125392349574474 2.9149792273200212
Cd 5.772773578068933 3.3472222985877194 2.6729545766804503
Cd 4.814586929428739 2.097676234379162 5.00966200178288
Cd 12.392989127434653 7.8296394062709735 2.6759558730045785
Cd 7.798928359703446 2.733988332705997 6.054097695085194
Cd 4.404829183251048 6.174003220509831 3.1757359140309522
Cd 9.56428116415984 7.703240068433022 1.8968877366782368
Cd 10.606053652468006 3.9122634098051163 5.844512031596622
Cd 9.232386535347237 6.984489105707969 4.869871995444838
Cd 3.406292083267527 4.969819270575481 5.747809599543755
Cd 2.736736149912131 7.828204546258624 5.091876023564509
Cd 12.210359158697363 6.688541310826764 5.500622399377099
Cd 5.771101386716939 1.307577725882126 7.751770893515759
Cd 4.297993205491269 9.149246300896309 2.9013207659263927
Cd 8.237724151576389 2.65004057534997 9.0805388110887
Cd 6.581718487186089 5.408315247001248 5.363161407505628
Cd 11.48398805284384 5.758957544425745 8.157561561673635
Cd 6.829505964633537 8.922549184941904 1.4860090707769842
Cd 11.828990054225859 9.847761824755827 4.6430092984485265
Cd 3.086614127905614 2.5473965221144494 7.378211237604033
Cd 8.437227698546995 5.456090048812624 7.690636158861009
Cd 5.4380643604161785 4.546292695090465 8.283320153992614
Cd 8.916699981252867 8.324305672384854 7.471988505385801
Cd 6.723265867143655 8.50320430006777 5.036090824322468
Cd 5.304336233256947 1.9875552838820099 10.55236731047086
Cd 11.996384465787893 8.90676693062628 7.554576184410072
Cd 9.886491695132117 4.883460495142731 10.45850260910051
Cd 8.968560640731761 10.158960017028118 3.6231504609697565
Cd 9.759587937940136 11.061366823516272 6.395183599735001
Cd 4.225890113771784 10.393122709808729 5.652376228225636
Cd 6.236266109567998 11.398885045391781 3.1718205204929273
Cd 5.062827218587215 7.31390457243774 7.17539135381911
Cd 2.4836246849635333 5.352407243463861 8.622378652293687
Cd 6.864147307563377 4.581999678699672 10.957993661720243
Cd 6.475325848490645 9.921901275259591 7.763563595289932
Cd 10.533535845887954 7.8533178458399835 10.137532957349016
Cd 2.2513029592257747 8.49347019296103 8.021388245523275
Cd 2.3990853437004374 2.5544213939713627 10.162224781936219
Cd 6.891650718447079 7.315560051161226 9.512869277093767
Cd 10.889390239008426 10.86094434896658 9.427151938029864
Cd 7.054958101926388 12.409053370702457 5.781173739053632
Cd 8.474085867005407 6.968920104229856 12.18783452530283
Cd 3.7376075256607715 4.544360071818003 11.775824617237364
Cd 5.591335681245314 13.361523157901326 8.337464585572055
Cd 3.581439667436602 11.160788936120541 8.414345241301096
Cd 3.9603987905027256 7.286229898616107 10.301151473137782
Cd 8.24277529746579 9.961930598459563 10.629415340868162
Cd 5.542258475732451 6.502119935713163 12.98559174103037
Cd 8.332250091741289 12.28046204694884 8.716253179381235
Cd 5.127488568972569 10.023965510336335 10.629695566798151
Cd 6.594593582905512 9.207073221839797 13.028285250526396
