55
Energy = -19.8981528 eV
Cd 7.117387565866392 7.117387565866392 7.117387565866392
Cd 7.117387565866392 8.726798280398576 9.704747733011203
Cd 7.117387565866392 8.726798280398576 4.53002739872158
Cd 7.117387565866392 5.507976851334207 9.704747733011203
Cd 7.117387565866392 5.507976851334207 4.53002739872158
Cd 8.726798280398576 9.704747733011203 7.117387565866392
Cd 5.507976851334207 9.704747733011203 7.117387565866392
Cd 8.726798280398576 4.53002739872158 7.117387565866392
Cd 5.507976851334207 4.53002739872158 7.117387565866392
Cd 9.704747733011203 7.117387565866392 8.726798280398576
Cd 9.704747733011203 7.117387565866392 5.507976851334207
Cd 4.53002739872158 7.117387565866392 8.726798280398576
Cd 4.53002739872158 7.117387565866392 5.507976851334207
Cd 1.8059600583382276 7.117387565866392 3.7920290545458184
Cd 7.117387565866392 10.442746077186964 12.428813300746684
Cd 7.117387565866392 10.442746077186964 1.8059600583382276
Cd 7.117387565866392 3.7920290545458184 12.428813300746684
Cd 7.117387565866392 3.7920290545458184 1.8059600583382276
Cd 10.442746077186964 12.428813300746684 7.117387565866392
Cd 3.7920290545458184 12.428813300746684 7.117387565866392
Cd 10.442746077186964 1.8059600583382276 7.117387565866392
Cd 3.7920290545458184 1.8059600583382276 7.117387565866392
Cd 12.428813300746684 7.117387565866392 10.442746077186964
Cd 12.428813300746684 7.117387565866392 3.7920290545458184
Cd 1.8059600583382276 7.117387565866392 10.442746077186964
Cd 7.117387565866392 12.450542000000002 7.117387565866392
Cd 7.117387565866392 1.7842331317327815 7.117387565866392
Cd 1.7842331317327815 7.117387565866392 7.117387565866392
Cd 12.450542000000002 7.117387565866392 7.117387565866392
Cd 7.117387565866392 7.117387565866392 1.7842331317327815
Cd 7.117387565866392 7.117387565866392 12.450542000000002
Cd 8.773379443208867 2.791752072990364 9.774504602807639
Cd 5.461397461171786 2.791752072990364 9.774504602807639
Cd 8.773379443208867 2.791752072990364 4.460270528925143
Cd 5.461397461171786 2.791752072990364 4.460270528925143
Cd 11.443022172418393 4.460270528925143 5.461397461171786
Cd 11.443022172418393 4.460270528925143 8.773379443208867
Cd 2.791752072990364 4.460270528925143 5.461397461171786
Cd 2.791752072990364 4.460270528925143 8.773379443208867
Cd 8.773379443208867 11.443022172418393 4.460270528925143
Cd 8.773379443208867 11.443022172418393 9.774504602807639
Cd 5.461397461171786 11.443022172418393 4.460270528925143
Cd 5.461397461171786 11.443022172418393 9.774504602807639
Cd 4.460270528925143 8.773379443208867 2.791752072990364
Cd 9.774504602807639 8.773379443208867 2.791752072990364
Cd 4.460270528925143 5.461397461171786 2.791752072990364
Cd 9.774504602807639 5.461397461171786 2.791752072990364
Cd 2.791752072990364 9.774504602807639 8.773379443208867
Cd 2.791752072990364 9.774504602807639 5.461397461171786
Cd 4.460270528925143 5.461397461171786 11.443022172418393
Cd 9.774504602807639 5.461397461171786 11.443022172418393
Cd 9.774504602807639 8.773379443208867 11.443022172418393
Cd 4.460270528925143 8.773379443208867 11.443022172418393
Cd 11.443022172418393 9.774504602807639 5.461397461171786
Cd 11.443022172418393 9.774504602807639 8.773379443208867
