52
Energy = -22.60478673 eV
Cd 3.0774147431928793 5.762206610610998 6.312808993052569
Cd 1.1585259038402562 5.65675698767617 8.522439322768493
Cd 4.897907905442767 5.710187203542371 4.032737948677749
Cd 3.2875273827580376 3.8413547976975715 9.721489905208976
Cd 3.5120038210801248 6.931609752647771 9.96934305199978
Cd 5.476143610238485 7.15012830054683 7.547716199658691
Cd 5.512813378537257 9.23754285425835 10.610495202616686
Cd 5.34055776948483 4.01870153212775 7.45194809422098
Cd 5.263084387068162 1.6651823168556446 10.51808434883172
Cd 10.598699790055878 5.521388977743482 5.450107296863583
Cd 7.590593567055628 5.450955251615386 6.311202500846665
Cd 6.159330154944115 5.488646383125634 10.083296251350744
Cd 6.712138591154335 1.1307279351303303 7.5310705996721214
Cd 7.733442983855522 3.003957723881419 9.601567151994738
Cd 9.806715409217228 8.002113227193092 3.9937522489419015
Cd 1.721352115811469 8.106724824146086 3.40733057422159
Cd 3.53578027376924 8.667653510181635 5.692615448765879
Cd 5.625665328167402 11.025751434593435 5.305383529356117
Cd 4.306241446965846 10.318618085842909 8.095299198156376
Cd 7.219045025970312 9.838216118129266 7.615820399054581
Cd 7.4518872458564775 9.921630631866218 2.552259111302691
Cd 6.708582217420022 7.927530195495718 4.890455766700324
Cd 8.818147518869385 10.64377998008007 5.107571166512734
Cd 9.37152046864909 7.869781933562344 6.991027999465767
Cd 9.20356526153933 5.44859001888092 8.940271491141186
Cd 1.7838401572695621 8.65741062864129 8.223136979560408
Cd 8.013405495322699 7.93073671553769 9.830700104550507
Cd 1.2846664964674965 2.765927308078808 7.5219579639058844
Cd 1.3300292754064766 5.194256241828564 3.7479504983955136
Cd 0.25557968262908914 7.579792432221533 5.8806617076464365
Cd 1.6374548003344833 6.186727435632875 10.610495202616686
Cd 4.537994216490521 9.11452896286497 2.9515315146706467
Cd 2.8061842096240253 3.558376475039104 1.8308601169226204
Cd 6.23594854969511 7.376114783783754 1.2422463225533196
Cd 3.3223750094899493 6.542573397975959 1.4920292709714151
Cd 11.03063295422995 4.720780646889601 6.139915505844598
Cd 9.942334185846455 5.223343361758244 0.03232475147241718
Cd 6.5635437845919204 3.208588977944368 4.745448873576429
Cd 9.176256138787787 7.875896678411782 1.0397166876077037
Cd 3.431372320437138 3.0822662484466883 5.166281662341617
Cd 5.0263618954325535 1.7870131820061754 2.6394296140002997
Cd 7.957728712639318 5.626781615445923 3.2183033959595955
Cd 9.559192976509868 3.0372641520773174 7.125851273388139
Cd 3.7302194137687246 1.255051161583056 7.858966814424137
Cd 9.806657164900797 3.119418002938105 3.936308939293824
Cd 7.776817197304995 0.47731954022078127 2.7432584120053933
Cd 8.718799163540684 0.6743195987370071 5.4391328818220686
Cd 2.2904299067060583 0.4716972430113236 3.3865966849622717
Cd 4.894204357852601 0.21192361634215845 5.269073272099134
Cd 5.662274098106451 4.431314491558665 1.2118017033022688
Cd 0.40115513117929036 2.3427899595241386 4.635495272482904
Cd 8.259933630383873 3.1257036541241874 1.3485083469965815
