52
Energy = -21.57648775 eV
Cd 7.468435756539529 5.981088693343318 0.29423485329328514
Cd 5.393991345216865 8.088475970600415 0.4406629512529851
Cd 4.76411221736735 4.911406615549904 0.6939864214767237
Cd 5.9632472170028565 2.492541721849752 1.9635238928694194
Cd 9.53807763772453 7.155767052845547 1.9199059853902012
Cd 2.709373803503382 6.5204266222642815 2.095358659997877
Cd 8.618557404586294 3.915203646106852 2.193675571559058
Cd 3.2729146774898656 3.4491521998928434 2.9337060524756318
Cd 12.115973178634265 5.904767412026644 3.0778205138181303
Cd 7.21971561301131 9.408391352773727 2.7775500263757795
Cd 3.981112828562856 9.364911457825592 2.6172159109960154
Cd 0.6691767950413223 4.9005522645773 3.5408389280936086
Cd 5.685032042398913 6.609949380897562 3.2877022074828304
Cd 5.997781865179049 4.050770803369602 4.81227815913401
Cd 9.729526028306863 8.627612741937721 4.4016067533388945
Cd 1.41041706702388 8.236133381362407 4.135295174424845
Cd 7.837274633084548 1.4741485922726627 4.05907616137216
Cd 4.667228562841106 1.2682452702778515 4.723157373852813
Cd 8.356751766974305 5.845761863941816 4.562501274102533
Cd 3.5144960004184003 5.708029757260823 5.327954791738101
Cd 10.559297989118148 3.907046130539836 4.872961086434349
Cd 8.302296359425606 12.301213131116967 3.4415104717277263
Cd 5.869095350403641 11.289162106153688 5.116264224917317
Cd 1.8087773811242762 3.026557966678139 5.598975880578008
Cd 2.7822460962873996 11.390285481959891 4.579050196608737
Cd 8.285141028432388 10.109795921656028 6.418095831013614
Cd 10.830292650002754 6.678382890131401 6.374431533391731
Cd 0.4921573889938568 6.002939101976159 6.250507268506378
Cd 1.456098045897549 9.047272773575449 7.018226563780289
Cd 7.631198063519293 4.433170897782439 7.3751233764325725
Cd 4.587834090641188 8.498994673893721 5.425903432231424
Cd 4.678759499919479 3.9836759860447253 7.512137090015288
Cd 9.113922195820255 7.501537715083971 8.773216096461908
Cd 4.377552954151897 6.94319039088562 7.958260107460416
Cd 6.980512496320471 7.3048095287037516 6.6854251137577245
Cd 9.190990392591392 1.9043946380316608 6.559821597651478
Cd 6.4185173896741565 1.277176522000491 7.631400124928212
Cd 3.435499956530741 1.2068968461603589 7.415698648326772
Cd 10.50153874033305 4.305157712463449 8.161443721346266
Cd 1.899169544704873 3.398533045089029 8.898343166063432
Cd 12.180633601665884 5.575151146335005 10.409130552746548
Cd 6.638415414904909 5.46261031679931 9.947551878921283
Cd 1.472943265814602 6.357729619570007 8.923163143745954
Cd 6.633427590452317 9.654640397072548 8.772059260917942
Cd 2.756123987386241 9.001890721755238 9.818778270504826
Cd 4.03278604925765 10.687014254627858 7.555123834508547
Cd 8.923448903853371 1.6987091926160731 9.559706827875461
Cd 5.088936421331334 2.6744633782231197 10.289527762744008
Cd 9.34417093622299 5.8463264848959975 11.37852670612004
Cd 3.6156960650169783 5.287453498450202 10.726795689912269
Cd 5.38652899231422 7.958375829512646 10.825368550141498
Cd 7.6609935736124966 3.220303755869179 11.717619183814408
