55
Energy = -23.44985186 eV
Cd 8.997816936792985 8.694546368136276 3.941090432093898
Cd 11.608480311937853 8.0603933905326 5.079943217746763
Cd 11.47369514159112 13.356479114085985 5.051993818993615
Cd 9.183187452276893 11.842814822569412 4.163030111178864
Cd 12.427334696583475 10.699780789448731 6.062514387776698
Cd 10.22786983183604 5.6944523204945705 6.0374816623470124
Cd 8.064265456398203 6.269549242277465 7.911552977886495
Cd 6.888363758815103 8.228344743595757 6.105387666668535
Cd 7.7819585496275385 14.152934370752508 5.565313772231092
Cd 9.446062838930422 10.127561126906162 6.814008426149619
Cd 14.192641765609503 8.382330641870887 6.69613978328956
Cd 13.333960426088403 13.272955943081541 7.292984154426786
Cd 12.71833128920041 5.9496206748737555 7.868344534095777
Cd 6.683607772504471 11.11789979175243 5.531134455253731
Cd 9.58423692122129 12.975044061752902 7.833767836257274
Cd 14.297793117879884 5.834980875993828 5.114471422623776
Cd 4.826212041932824 10.03746345114006 7.590756017240307
Cd 14.824566817008105 10.680610672687989 8.297201141337798
Cd 10.199181068618046 8.245584437915612 8.883400178895593
Cd 7.37827026057432 15.356462483715529 8.291504174426452
Cd 8.592883164629262 5.594878552014407 10.761215388329667
Cd 5.957679550601305 12.830643939749022 7.845555601999703
Cd 11.782250117654378 14.386547166911427 9.531838422021853
Cd 11.670691846390211 10.91967021158231 9.077158908486387
Cd 10.369274989017185 4.324971097299546 8.729577730305877
Cd 9.251935387941614 15.51846743323005 10.536625364545486
Cd 5.56317745810115 7.496983810723557 8.843385983037546
Cd 4.51846384259918 11.671941523163882 10.159576822434673
Cd 13.235101980566508 8.290067704011978 9.642757627329857
Cd 7.689779016974392 10.643342119218493 9.211301174752146
Cd 10.612881590699025 9.66880137144225 11.6310415489453
Cd 14.860870296257566 13.190309805497858 9.827975561264264
Cd 6.668708436874916 13.856912290572195 11.00633601092378
Cd 15.774268671070072 13.8972739571293 12.491793115828994
Cd 12.317570654785474 12.615458082574087 11.766482274950818
Cd 14.341446047466459 10.473404731137267 11.30598641954649
Cd 7.826718874387748 8.595280183734285 11.294038757912176
Cd 10.136674304051954 6.908352715382612 13.274692110649184
Cd 7.296976584191759 5.87481433997412 13.36826198804347
Cd 3.924790034144016 9.654054895631113 12.127174337951676
Cd 5.182268423006181 6.954842001783443 11.590846858148016
Cd 9.489075686222545 12.34160875962673 10.855205741416118
Cd 8.674768504666321 9.606936562497701 14.145010389900861
Cd 11.651778079590985 6.020302604056926 10.860683719976766
Cd 16.1227607414166 11.008815064601176 13.723515111334398
Cd 6.576895984304851 11.165705428721731 12.394385587978089
Cd 13.6820974579823 13.045000844344944 14.36162169929348
Cd 8.563236872299319 12.89851544243094 13.707348231925769
Cd 13.105631151899827 8.160737573441162 12.710946908412932
Cd 9.731821273667105 7.254961398640061 16.837406895815942
Cd 7.0797138193079885 7.003524436751056 15.985002580076586
Cd 11.068636264252866 11.386722919395224 14.239693135305934
Cd 5.729198259233081 8.853474336215157 14.258402739287867
Cd 13.592980722096902 10.1783501419284 15.293009473683817
Cd 12.188295658207418 7.697655432985342 15.441263809251822
