5
Energy = -0.38017832 eV
Cd 11.91638171035328 10.429611204144482 8.589514106299452
Cd 8.85955039990756 10.39476980577352 10.125773495524253
Cd 9.054490021142623 5.402981847058162 5.714424131661385
Cd 6.450366016986608 6.714500014147813 7.5091337695963185
Cd 5.8479713972357255 8.994050940750903 9.855145333742497
