51
Energy = -22.4381851 eV
Cd 4.906222974941722 4.031119095320903 11.2007154030778
Cd 5.902643831743249 8.914694966095649 1.787496275247788
Cd 7.149775477173264 5.767586013881158 10.259489036453653
Cd 2.616535064460688 5.377973341021155 1.4614472087732246
Cd 3.1663965122883333 8.051018041109433 2.626244202027584
Cd 3.329112758243079 2.4356445420731925 1.2846517321673918
Cd 9.082016480175053 2.3371109445793636 3.1682010190622862
Cd 8.25535692140985 6.931581637934102 0.9746058991461685
Cd 8.396364452026514 8.8178524230168 3.300257470297435
Cd 8.285406303936442 3.4616201552214902 11.80337825240794
Cd 10.27058101208968 4.7737062862516915 1.7632938877010909
Cd 0.4608940165998923 6.5457322622407785 3.2541894508696028
Cd 4.665230636606913 9.952303224462634 4.475648568606735
Cd 1.3296677762336568 3.4514814433055445 3.3710877633509444
Cd 6.915503343131205 0.6752801342064295 4.345438877668661
Cd 10.272498061179428 4.503344905137865 4.983927774176168
Cd 5.473659217152772 5.931455599696758 1.6335144635769054
Cd 6.298531265948917 2.6614127856143623 2.0766249803543038
Cd 3.9141220728723813 0.9644218979587578 3.7066497522275683
Cd 1.6798026806777588 8.976277278595562 5.128509632186782
Cd 4.527446232956531 4.163577585217047 4.023519562941686
Cd 5.576629565002827 7.0337573619918246 4.657604147630997
Cd 2.1913779072784303 2.352576953905165 5.9626696009162075
Cd 7.706060248908416 5.318822804992832 3.642030000533356
Cd 9.409973221038213 7.324715139328592 5.553803902378148
Cd 7.1927124746191495 9.383524989418742 6.001945116294622
Cd 2.8587122634699145 6.087128302863419 5.469777104717319
Cd 0.09306014383478495 4.565046585352945 5.88309324051609
Cd 3.2351136172595703 10.623738434282407 7.060098343047847
Cd 10.970382736497603 7.361421760554694 5.764538687987207
Cd 9.802739290771667 1.8085236494805714 6.049452070360699
Cd 4.819548284615196 1.1197374917603582 6.542287236337014
Cd 6.882216094663445 3.384401215692445 5.826877902384108
Cd 4.555251599371012 7.77378370591308 7.3982577815880015
Cd 6.477923919404356 10.13920854494034 8.770635886461747
Cd 1.3807247149117337 7.272492611791098 7.883486802710604
Cd 10.478738200152135 5.5256490773630995 7.77122855228642
Cd 7.033816110104497 5.981437383911714 7.124269302428597
Cd 7.7335406969919225 0.32580699771655597 7.334578996907344
Cd 4.495018032470874 4.365358481335648 7.2130559076645
Cd 8.77377317089263 8.25473071761655 8.42039484879795
Cd 2.9458845016216304 1.980909829418456 8.943063325303132
Cd 1.222997323143141 4.3756103466477105 8.55571870436075
Cd 3.880693803808434 10.814226921517381 9.876623246975509
Cd 8.628077067421453 3.184074812812065 8.494724482102516
Cd 5.81273618139635 1.5051155551502324 9.372207088105947
Cd 6.138603935203979 7.253868115189791 10.061313918419549
Cd 3.054257668239658 8.094765618918176 10.250100076932425
Cd 8.877987693425087 5.837506824190653 10.259489036453653
Cd 6.353371954907662 4.256446125341262 10.045703997437613
Cd 3.610952147432306 5.205947586793354 9.98294744349059
