5
Energy = -0.79800611 eV
Cd 8.187298377098172 9.274997316208248 5.716861981303942
Cd 8.826517120488816 8.774815868586858 8.829600454948903
Cd 5.814926640777895 9.32570708903171 7.834309186373597
Cd 9.537407010192645 5.409508736084196 9.724338383491656
Cd 7.335070542106175 6.556413658128409 7.22283579739222
