51
Energy = -22.22521281 eV
Cd 5.481786012132036 4.501144427774221 1.147433536152735
Cd 5.524293764087327 1.628408236777992 2.0931507704578
Cd 8.135685225073992 6.25485782256961 0.7836934161935428
Cd 8.110707416894964 3.3812141964763005 2.1106114861527425
Cd 3.1184918718500354 6.030224422651533 2.4101761196744187
Cd 3.1536597113585834 3.1416196838290253 3.0903818914793346
Cd 10.816700354091749 5.1887619248788335 1.4269287899922183
Cd 7.758311372454012 9.587842198668602 1.6251514856974567
Cd 3.2446110102304533 8.967576063645085 2.5760847863196985
Cd 1.2062859353099395 5.003342614883675 4.437322161253867
Cd 5.617269414191619 7.491012491673411 1.5885478366574974
Cd 10.169911528721814 8.113608020989046 2.466466676225944
Cd 5.710973492960209 4.486262195337967 4.327077325905534
Cd 7.684594213190875 1.5717229774231034 4.4083344428114986
Cd 4.787679547805699 1.2286349441418174 4.98656350981507
Cd 8.507423055504239 5.786648311032403 3.957440473465742
Cd 10.359594343695772 3.006590123776831 4.165191431877754
Cd 1.417831498769488 7.869798187836844 4.835229086600475
Cd 4.173669343128974 6.729047292939457 5.406351160765475
Cd 2.629018365712055 3.0943407934794216 6.092971817507918
Cd 7.599556940245865 10.95338120414264 5.212397482067278
Cd 5.538462145866549 10.7825784988326 3.2221150929615967
Cd 11.676308796087955 5.745480683621157 4.1744844189705566
Cd 6.658747630245117 7.9546418061487625 4.521740230763213
Cd 3.3785545751019503 10.229499437846384 5.250547188272958
Cd 8.535981773742108 9.912519335380901 7.877343942244943
Cd 5.46160559235773 9.32307440193359 7.003174881356502
Cd 9.666292198680674 5.901247998265701 9.202647792329325
Cd 9.670904117679948 8.850325540044771 5.2924885243702535
Cd 11.095251574869046 6.877849157794277 6.839497459821637
Cd 9.970673585464782 1.0828107448966549 6.639921173540554
Cd 0.38203954981958893 8.0792262024032 9.772397123089842
Cd 2.09259472192256 8.998159809281368 7.622632199054331
Cd 5.656293958044011 9.890490060730421 9.899149829703152
Cd 7.9389702696632245 4.222017406766644 6.37954297711899
Cd 6.988971188987969 1.3540576824652308 7.313878605593896
Cd 10.923190595327787 3.874829409128451 7.173821297571994
Cd 1.8076350432020367 5.915854996496528 7.419788997606243
Cd 5.118203855739638 4.628483059082872 7.257645406878637
Cd 4.061704115463668 1.1867370089563554 7.9148213510089525
Cd 7.327592123038057 6.9156980181783565 7.314978486687048
Cd 8.136670902309243 8.262277419857366 10.234459591450122
Cd 3.304475779015176 11.623396930613529 8.68198963164582
Cd 8.559570884498513 3.1224071093898744 9.256724017827974
Cd 1.5146941139417476 6.516169317893372 11.945356044155854
Cd 3.993022325286346 8.293833590201487 11.735417666361188
Cd 5.6522076152671215 2.8335538233106035 9.79651845215969
Cd 6.761857837334907 5.616563455236899 10.083952203007296
Cd 2.466148028847448 3.5137443936655712 9.087112810295668
Cd 4.296589079046635 7.177662465150664 8.744593154648221
Cd 3.9714224093161237 5.113462905076362 11.008444566007888
