52
Energy = -23.23765175 eV
Cd 7.825695561373962 8.214830653952111 11.384830308508246
Cd 4.415276582856076 9.085092013960878 9.938244451683161
Cd 12.659484852239276 11.685352145809308 8.72044753308562
Cd 7.428989203449737 10.423918722913815 2.7290823738485184
Cd 12.405257051990384 7.329267230303347 5.90788230180462
Cd 7.4555223422256285 13.398022553400105 9.651084220553553
Cd 6.548972695320363 11.024408207746806 11.306221402044537
Cd 9.186054763513383 6.764783932957609 7.0232773245178315
Cd 9.507836065033773 10.401596070662563 10.106721782632121
Cd 10.900508304457171 4.38837078525228 9.99762404292661
Cd 11.049120463207139 12.845848274608224 6.497790369797581
Cd 10.721324081953394 9.45677122017961 7.574307876904492
Cd 5.216616967065142 6.540397364666625 7.547480233048689
Cd 7.5688344969357315 5.93689983398417 9.37004008984037
Cd 13.88838253994918 9.114885718584826 7.830206644945948
Cd 4.8064104414621935 6.147622578793488 10.668683438179883
Cd 5.775530034750504 7.9039965350832055 4.911078746191605
Cd 10.456001759993626 13.71684775935692 9.375819633819537
Cd 5.338780803897685 11.620078224361347 8.542556091343334
Cd 7.723681359810093 13.281106350442043 4.415839540734572
Cd 8.10549209476879 7.444060938500135 3.01701448395944
Cd 10.054150774231507 11.542486666511804 4.105456601027222
Cd 6.108356091410653 3.818760889649537 12.338014295835736
Cd 10.82820544433718 8.713800521157982 3.7548967534099726
Cd 12.828174944514506 9.283578667854872 10.632670989405977
Cd 5.98002559236715 14.093945175223933 6.792463867936855
Cd 5.192200233632179 8.50529566095927 12.746448558527321
Cd 8.940040115003143 5.242937907356266 12.08025489788093
Cd 8.369868377596324 11.44978913619126 7.455986811602023
Cd 10.273324586269407 5.761684521498336 4.312370475418747
Cd 8.826045381613808 14.772101389932818 6.9859954787705085
Cd 12.822865015379039 10.590791244988546 5.368457226639322
Cd 9.032703786857672 3.498699883447808 7.1177728184740525
Cd 9.107299120421924 12.900920618858152 12.09666779907265
Cd 11.12617078617652 9.880217514066555 13.061627814929768
Cd 7.170648933532233 8.861851741663163 8.444108717348055
Cd 5.866966302811341 11.111281787307378 5.466501761493398
Cd 8.22481905696788 10.794766798612201 13.868860178565594
Cd 5.021698105990955 2.933464154842859 9.781323550330281
Cd 8.425799667989708 9.213259797272315 5.625128460435196
Cd 11.925483249596002 6.625431691496902 12.217038989841216
Cd 8.069456666742802 3.007829924074155 10.05569691356727
Cd 10.207695109349892 7.482916515774484 9.72370834380956
Cd 4.1919159965511 9.276990745692348 7.024795299865574
Cd 9.460349363630467 7.622506492763412 13.849790737033574
Cd 6.7985940574397565 5.886018874531549 14.20467095536052
Cd 11.960086034970113 12.261195525576504 11.560111301198553
Cd 13.025843994693126 6.556857566522449 9.041514431125467
Cd 7.283893812426912 5.210570373265343 4.965034845209897
Cd 11.673901544126064 4.726909159786779 7.11089999687086
Cd 6.875073560905194 8.635081157778838 15.190252898074041
Cd 6.080276815036829 3.749557860332288 7.24085451276314
