51
Energy = -22.54750348 eV
Cd 3.5543835249667857 10.211424830983528 6.22183093411873
Cd 9.893868753510132 6.953394519640827 7.37302456698644
Cd 8.910313576496037 9.938656691242244 6.993794769183828
Cd 7.387336685282387 9.502543285180694 2.3206545285680598
Cd 4.815379990380111 8.647311284384449 0.6951298253254127
Cd 6.500485538618272 9.946197834842984 5.033963087532374
Cd 6.147934193517895 2.6594671243855537 9.995595144425815
Cd 9.521305360377452 8.543460544462016 4.5164815564708825
Cd 11.378849242533684 4.149182735076084 6.246865232090635
Cd 7.864696034890946 6.317812356565963 3.2166320431876674
Cd 5.444921351877366 2.6130362988368567 0.9193725795658768
Cd 2.8242592078105044 4.220916634191381 1.7787104982137163
Cd 7.93670594703231 8.173550096125464 9.22949854674238
Cd 2.2142578379664983 4.224912770725938 7.835652851451571
Cd 5.339316383760551 5.608279705008766 0.9281157245983075
Cd 10.819363863583632 5.722941105437972 4.68550247364196
Cd 2.1470095125136552 7.156406384343461 9.43130451142645
Cd 3.521592118767433 1.7456352892204348 8.854977709315165
Cd 9.936736640822893 6.145241339810155 0.009053748995633075
Cd 2.0402678152025344 2.627353838304492 11.211954849053402
Cd 4.315375450548248 4.960426706988226 9.952599294622628
Cd 2.555605123384006 7.1594713542219255 1.8247479332543566
Cd 5.062297877413692 7.781533400986151 9.606285699046692
Cd 6.866485774533946 7.064053110650331 6.252871087786655
Cd 5.742893762506368 3.9814249205936534 3.8006321226080466
Cd 11.189951756421813 3.5656641017471116 9.402715931239324
Cd 7.467311784356205 7.562252997219645 0.030122433417946536
Cd 0.7399957811539748 2.6989026177788618 3.926654786660116
Cd 3.2367524417223428 1.4691626768435535 2.7276698971993842
Cd 8.558005702651544 2.5085459769758174 8.336777231831148
Cd 7.4697719545836705 5.29880464642938 9.136321823356582
Cd 11.189951756421813 7.420789631638822 2.259139061875439
Cd 4.103628919046075 9.912946400276695 3.2254599208818844
Cd 5.385535864302502 4.305996661554408 6.9756434752578675
Cd 5.485403900806013 0.8347464107325658 4.487654402653941
Cd 8.017633884249873 4.398874135128588 5.657040844277564
Cd 3.948754254635034 7.127531287715856 6.7707517462468125
Cd 1.8744956933929602 8.399161506996702 4.547970671670615
Cd 10.708200179856156 4.107539967012649 7.2265101358943715
Cd 3.0097342792781876 1.7669519011549804 5.906297458549752
Cd 0.829021555453798 6.853975567267584 6.81683914019242
Cd 8.16793029406256 4.0769016210289575 1.1467729627096956
Cd 4.988468525057203 6.957153317691382 3.8911220924235788
Cd 0.5884910717062914 5.737282402740901 3.5751559164506475
Cd 10.034407691098322 3.086180405191323 3.5851235718370695
Cd 8.367400826218468 1.377617564623514 5.556857485546923
Cd 5.960048296386215 1.1257853548572496 7.323448561681348
Cd 7.640319352454742 1.5475015629190483 2.628411167352347
Cd 3.1339338221819113 4.750525964023116 4.970546141163999
Cd 5.926978998024725 10.074382813897143 7.935143363707552
Cd 1.0024959572018062 5.391892707430573 11.430302820794797
