54
Energy = -24.82947027 eV
Cd 6.573088725613083 9.784936335813624 9.565356366240387
Cd 11.970471233459687 5.567896207923132 3.333176108559266
Cd 0.5374340541579032 2.608903276221378 5.227603793847867
Cd 11.964072076915157 7.859125543563014 5.360415947729909
Cd 12.120995889424021 4.863716579696721 6.292952732500241
Cd 0.1709043793816035 5.541171422489547 5.555100405922743
Cd 8.982923322878007 7.975196675378181 10.20120716999807
Cd 5.299664365046041 8.849075772494377 3.6004469051395587
Cd 6.236826704471179 6.49557314436474 1.6699116295199943
Cd 3.661410435820309 4.344951829787175 5.300428396140817
Cd 11.175827637628352 2.7683192642951595 3.6759113270619364
Cd 1.3155465869328236 4.635489392589249 2.901800711376192
Cd 4.277309500430337 11.311237010552416 8.477747122845194
Cd 0.4319769145922863 7.5186633053629945 2.9114534957318243
Cd 1.7191069143229107 3.818192040055297 7.688726828158662
Cd 10.02213828703192 4.250054426334924 8.711562650986576
Cd 3.3351110324028426 7.014191323183125 2.2754234729660627
Cd 7.236986248940692 3.8397494157342136 3.025023827383241
Cd 9.007872941041908 4.767487299881341 5.481144191488898
Cd 10.482206178511243 10.448074698032197 4.8751038975475645
Cd 5.949224632431499 7.10810842815194 10.526164505668124
Cd 10.891246827670768 2.189477662233857 6.678039741113308
Cd 1.3434706383410828 6.83979949037791 8.065084919952099
Cd 7.2723945832628445 2.6421573518084016 9.31699007301846
Cd 8.541743814003333 7.727527737798492 5.330144245236973
Cd 6.409771252850575 3.5785924323035223 6.540536273247582
Cd 11.031968448768568 8.551876016423623 2.5489509492633085
Cd 6.084740798302699 6.078807406798087 4.778842020118261
Cd 5.874035640861259 8.447320522332395 6.76294700459326
Cd 5.153114104431531 4.294432788145166 10.770310701206336
Cd 3.2813364110640837 7.257608121014497 5.527217558420146
Cd 8.082227329506392 5.088608395499386 10.803320436721416
Cd 2.119469166624227 9.997447738443414 7.073805465526186
Cd 7.533947163985764 10.778702134516713 4.58839990594973
Cd 5.799684812900387 0.1989421199819505 6.7709470187109915
Cd 10.519582169198987 7.06383493775372 7.7959467965430465
Cd 8.477861438665995 1.6523894796307725 4.626602228835296
Cd 0.044574495260356235 8.470710782197747 5.748776032639179
Cd 5.400160046040552 1.7860909033925998 4.150339933485723
Cd 4.577702311371415 5.741699203231887 7.879456069548934
Cd 2.395279170271788 5.100873727469463 10.27807437500239
Cd 9.10760928695314 6.033868873222154 2.6005258346202718
Cd 4.5236752188376395 11.17117477253947 5.347316885320262
Cd 8.0358792973478 8.791674292802796 2.406786353500833
Cd 4.365296920515321 4.148365976929491 2.311578957920786
Cd 3.127571136231811 1.393792011622139 6.21942518460098
Cd 8.532810973557323 0.6704799831682358 7.493987118699476
Cd 3.6277343106951263 8.447044934746692 9.251566187415726
Cd 4.211145465227644 2.299543964070247 8.799537981220965
Cd 9.029650930016153 9.709332808103477 7.5920134105351424
Cd 7.513143548817245 6.116510482703134 7.821892280637256
Cd 2.2114555484793144 9.75665926145563 3.9986309292068567
Cd 6.8573059369142175 11.737804979953925 7.257773368231244
Cd 2.5123110991715185 1.8277336730048839 3.168570629725612
