52
Energy = -23.42216286 eV
Cd 3.7378127010728233 8.845771074039076 0.36952308021422636
Cd 3.108968777382031 5.5062048394761565 1.5576962222053221
Cd 8.189826148402895 5.23670646232543 1.876663111777194
Cd 8.066185486658814 2.371125934166311 2.808150000385979
Cd 10.800407439470845 3.6944321581327944 3.029311843145524
Cd 1.5411791126182346 8.059633755843581 2.1377869797873736
Cd 5.834051379831664 6.757819638944619 0.8881227488313275
Cd 3.1028999007968956 3.1121297589022485 3.5517022936866964
Cd 6.157959813630488 9.475549217854589 2.3161534083993587
Cd 5.561940948329656 3.783311329697874 1.555298661457291
Cd 3.355947960917705 10.263841490367152 3.280709406551857
Cd 8.713360964493992 8.381213800213398 1.5144372199027616
Cd 10.87578209884714 6.610712659986451 2.4178142520022576
Cd 11.783209785633465 2.1001117421374396 5.280715803724254
Cd 4.564999241248251 7.24232819014462 3.8008328040789086
Cd 1.5858855031901693 5.577351673254105 4.177602845676935
Cd 5.982943928904719 11.049511945226982 4.739477767270664
Cd 5.361707583960808 1.2861477386499804 3.318727021792868
Cd 8.57605148038422 4.187878249782132 5.238131440429983
Cd 1.9396734694213502 8.32147638674628 5.28688760671783
Cd 7.59131427909336 6.973721705165173 4.326311658379716
Cd 2.0535772062357056 3.4839998189177237 6.328765617275642
Cd 3.5311826424538877 10.453276582510362 6.421978696957473
Cd 5.711072248556728 4.555673628784617 4.50029654925572
Cd 10.998058933535539 6.084789662315623 5.309212502536928
Cd 9.966744599048779 8.902687477929828 4.294872133774598
Cd 4.027928679353442 1.1730277856074929 6.021652726949199
Cd 8.45793173239971 10.536393543726723 6.24403640567501
Cd 6.007419990177294 11.134980829074204 7.911789837092535
Cd 7.22449034697748 1.3872596036791873 5.68957838362642
Cd 5.886301173570052 8.32523081043074 6.3355669562194175
Cd 7.354170679301345 5.974283694235059 7.280769034814935
Cd 9.639218600267435 8.050020561746805 7.29418916180965
Cd 3.961976226092021 5.919192798579035 6.465016136705671
Cd 10.42795792850129 5.059602072522917 7.970421366996705
Cd 5.613607278628711 3.5099697660143416 7.308717566438795
Cd 0.6890885258037307 6.1222245092301195 7.100060265769378
Cd 9.634728983845143 2.296097896161311 7.3463130499564775
Cd 7.393702444351122 9.037776632653877 9.462966583181368
Cd 2.5282738167631584 8.359697798353494 8.278168565615134
Cd 4.587284611208335 0.12356526278984115 8.85240219991763
Cd 4.340606633250955 9.842603419722524 10.145520180498286
Cd 2.828466151648039 2.482061774781604 8.981305432771537
Cd 5.13518312954951 6.977797046878654 9.001397229854716
Cd 9.239194369426514 6.8138154231936925 10.041051783249314
Cd 7.264402692329417 1.1676303701231305 8.8512449176234
Cd 7.969431611534811 4.023766510700158 9.53980820279558
Cd 2.385243552412896 5.521388426225819 9.489210000798124
Cd 4.999772957372438 4.138706006034826 10.239491589746978
Cd 5.706712394792488 8.829447187502167 12.521799319952454
Cd 3.468171040683594 6.869108704364398 12.020495485982309
Cd 6.783110923230129 6.254064751741088 11.526966047330806
