50
Energy = -22.50912824 eV
Cd 4.291477482003398 5.440206543381026 1.3296977234373637
Cd 6.611052069579561 3.6860161824131437 0.8803128329956255
Cd 9.445840386590062 3.9172226934950567 2.101824573003634
Cd 4.780249427975933 1.4440467237261965 0.9076033148273347
Cd 7.783014106240092 1.300141309348116 2.3274215445101767
Cd 1.2906833060757068 5.572592143621897 0.5841678080680377
Cd 2.257638479992753 2.9939042583261943 1.5700843116098022
Cd 2.8452758998355883 8.079997382564509 1.4466099005629094
Cd 5.468015800933498 12.067222743046626 3.353502906771473
Cd 0.03144708324534499 7.693876415156451 2.3570756746834123
Cd 7.355867318578584 6.484785108638071 1.3516051771219109
Cd 11.71851324163272 6.630891418314765 5.661997087833062
Cd 5.680883889559134 8.832453759173662 1.7088909763702278
Cd 11.682824792513463 4.168086126718636 3.9910498451278906
Cd 2.5640712832002777 0.19860737122082342 2.5684670690717932
Cd 4.279292967941117 3.3113665278287874 3.8747810956854347
Cd 11.71929987960275 6.955694261917562 5.119333992217191
Cd 1.4890861988118833 8.99167373135131 5.949321462901499
Cd 12.111969280884237 4.551226142677862 3.021123491127083
Cd 7.263734711281907 3.797106539397909 4.34319252334157
Cd 3.762568735990415 8.837769234471104 4.111893831953879
Cd 0.9410532867789891 2.067312643195198 4.27317076929615
Cd 2.5281367026420067 5.844802224444384 4.120568051526402
Cd 5.495912879508852 6.203059847975337 4.02684446085445
Cd 9.001692286261564 6.558381976294936 3.7640232123067108
Cd 9.820081246661559 1.6850480431833306 4.471662063375599
Cd 11.718513241632724 4.112191610632143 5.927235122303956
Cd 3.3164819826865726 0.6350969369045931 5.42539332513131
Cd 4.534336044089987 9.959986443227699 6.679689708168281
Cd 6.924009630826375 8.93553556644509 4.398268679139681
Cd 9.737107588276873 8.877275368121538 5.661932583305686
Cd 5.4195123136199275 4.059469741060974 6.654347122739461
Cd 2.4590293482770167 3.641030294030834 6.550062199114243
Cd 6.197976949744796 1.0761778803708213 5.913408107343421
Cd 10.055908902544454 7.234748889034082 8.132939906564005
Cd 2.285148603842429 9.267804107522545 8.740619057685313
Cd 7.21992727551337 6.478488554533069 6.477644146565323
Cd 4.004284626491915 6.697628160769061 6.657806636150615
Cd 9.60463205913775 4.584350964826384 6.267861126984149
Cd 0.8951508101217526 6.309045897375902 7.633402341814753
Cd 7.385625181308278 9.363694868766865 7.465635843193541
Cd 3.9599723238596205 1.2378942990202073 8.182531598204989
Cd 7.921290626889138 7.826526304639675 10.0535087445427
Cd 5.162266373187513 8.718795469386658 9.392102953728266
Cd 3.3121718122595474 3.734821659168035 9.52344965508596
Cd 6.37032342061478 2.65350141015909 9.235378796505879
Cd 8.55875704966542 2.029101913759063 7.245623272016245
Cd 8.484125560775917 4.775409996663237 9.05378852046738
Cd 5.668370814026854 5.720247802970765 9.315748895291566
Cd 2.8603250007402847 6.5997424053865625 9.821017660131456
