54
Energy = -24.04036799 eV
Cd 9.214231096132385 9.730919585924315 2.8270302403995555
Cd 7.112242361774275 5.879780712063873 5.209125457519485
Cd 7.394087583111993 7.371921606083649 2.5465223934108625
Cd 9.635384016200085 5.687802136573119 3.539934681243624
Cd 11.04353214247165 11.186616513787461 4.607872557473306
Cd 6.463778993772871 10.91476959581148 2.396328001040178
Cd 11.054613520879858 8.121952541845966 4.701121172364715
Cd 4.881722032002878 7.717974553875812 5.673226225564212
Cd 11.751416261467377 4.945327384992498 5.411267403930457
Cd 4.715774382840027 8.625610878487329 2.8791517663716486
Cd 8.604239634774354 4.024776616784082 6.865066671469419
Cd 7.830180479068982 8.968092445743881 5.43962646967332
Cd 13.366532935126196 9.43998773014056 6.018414081219403
Cd 9.934915234918476 13.168886761309416 6.6204850913450555
Cd 8.030471094337337 12.051904554145581 4.6630818214302305
Cd 12.57508527127535 7.147759828103441 7.75395967632536
Cd 9.998285296652554 10.084392336922798 7.305890461367368
Cd 5.52770163324772 6.051129055517231 7.978834526755553
Cd 5.291530111071026 10.755170368156472 5.425920442326874
Cd 7.1945082721792435 11.654419315549907 7.660022619110501
Cd 12.915442923669461 12.289641358119312 6.732825682906001
Cd 12.684154576197088 10.136059666219415 8.9518778279608
Cd 6.329283177264832 3.1706470807338176 8.695649752458602
Cd 9.456058508783773 6.997506144204449 7.015230873319708
Cd 7.168733755542806 8.628901253087397 8.323025463428676
Cd 11.184425467240043 4.444403046795611 8.327365098135019
Cd 4.09552881833601 9.553164857392975 7.907071240394438
Cd 5.501988971798823 10.588196812187004 10.299064811650734
Cd 8.638241052267501 14.01810005251819 9.117227343386782
Cd 8.331147047317751 5.926645736775241 9.516752273042725
Cd 9.238776009438455 2.3490878036936387 9.287906958538668
Cd 11.406903533482685 12.87840451970231 9.327093381782058
Cd 8.962097641383092 10.86473754561802 10.09005557056271
Cd 7.604447201393838 8.337347612110902 11.233059907479694
Cd 10.322408616349382 8.235209301355159 9.71263692388392
Cd 12.502981127735968 5.8991073351642775 10.587457027319227
Cd 14.334474926222708 8.139282866285475 10.492182285066503
Cd 1.6268262376949931 7.717856615807393 8.919826683560606
Cd 7.400743723816658 2.8909650251786942 11.529046774959838
Cd 5.965322171863559 13.462002004474028 10.33169651604128
Cd 8.356927942533137 14.102557334745427 12.111969100783478
Cd 7.904074279948607 5.6749910644166714 12.849832741826312
Cd 9.633639007222893 9.842713727635008 13.217552009686889
Cd 10.19236404813085 4.277911665798342 11.415975752741073
Cd 4.340372022474353 7.859109616448131 10.484832498906062
Cd 12.307874419611371 9.743785252766227 12.008846805295086
Cd 13.725774466229325 12.727783065243383 11.496857586344937
Cd 5.630115286933762 5.274327658085928 10.856039548387205
Cd 10.764987148851098 12.482257092516747 12.332158348862889
Cd 7.164467356789033 11.422385376601202 12.76882776967564
Cd 7.364856907286404 8.336995576624771 14.366315344828056
Cd 5.025002253603731 6.640306968716259 13.527196561906111
Cd 10.54139107895734 7.105322182119373 12.557942056638014
Cd 4.84790868367657 9.5430650023934 13.175692461254453
