5
Energy = -0.58349257 eV
Cd 10.299805584754449 9.677445294355964 6.474211771965304
Cd 8.53930044881938 7.4593096460291175 8.224320422345082
Cd 7.027043290766988 5.160409108356203 10.097852909100888
Cd 7.06725691677384 9.181329925130619 5.714898889380758
Cd 5.277552632336817 6.732464899579577 7.699674880659445
