50
Energy = -22.47010732 eV
Cd 2.758734498357873 7.018835278764009 1.485810504383479
Cd 3.8370736574766218 4.2694910564974995 2.3258273252749944
Cd 5.809730908791576 6.574276529323043 2.702514404940607
Cd 6.796022566399985 3.7202756289808563 2.7567965612860807
Cd 8.617929094849735 6.005769365842923 1.7678604104598592
Cd 7.290873132254616 9.111843300836743 2.2290294789162513
Cd 0.7787200381284505 5.050158936470451 2.4161493503851874
Cd 10.151036336063704 8.50359437724828 2.3093167173147084
Cd 11.676425347939723 5.998536498215937 2.789339879311485
Cd 4.300845779605317 9.185802161992253 2.7018683615996197
Cd 9.640205762667557 3.8487989277922803 3.7320503567301535
Cd 4.6791863619415635 2.3148491720155158 4.545262746963525
Cd 1.860500426872812 3.130485077662727 4.447848431780025
Cd 7.624579148943246 1.9350525368610045 5.043648823988997
Cd 3.6160642575747732 6.08095932454742 4.823365418219168
Cd 1.2065894499508163 7.741175330746785 3.943568240964947
Cd 6.0573060203721045 8.20033862161405 5.415329780900312
Cd 5.929544658855008 11.121439821525556 4.268953974521718
Cd 6.189229470813444 4.936006761554554 5.656438349896587
Cd 8.859028258407795 10.077610683176971 4.585513149542174
Cd 11.32154598782773 8.420695540737901 5.0331419012781975
Cd 0.2339636132835326 5.301951970526445 5.436277560881025
Cd 8.593283876568872 6.689006758525822 4.846384859872107
Cd 11.551689565002496 5.448081286781888 5.658517651364809
Cd 3.1512533434987238 9.266482355141093 5.512439620782007
Cd 4.593288949723028 11.407396125776133 6.930713656196012
Cd 1.3609972239802746 7.169284588169136 7.329825683251565
Cd 8.012365322584738 7.425844881862215 7.6084583852654495
Cd 8.904206070142168 4.136278532632901 6.717222764232135
Cd 7.497149130993527 11.20776785444921 6.942922540510317
Cd 3.087949819330459 4.081289298963143 7.048830984810418
Cd 10.170011957257154 10.231177197530664 7.348145172331521
Cd 2.873568950882628 9.447040517277683 8.494130206778507
Cd 5.38298019231499 2.1152187344500843 7.3855861422841524
Cd 11.042520567811863 7.507833048710605 7.919759638200694
Cd 4.623507898322718 6.810894396537929 7.634503457397925
Cd 4.114354294773585 3.192854924339273 9.838965723605813
Cd 9.093858821860424 9.435495698432101 10.002162736972993
Cd 2.5532363816859838 5.765731117315164 9.605927444145479
Cd 6.036806681735559 9.41687882193318 8.864042244925416
Cd 6.718945595387554 4.959424301523707 8.708716739786214
Cd 11.305784429963893 4.65901591332646 8.507023364322977
Cd 8.237979267357284 1.2871194229269556 7.839944483049304
Cd 4.034223433128557 8.312081729111533 10.885228977984527
Cd 9.463590288271016 6.209359820449351 10.232824193240306
Cd 6.672479834958786 1.857912078152584 10.367276513539776
Cd 4.806636050433645 5.530037912437547 11.519556617840028
Cd 7.023279770268237 7.555794365241116 11.124934639397454
Cd 9.419364802753003 2.97328907659261 9.965185971959457
Cd 7.493595991738279 4.407505628582769 11.798901146520286
