55
Energy = -23.23420985 eV
Cd 6.908745727608899 6.522540104876319 1.5103382454968348
Cd 9.184194877347078 8.171289112863228 3.209372249094908
Cd 8.16681595347199 10.984916660640634 3.6957366691815516
Cd 5.215549583361279 11.267683528864548 4.576616279517239
Cd 10.586714084771126 12.591050537050485 3.7766909102061583
Cd 6.081261939257502 8.563892168133306 3.602640771708793
Cd 7.557883091319246 5.489327538130499 4.36083435262805
Cd 12.119093104667565 8.374742884769143 3.3957779594175306
Cd 13.071391009854892 11.198573346318105 4.039035622307957
Cd 12.21955605083597 6.44966374100915 5.939209910281807
Cd 7.879779656512012 2.9341729611933967 6.377854195533178
Cd 6.113282895045352 12.893318807120295 6.809466103915758
Cd 3.4203748494026263 8.938576959545655 5.380171659104498
Cd 7.930898213577672 10.08157640841443 6.711964088550189
Cd 13.785960429468195 9.12345200064122 6.00592976301959
Cd 9.50046525466505 12.843247285324887 6.502368381846367
Cd 6.12024717661756 7.662444437733171 6.421418438244054
Cd 9.274009744128453 7.320496445080141 6.29387412503696
Cd 14.018278687867188 7.176140404678277 8.147296957693806
Cd 10.28212724057701 4.275039445299104 5.382750414984671
Cd 3.0143868757110055 6.408166255810922 6.8519396258970175
Cd 1.941263848930768 9.0237909014707 8.100162136915795
Cd 7.943704866580872 15.010566104790879 7.820548091792981
Cd 5.480376256561031 4.685243585569723 6.629213846394268
Cd 10.899785760031266 7.87527470020316 8.714226348279519
Cd 4.731175625164782 10.243001505737306 7.851848046524771
Cd 10.929725419748921 10.07976931170654 6.46010616038853
Cd 7.695164608229282 5.693809927319836 8.46396569976318
Cd 10.408814535705284 4.550450433704129 8.42130419834973
Cd 3.248862472320439 3.8018062641960095 8.458388013753723
Cd 12.504606804543785 5.634952023227925 10.188534899561246
Cd 2.3575717454192358 6.48828482214818 10.055931593695764
Cd 3.340322240481223 9.196730744982734 10.830428901938317
Cd 6.177623935298339 3.0610197411318953 9.30071059554646
Cd 5.193964898850308 7.286183623097369 9.205355131565383
Cd 8.826686715792297 13.850173172988391 10.28194848986111
Cd 10.064893152177309 11.29990410139643 9.179584721342916
Cd 6.957371433926982 11.43755119913773 9.359938168199042
Cd 8.853275179266813 2.860410939275409 10.619525787146491
Cd 9.55109369417251 5.969511123562075 11.22265825462377
Cd 3.994486096415319 4.234557451683764 11.25396166413566
Cd 7.995997041420703 8.54492453502113 9.318922234345482
Cd 12.912408764720977 10.254038867438688 8.78890868941849
Cd 10.086570945231045 9.163875485591719 11.311375594200982
Cd 13.793621513711932 8.273141269700169 10.905449030302757
Cd 10.299392910359833 12.37481632451223 12.346942233455882
Cd 6.184265377612796 9.273360270668794 11.652603606535287
Cd 6.534732215398604 5.632455777088035 11.336949096013797
Cd 7.235932180730899 12.184865571333905 12.189892391602074
Cd 12.740936313906266 10.880417385534027 11.758157836404417
Cd 8.328657725121609 9.933049123133394 13.655921402871286
Cd 11.883638564158252 7.2504346400448405 12.870600748285481
Cd 7.6748912556698645 7.021366248002018 13.554763298601808
Cd 10.083444027168854 7.813935633718353 15.044489484738172
Cd 11.318479676762065 10.47077040504469 14.480151127437207
