55
Energy = -24.70737838 eV
Cd 7.398870444460405 7.301581321619139 3.283253123237062
Cd 6.6315242787507005 4.204051395033888 3.992295921031377
Cd 10.621254192870534 7.301906882016977 4.521605771806739
Cd 5.559328918306209 9.336708591142388 4.9448393269835895
Cd 9.410770509351716 12.535549091638803 5.702838971383866
Cd 9.332366088170515 5.011674513860238 3.0002250932772334
Cd 7.302995814940063 3.9233814199385737 6.906544237647691
Cd 11.195888346728589 10.133803880762885 5.251720842086571
Cd 13.264989021627983 8.11935013226157 5.880159136130776
Cd 8.414063555676863 9.896797867546134 4.323844076250347
Cd 7.920506629411279 6.891825381975144 6.216733833086474
Cd 2.9529392300245285 7.666310116153548 6.637939256794735
Cd 12.343618020626888 12.634773628596884 6.37588098896769
Cd 4.827538941442501 6.384977277096401 4.723967056860544
Cd 8.342693042081699 6.791161716567451 9.142326482179465
Cd 5.125365055426564 5.7560700355869505 7.726114876146576
Cd 10.969855172385445 6.965762724787933 7.674537645403296
Cd 15.327780951510851 9.284565352867137 7.542681598553361
Cd 8.292641636514086 14.029867554575674 7.998205929727569
Cd 6.684192598650916 11.57787062510079 6.666567994131064
Cd 12.030344180434035 10.034066307254886 8.271823132604299
Cd 14.800514739342852 12.162457298430525 8.06831891470405
Cd 9.023226803530687 9.464064181126565 7.3538194658182965
Cd 12.243723372649074 13.456959679325058 9.194980082191451
Cd 6.098202509022981 8.55287605746448 7.917676024512814
Cd 3.6737353157900583 10.523632723436418 7.206448719556185
Cd 10.012351357494016 4.559962741853205 5.860628480981348
Cd 6.945679669933943 14.051103997996533 10.612298641595387
Cd 9.746694959701406 11.70164941615608 9.191294246662451
Cd 5.032936809101186 12.373986320887107 9.051913473010522
Cd 6.660091918545158 4.168771603113512 9.846574806073601
Cd 15.21693053541809 13.100650517072328 11.033743201423546
Cd 7.402689566178963 10.162766615616142 9.963724273483827
Cd 9.784876511497693 3.9266461817764435 8.733082007426672
Cd 14.290334048120167 10.228048902786014 10.420811024105733
Cd 4.069210383920117 9.599822441771538 10.026250118466244
Cd 13.58415436882935 7.514915544843489 9.396470624248831
Cd 5.2476515226694715 6.854643973418657 10.581537895293089
Cd 9.078674023075303 4.644014909192207 11.597646313477513
Cd 10.258499801325582 8.738133166410984 10.370126992222009
Cd 9.92693321260148 14.70256653857874 10.70934234936844
Cd 12.630274486068663 14.196511084851046 12.10126748019074
Cd 5.557618727410761 11.670824031202411 11.944962967665653
Cd 11.62567714825236 5.648853087354125 10.427828213609866
Cd 7.864936932957693 7.806610114419706 11.80832753641679
Cd 12.903850087468921 8.374685933991417 12.35258212749996
Cd 4.606492820333918 8.921900090712542 12.858986326784256
Cd 6.409519725721086 4.985520979101159 12.736941807599038
Cd 5.911563910830915 7.084062166187531 14.696347054670886
Cd 11.748388584128564 11.243782992918883 11.566962167116523
Cd 8.817880156095432 12.0708118449632 12.118920977880428
Cd 10.296588189677355 9.671616071856668 13.578188941512373
Cd 7.318068745833053 9.989632194876897 13.737020905715282
Cd 10.604857681713156 6.638439659135135 13.060217799010351
Cd 8.747658669766013 7.517035045187676 15.180666669813117
