51
Energy = -22.27148145 eV
Cd 4.556033484829539 4.464469691555666 0.06285505226907669
Cd 4.654221575207481 7.386170530023812 1.220632407793757
Cd 7.291280025282915 5.6753507325032695 0.18835198932150773
Cd 2.0585983843269813 5.921505549825746 1.6179425909900929
Cd 7.38203530786157 2.914146433279458 1.3784579360454707
Cd 3.2756546144104592 3.097150904635258 2.4262414623079693
Cd 7.626939866179787 8.224959887699118 1.9978943173045962
Cd 9.368794144691305 5.885336643536324 2.542920423221238
Cd 2.291167366903692 8.893776969320669 3.0554742015003136
Cd 5.727290645385377 5.056006914229132 2.992145873266338
Cd 0.12080797304874026 6.9283210194206015 3.7675240252068587
Cd 10.653601846712526 3.2455290427474086 1.8837685251455367
Cd 1.3228391036678178 4.288312779035107 4.374089622952143
Cd 9.207516336767185 0.6758356846469131 2.646979280989863
Cd 5.645339023428786 1.8611430390464054 3.7664976842259232
Cd 5.257764429696118 9.393824522716425 3.357728672289479
Cd 8.074238854833128 3.8342950298980836 4.3389929416630855
Cd 3.54598520363662 6.352350502288059 4.452508755817927
Cd 8.044817714045747 1.0890098884600319 5.420754167559489
Cd 3.077311034823862 2.147579996814599 5.413821153180382
Cd 10.02735143429308 8.10882077680661 4.689668561087315
Cd 3.213479313813265 11.040890708531167 5.119245599013883
Cd 1.6251086422034597 8.556239770254653 6.0965363845054625
Cd 10.656434623554057 5.147523385290263 5.244819800374236
Cd 7.1436520530259555 6.816079781459366 4.945463017675966
Cd 5.33328905710225 4.257446819855396 5.955696027555079
Cd 5.936218735259129 11.177952250273846 6.4263815336557775
Cd 10.980439205374415 2.0876197847203444 4.782903261501819
Cd 8.06927958866738 9.022734416120466 7.075438431544977
Cd 3.201459512518312 5.73269917176362 7.320948858009587
Cd 10.84545965602769 3.158475222669614 7.635088120360422
Cd 10.139001914098943 6.9373846323715656 7.612627429543943
Cd 4.978926708096359 8.225763209335845 6.1891431602003175
Cd 7.964125855812615 10.233442555593061 4.289743966440398
Cd 5.493142059578023 1.31352690208435 6.979810997046381
Cd 8.09060279343341 4.766182121231186 7.099718771894747
Cd 0.914446598718214 3.391254283280937 7.196093768491484
Cd 11.28639652470678 6.176956711787032 6.741518005281
Cd 3.5356613612671737 9.824088467474299 8.213596845803547
Cd 3.3135390009093078 2.6085774667771844 8.612285730647956
Cd 6.405940379063453 9.928315896193165 9.3634484346345
Cd 5.993771804466161 6.4916336076735375 8.271035349483398
Cd 8.23618518414987 1.9214194040287262 8.302969658607616
Cd 8.409907396026528 7.736168849740299 9.971004443725269
Cd 9.171256878831773 4.706033864453401 10.059796364666884
Cd 0.624556178566459 4.970734871742147 9.762148600000613
Cd 1.6700193407082395 7.667026516452925 9.219997648159293
Cd 6.009623160546208 3.5512161780783855 9.302140385809583
Cd 4.479489156819147 8.01094587650796 10.59053849610443
Cd 6.561972303652535 5.7751857322730675 11.394868126081713
Cd 3.648300778552288 5.131846065265833 10.439004200810832
