51
Energy = -22.88992706 eV
Cd 5.554488629522236 10.779905936675176 5.96992391587776
Cd 8.01875312651109 5.142008544948124 5.999742853435669
Cd 3.669468755774105 8.102537628353728 9.841307806061748
Cd 5.822558168444153 9.85339463657973 8.789794603334517
Cd 5.358295019050152 9.192845604399613 3.31919512952088
Cd 4.502580373133071 12.522667938289292 3.000804587860931
Cd 9.155076272327985 2.087733442020164 5.179081079909481
Cd 6.210867012417375 1.4410821030873897 5.012075808031876
Cd 6.734018611502045 4.019933015829715 8.57667844225765
Cd 3.346568220456564 5.397095830416113 8.603666591159863
Cd 1.2251103071605862 5.2062071441746856 6.34404633416762
Cd 3.592549090103363 5.2869092654323975 1.1271540061863397
Cd 7.572592278185322 3.349551953175004 3.1035270706796134
Cd 4.202835815678668 7.225531084522956 5.981608787767363
Cd 3.166837542944556 1.7081369840930516 4.997839521069521
Cd 7.847164068437631 5.6657104716200966 10.98545653976027
Cd 10.395885779576224 4.3081821708737555 3.6549904003433444
Cd 7.236984713546092 8.109901562994192 5.467294031801115
Cd 8.214683620380152 9.024133718760794 2.322494546838247
Cd 9.809036249581675 10.091761555253257 4.742038940635221
Cd 8.074748567500102 1.3867916175548962 7.839974161298616
Cd 5.918894141101961 5.8471614145421995 3.8706018914866394
Cd 10.188920647801135 7.2894704147010945 3.9433058096411706
Cd 2.8641246709636348 10.419756147519312 4.436452120131502
Cd 7.098343183564731 11.750575386187197 1.835408843904323
Cd 4.219483664394006 2.782119727976568 10.165876902117995
Cd 1.2834707039113502 7.596911268962478 8.155580340306836
Cd 6.286783863871062 8.283744720556047 11.310727248040633
Cd 8.722148867898476 8.39126010783642 9.649448009517556
Cd 4.903829263222903 5.572304149456734 11.129420845064246
Cd 4.978638096045817 4.276629455541263 6.1630928771627165
Cd 2.6707946651134353 4.621321085904463 3.956397414850267
Cd 6.326793700196188 3.1477333165955037 12.383969385474908
Cd 8.329121379919851 10.435883035765377 7.390162848583379
Cd 7.828214981244111 12.300026387026893 4.679212303560595
Cd 10.038626305833706 8.00462482888245 6.987351806840852
Cd 5.870823066671717 7.316518514449256 1.139660961939187
Cd 6.336802871815199 6.885423827321554 8.031686476615809
Cd 10.58619846005654 3.0326669829952473 7.595651388336123
Cd 9.790456813236366 5.648164173517159 8.767008207344853
Cd 2.377828215615738 2.7141846680741764 7.625662764666925
Cd 4.660193269170889 2.8025479891907654 2.6667892075911253
Cd 1.1730230962685948 8.082919053322954 5.257954549334885
Cd 5.090566588445773 1.350160241548687 7.742141814094623
Cd 11.371259832927711 5.500866824396627 6.133281562043081
Cd 9.07322288594431 2.9328119149323957 10.359422260699532
Cd 8.576042630464904 6.006475384587675 1.8066074713027644
Cd 6.356372490226358 4.359582975019416 0.5747392445042213
Cd 6.83687308300127 0.9213211829267869 10.552326366921852
Cd 3.116800730534496 9.84247204233365 7.382897498987547
Cd 2.9384226316557083 7.506517592226083 2.972643444287478
