54
Energy = -23.58556652 eV
Cd 6.369054847712965 8.78656682172069 4.810766595630551
Cd 8.99717477886926 5.797779933060199 4.822379540981369
Cd 9.55423225275654 8.720292802520166 5.65448879242969
Cd 6.903791203311645 13.69226364885587 6.821845176829623
Cd 5.375848422896162 11.57030413423937 5.4381530902288455
Cd 12.666915893107605 9.27840981195374 5.975376616111535
Cd 11.10007176764675 11.314259122559418 4.7383806458059015
Cd 11.577613468575722 3.8325964320136694 5.4110772694364355
Cd 5.93378344615583 5.916665037044866 4.447592787211262
Cd 7.1701328311970025 6.988707021287467 7.223494103286375
Cd 6.5419802305849295 3.2949919730702777 5.931485316371147
Cd 8.177979484982236 11.209337516157701 4.410547866549973
Cd 4.633419405385914 12.364706549935113 8.306953500082436
Cd 9.105385191442268 2.3959302721248417 5.060901006451245
Cd 2.9797495660789486 9.856933717135195 6.249234902931541
Cd 9.364852760553898 4.894090446803493 7.745042550821957
Cd 13.776522519857638 4.564546384976876 7.169554884070497
Cd 9.757305639986166 13.551111912735923 6.018428692553106
Cd 9.250469387894654 14.94212664571186 8.500257033500024
Cd 11.850487063318964 12.155712486878114 7.725756904459503
Cd 13.787982689757856 7.373299715897971 8.461790476875514
Cd 4.252289864289297 7.246477506532063 8.801969264772831
Cd 3.0332331024658417 9.993036699555407 9.310307425522538
Cd 10.870475442602217 9.243106175438253 8.5426314930553
Cd 13.151085375074066 9.074890510283982 10.863356501365466
Cd 8.741949244421917 7.426175911618221 9.64475724489834
Cd 8.586005701803758 10.996756673229042 7.724689669243527
Cd 5.913750732860641 9.582061764614958 7.821306014304844
Cd 11.536572279746256 6.636292266187976 6.614021553879339
Cd 11.734500287182096 14.136062946643552 10.173013187996624
Cd 11.7179190094628 3.150071293918402 8.945078286477377
Cd 9.322077074243634 3.9725761325631153 10.601511086152335
Cd 9.187126849805582 14.53552887003961 11.51271233899718
Cd 14.361417716470617 10.297860144894976 8.145141025313283
Cd 9.916431498605963 11.608619320435352 10.362118214302166
Cd 11.552889114181252 6.345808962841613 10.382171796949441
Cd 14.094605501000173 4.685520630838157 10.163290503530026
Cd 4.381864590764711 5.040495517072415 6.961436762778224
Cd 6.672907142220237 3.996187419684432 8.880405385659962
Cd 4.6734196106053165 8.707276924087093 11.489438293698774
Cd 13.872504210458493 12.202259258401671 10.223131375266634
Cd 7.072846419913075 13.132543993196041 9.815359982435675
Cd 7.343137636730299 9.94412442650847 10.45760081615457
Cd 4.674376628948703 11.70723374030882 11.300291438516052
Cd 9.027220834482977 6.078928342355136 12.512459464194034
Cd 6.26299641702152 6.156706914218927 10.876218555591652
Cd 9.773272175847943 12.711303923730124 13.736117363850536
Cd 10.247906583305486 8.923691521038956 11.828920574894825
Cd 12.199486866232665 11.40784892336164 12.53162693536055
Cd 6.8407834897904785 13.010355358485027 12.851618408891996
Cd 6.602226585156988 7.6063942052898055 13.491785563949016
Cd 7.802780472580574 10.332425411236645 13.411239166529763
Cd 9.366159894217736 7.996897760459214 14.716291920897891
Cd 11.034777385797565 10.309596754612748 15.08022322231419
