53
Energy = -23.86549506 eV
Cd 5.651134091108537 6.9101130539893685 1.5009559534606902
Cd 8.065281616299666 5.230993639961703 1.777557465405966
Cd 5.582580273238049 9.890328281298304 1.9512585525196184
Cd 8.299624312461777 8.45340578606493 1.92360505690691
Cd 5.27302540135946 3.924945499557077 2.2458936231130586
Cd 2.8769415546791026 5.911931180589414 2.075166694107814
Cd 7.291883515600078 12.010939960487681 3.128063205188432
Cd 7.5762259106403755 2.3545020880946312 3.5337227557150674
Cd 10.185945715648485 3.5571851083308372 2.7498933680056856
Cd 2.520413362415494 3.201811364245566 3.4301944146139025
Cd 4.781061270622645 11.13878281017157 4.691648362675826
Cd 4.486140499297948 7.93755040549724 4.095137354255719
Cd 0.29870431755995486 5.174755563410906 3.7820201201440753
Cd 2.5865620527945032 9.869970564735869 1.7549353571047825
Cd 1.3669608548992762 7.945855309076703 3.6755723263529574
Cd 9.612771517347342 6.625738239967037 3.9357224909698934
Cd 6.540083609087991 5.6739930809409564 4.5010574274435715
Cd 9.826645330767802 10.569461026322479 3.74128305146689
Cd 11.041568616332473 1.4703751273001846 4.6490617018424425
Cd 5.070327730006241 2.5488436925828823 5.07294866538568
Cd 7.311207997198561 8.624850170714891 4.869316870349774
Cd 3.685635936245061 5.363965401747651 5.365155281887528
Cd 8.479123554854183 0.8488760496345948 6.116886839880249
Cd 8.622119287466262 4.037447578830788 5.857951453098635
Cd 7.313151577188866 11.26436918791366 6.284417783764806
Cd 11.694711856696111 4.5592288107913195 5.13183941266225
Cd 2.6891938915898868 9.396827640087857 6.001319116167543
Cd 10.82675757859814 2.2768114334499416 7.48700964997056
Cd 8.320794890092625 6.738961569238098 7.031092500677814
Cd 9.955267887786055 9.871196954755733 6.714836543934718
Cd 5.315281823624933 7.6586247659015205 6.9688376797999245
Cd 1.0444642262326216 6.819956639714977 6.437638606312281
Cd 5.95618980628832 4.496546628983031 7.325599670763048
Cd 11.515742986996557 5.213494486121507 7.999874404378179
Cd 1.016361061390654 3.6217066010636163 6.2170981672782535
Cd 6.278824036389943 1.4670480750892494 7.8531448040266225
Cd 4.811200698813547 10.641320630687154 7.845358882392035
Cd 3.343917692141348 2.438188237270138 7.572274443983777
Cd 7.621168447316883 9.273950808611154 8.57367711422575
Cd 11.39320618617949 7.497856071396166 6.107755322160983
Cd 3.112531835693658 5.72361513807915 8.309655066514882
Cd 8.921795273698416 4.186064388770825 8.97163918859358
Cd 2.8055932381321007 8.62719244125514 8.883964626304495
Cd 6.256280786276547 6.441546120483261 9.50537615198244
Cd 9.97601333656594 7.266229090224845 9.505403948310608
Cd 6.622868249891497 3.1723475515473605 10.364140055998982
Cd 5.319294701702527 9.335423451413831 10.550340142121073
Cd 3.700239216252977 3.6542709722293063 10.268361611412267
Cd 8.304536155746709 8.621850567815962 11.488973159422319
Cd 3.6194112064129964 6.860038910679615 11.158994358422426
Cd 8.187779888191086 5.5826306188506205 11.705270931691567
Cd 5.264226403306315 4.769266530357962 12.566547754825924
Cd 6.060575506845198 7.526163467636586 13.023899283977531
