50
Energy = -22.51677674 eV
Cd 7.18114744371899 5.665162467968861 1.0494632075087014
Cd 4.777118169320847 7.361222799740806 1.2383289210726138
Cd 6.3057492270078725 3.007491037578049 2.3540273496365467
Cd 7.320817640823161 8.530483364077245 2.156576721826748
Cd 2.3439778373207423 7.2887272271975885 2.9913081213385313
Cd 3.866665925012016 4.743323690589556 2.1482889887187695
Cd 10.867012254798423 1.5424665563008606 3.088427297066456
Cd 9.236333540008022 3.7828837589326754 2.1208970523493926
Cd 4.5220148172062435 9.20252254188648 3.5975184587933655
Cd 9.291856143538098 6.560675929676129 3.2615133814584016
Cd 4.017587599959289 2.630272415965359 4.2877651620911825
Cd 6.294431026572523 0.6301538195200073 4.4174021913644275
Cd 6.25006036115461 5.808211827995877 4.056204008385159
Cd 9.361592701773468 9.30035291387468 4.33144536009156
Cd 6.966303849471203 10.964658671471504 3.7803960064618356
Cd 4.714774303056848 11.52581093087548 5.628343625719683
Cd 1.807523751598528 9.735530462413271 4.973509172258225
Cd 3.773628454473432 6.1347150437141575 5.625364009409669
Cd 0.5451590789999605 7.059370069261184 5.350355626503872
Cd 6.675119764136019 8.253527743095916 5.724286376937155
Cd 7.926875188333025 3.1323241793371137 4.986484026241188
Cd 1.605498401556139 4.407914092154498 4.011371842264469
Cd 10.657441202361193 4.282436190626735 4.882109198279363
Cd 9.017360655621472 11.543112336584615 4.327679633140485
Cd 10.674561211152422 1.3100718124640958 6.247922173767179
Cd 1.013083140639515 4.491135350134689 6.872232337485304
Cd 8.128640361966895 5.855172447521521 6.576163843472663
Cd 10.51874251303341 4.036841499186983 7.8610929665553275
Cd 11.017999493393956 7.070182552276643 5.746157817970801
Cd 3.9566720353361613 8.735272486701241 6.940202764313332
Cd 5.367040689143507 0.7824004976864127 7.203728331811682
Cd 10.114070721363051 9.415853552941458 7.199377949676027
Cd 7.767753880515511 11.229880541353543 6.638514008781318
Cd 2.134356622647294 11.543112336584615 7.374811231994668
Cd 2.8165005768206957 2.2329006598916212 6.946498389840317
Cd 5.580577333021029 4.074191486870282 6.663961918053428
Cd 8.075555629647653 2.0071816730022767 7.832227240673766
Cd 1.5786219194091353 7.116718599479224 8.158929397100719
Cd 5.690982438607713 6.650757337156743 8.227739152608954
Cd 5.477453942541887 2.651905225995804 9.517570799671468
Cd 9.961936519845537 6.904046854995809 8.857778146811192
Cd 2.593274466964902 9.687515660870641 9.546175588070955
Cd 7.737094289132367 9.11851049204105 8.857793910560828
Cd 3.2113715063807358 4.54100694979898 8.915125817263712
Cd 7.996001290136771 4.452649600099169 9.479536493763103
Cd 5.336725775595348 10.979233743499334 8.501354004813104
Cd 3.182570717476496 6.926679654888821 10.659058254146135
Cd 5.5101714268182285 5.132567383791222 11.099545819227664
Cd 5.41032151963208 8.855930812631344 10.701766344787707
Cd 7.79396204553521 7.008757531328372 10.957760962440648
