54
Energy = -24.15357515 eV
Cd 8.895233597413748 9.297965250472949 3.1029594964483214
Cd 6.676815513830863 7.629195351380666 4.032410452201386
Cd 6.663997885246123 10.762468952657391 4.601763427667337
Cd 9.714183914711445 6.829521404207459 4.81377681844494
Cd 11.71745760647604 8.997939036666782 4.043827405297859
Cd 4.841488204714401 5.296180927611891 4.048720441191689
Cd 7.731619024481778 4.630493149588707 4.873538188541853
Cd 9.801556814173518 11.288202671934995 5.240583147694629
Cd 4.321817439184284 7.931526057068707 5.8184324377171786
Cd 8.113790755993891 8.995144669173806 6.629948985037355
Cd 14.609036249852636 8.92510289097737 5.169202304036038
Cd 8.512745515645049 13.355100520352481 7.0500547202388635
Cd 13.061191666367348 11.452694059817997 5.094428132858404
Cd 3.3270634512548254 5.151787207280058 6.717310369964197
Cd 5.648271575914306 13.094171628698733 6.000763459507778
Cd 10.210651963899808 4.474542074900479 6.681592608650575
Cd 7.610485766247786 3.511779316347871 7.825799126825999
Cd 11.25482297769013 8.254507944535549 7.014388419310458
Cd 5.547036971080355 14.861170167894295 8.345337799507703
Cd 6.6067847188004825 6.393547991256087 7.04994175476902
Cd 4.478010162613905 10.458805848583857 7.168363927929006
Cd 8.965812385583156 6.908340381277238 8.71085579732456
Cd 11.596092468627164 13.348279534312521 6.721474287567146
Cd 14.2350003482335 7.722660942150893 7.747816034727248
Cd 10.003472486806983 10.550809995296312 8.403005309623477
Cd 14.399543772835248 6.442738810013311 10.52229187369681
Cd 3.499146158892919 7.256952255574033 8.807398832984406
Cd 7.091839136637414 11.175292034962753 8.519233928808786
Cd 6.23231002396472 8.409495047091129 9.193472773892836
Cd 13.15385230480741 10.865185355682668 8.015292308755539
Cd 10.467224748812928 13.420756299493576 9.436574138090707
Cd 12.173236246688408 5.6653473392256055 8.497470127137882
Cd 5.314826908532401 3.0375287458541176 5.984249232379021
Cd 9.618325674860671 4.048435675585135 9.821630170817931
Cd 5.14930078156259 4.551572553448707 9.066309789930832
Cd 3.59688623498667 9.790331517909747 10.342297756439809
Cd 4.021587272625229 12.57679398517723 9.431907410205023
Cd 14.215629780242322 9.39216841923311 10.335493947710273
Cd 11.191158372717757 8.22263701038901 10.181001422842803
Cd 11.679186965952026 5.367385882730905 11.474276306412335
Cd 8.501211485771938 9.394385276780643 10.849896059157807
Cd 7.652515705408902 13.993605379498277 10.160314316837077
Cd 5.750178253496642 6.190314357216605 11.296168377530504
Cd 11.957885595209722 11.247726757164223 10.84618317618587
Cd 6.244239649277562 11.594341599874486 11.373972361049061
Cd 9.223831843566105 12.183725060911422 12.048598079701351
Cd 8.7284871892267 6.358479029337669 11.746744493638777
Cd 13.228466610637762 7.991460043374404 12.786045589116172
Cd 10.801357300488986 6.848588018215953 13.962072851169678
Cd 5.661617868819026 8.998758919519354 12.484548013125977
Cd 10.798969174483496 9.799650532492945 13.159926418219245
Cd 6.4168033851683175 6.584437931906535 14.146473030421776
Cd 8.088822217527376 9.420773008548037 14.369240774808087
Cd 8.707313563419099 6.759388869806007 15.944815277315797
