51
Energy = -22.7223185 eV
Cd 3.005975220014664 4.879023672732361 3.5608711450648665
Cd 1.3927118736292385 5.716676745437218 6.067403199190443
Cd 2.220351936295462 2.931356045397947 5.726459078648652
Cd 4.219587548002539 6.921020074734084 1.53105249549422
Cd 4.759215356625076 4.005187429212582 1.2916219334607497
Cd 1.7412979713492134 8.556712465327436 6.749623545837124
Cd 4.711994800828749 1.3932701759521917 6.449578386650231
Cd 2.4009548245098946 7.801399102727302 3.72849943319534
Cd 4.102740169235381 1.9877590571153874 3.5716400438235634
Cd 2.968203775964535 3.396707514435342 8.537922102801572
Cd 2.9656354376063403 6.453245833023723 8.621942855266012
Cd 4.75399136533331 4.760308532564416 6.319547882051407
Cd 7.130310545606813 7.668406461207782 1.4471368307226335
Cd 3.6633403463423266 10.438475524074724 5.089151231021179
Cd 7.653908497766198 4.686032591649659 1.2842517216702185
Cd 5.0120973996136176 4.808870024647983 10.21267433068886
Cd 8.687189650907586 0.5686440709536632 3.726607390359812
Cd 2.422028483764398 9.579905681387453 9.562433874276321
Cd 7.538839223836031 0.504075566280274 6.436950958071379
Cd 6.700989902348949 1.8179444566673912 2.024121908106223
Cd 1.9420898718484703 11.544529281994079 7.263599982003305
Cd 5.561346952256012 1.9659542073461356 9.282481879303322
Cd 8.655201699589922 5.790154399325816 5.840551377279226
Cd 6.771973654859241 11.233095962271236 4.752613804070804
Cd 5.09418246605994 9.61702621669713 7.962186667415861
Cd 11.407407793658013 6.062209268743705 7.345329511622481
Cd 10.008902957506905 8.762842799672313 7.821987850652592
Cd 9.55204994283505 6.414260548162043 9.654586107692966
Cd 10.79213302400132 8.254227699179438 5.00696427214171
Cd 11.63157636109579 5.247571650600151 4.570357945842237
Cd 7.813276692305108 10.823613659885865 7.657571064980103
Cd 7.994357080432269 3.906544619558443 10.707712200646675
Cd 7.553068769378981 8.486271511068104 5.7383690607420705
Cd 10.552362722078811 3.6252824985300007 8.824751925455717
Cd 7.178328246503936 6.530958735443689 11.565238784698307
Cd 8.031555028312043 9.032657092811696 10.196672048252154
Cd 6.545887714588088 6.855389406743865 8.108538294161832
Cd 8.73843213373813 9.504113740795942 3.167566135718659
Cd 5.132550896488713 12.636930053412714 6.84200690376715
Cd 9.53288561591142 6.535001714065009 2.824460983291872
Cd 4.794446268202697 7.896181024687731 10.515215569112978
Cd 9.79129480018511 2.7138258385527214 6.103493146960678
Cd 5.936879195870321 11.068156474670449 10.698819662068537
Cd 8.54820674687825 1.4077960971440748 9.133849501405479
Cd 9.656095527797007 3.452589703891802 3.18392191600376
Cd 3.7467060425078156 12.414779060302674 9.449144501988439
Cd 7.27724844063116 4.079668833940592 7.740725121174837
Cd 6.893508526505074 3.2945201826191117 4.77037727289916
Cd 5.242589917327363 9.484972194609993 2.806688502626963
Cd 4.578179805380385 7.641237397304905 5.850640866472483
Cd 6.284915718433957 6.133622043188689 3.965091735894644
