51
Energy = -23.16068144 eV
Cd 2.959777249966293 10.984079543300037 4.764508205765437
Cd 2.639924419535464 8.643921168776053 9.348151794980504
Cd 5.4336519634339835 2.047986859735699 9.947468935042926
Cd 4.3945994102966655 2.4482802549536924 5.240502463541981
Cd 5.646264899148255 11.40187279397027 6.2833749434548745
Cd 9.887046427539333 8.749165549676823 6.066858058075704
Cd 10.883370144246104 6.741784312252094 7.986542872334588
Cd 4.780891529562677 5.557194674082721 4.929054840856554
Cd 9.682748904700798 8.124144264680385 2.951001783480459
Cd 7.592883174294185 6.508761925051525 6.673788714062241
Cd 7.341185124467535 6.609081909553803 12.30785003012903
Cd 5.392701886408884 8.20250585117109 1.2078128623336446
Cd 2.9082977967404275 3.702779090875083 9.576811164049149
Cd 8.290881878994988 7.489409585925334 0.35636751081113643
Cd 9.671420977907953 4.162801932007058 7.251462480917412
Cd 6.688253618991879 0.9449536495635213 4.0372460591197505
Cd 10.152797132049695 5.98244884427837 4.905403773664305
Cd 5.794837406230456 7.082229299875906 8.939342774959924
Cd 4.996057257038727 8.330016413997015 6.296535622333084
Cd 3.2112815681405333 8.17881505009265 3.5705697800156475
Cd 6.754975635935927 5.4846179782599584 2.032886144111155
Cd 2.3387009769842613 3.880874087521468 3.4872818465251387
Cd 8.134437067163658 2.312054548086133 8.945492563222645
Cd 7.533699452927918 4.1232795378692195 4.71095221113927
Cd 4.516765748401555 7.764673961587836 11.702964079948172
Cd 8.854784085110719 1.535837703886145 6.109395908669819
Cd 9.72141976831737 0.7211838929630645 3.452317579841058
Cd 6.213055485503051 0.6512121045094578 7.171414026707018
Cd 6.825805463066674 7.62488716265459 4.04475456773849
Cd 7.971632611845892 2.581511190023844 1.7497625484031976
Cd 2.1599196939427157 6.181896578720923 10.811591576932697
Cd 3.016232805776849 11.031465479397793 7.702289710935716
Cd 3.6652066586188843 5.8573893703899 1.7538121026876816
Cd 7.969106437430353 10.502222796249683 4.679864737823728
Cd 7.582268531487233 9.540475177648833 7.756405392305559
Cd 9.565862601419672 4.876387068974045 0.4964231284572992
Cd 5.337076752444921 10.509921586915233 3.215031263085807
Cd 3.1990202101438925 6.099965746525427 7.556862774246908
Cd 5.811642741167121 4.245630511302848 7.5047858245614245
Cd 10.377985600691936 3.670401976743072 3.1664860653051794
Cd 5.241062525733583 10.31428903643272 9.453677167725079
Cd 5.040556645567246 3.085172515853973 2.376075020167275
Cd 1.247987301833478 6.145256518333023 5.001532621506234
Cd 5.301511607317063 4.820549766356076 10.99887586171112
Cd 1.842026185612858 3.622449957384868 6.517434148735652
Cd 1.8145285939424707 8.666268355871388 6.36081407826944
Cd 7.02409660480174 9.49224708600471 11.578333823456223
Cd 9.120501588828201 8.07199636608717 9.920297626745564
Cd 7.765233491943335 10.100601681291787 1.5802269964229194
Cd 3.4463016037276546 1.3988687883668955 7.815849045054692
Cd 8.262184972263857 5.1986407136148305 9.709917107273105
