51
Energy = -22.26690764 eV
Cd 3.5679043938790547 7.531212219180663 7.7331452853354365
Cd 4.148496241074635 4.746464683929657 2.740091235297009
Cd 5.054164794881671 7.56114876820811 11.299938045941277
Cd 4.067671459522116 1.7956876473402552 10.479390613172205
Cd 4.4631274699900745 4.435629843516401 11.745581928381162
Cd 7.779430904728986 1.0335792465053268 2.174105453202732
Cd 8.445371875993562 10.534113555391613 8.508528668258236
Cd 5.244729080370031 9.489965019367446 2.0325953675968678
Cd 1.2611397665541817 5.536460212806039 7.756676688928533
Cd 7.1455687459613575 4.261972202442727 4.006799635158282
Cd 7.064668834792176 8.918223538151217 6.285438089108311
Cd 7.8893850327110675 10.193976491801664 3.459794844468939
Cd 10.57115933019247 3.8675097739204416 6.751955195511687
Cd 4.453690021993158 8.694336879034767 5.007701738606138
Cd 10.489379474668052 5.020355431682575 3.9343614593152347
Cd 9.415604555008374 2.153275136519534 4.574114958562975
Cd 8.695884117484137 6.024205742854453 1.6186720924826583
Cd 5.022464600816083 1.8881957751952854 2.4625832467171156
Cd 2.5625640656308306 6.447394164946936 10.3427687508372
Cd 5.284547864917871 11.628563609824711 4.178510456374932
Cd 5.347036722710125 9.610345160016236 9.173012691395733
Cd 2.99847294943259 7.405947458240535 2.6768451362668806
Cd 8.512330527143865 1.5032026875149274 7.479255190351228
Cd 8.144853478300407 12.432973041341599 5.809140114645972
Cd 4.6171097720697265 4.70700911498837 8.61044386681157
Cd 6.653427795227168 3.9039439432938714 0.9518421453017631
Cd 11.561350225852937 7.483789819115438 6.029886869345271
Cd 7.251402516491996 5.532935647985071 11.051107083442075
Cd 2.2743390638926284 11.200849330782459 4.797049644423452
Cd 6.795577567108982 7.214741156067828 3.7287277676931847
Cd 7.8566012622028305 8.540161537442339 10.640732286487982
Cd 9.350885371096252 4.859441710166551 9.138760804043777
Cd 3.9455813987089177 2.8349066343659084 5.18397549148128
Cd 9.95414117522402 10.00228897817574 5.759141629839888
Cd 1.706519784497154 3.618186638578245 10.473102911959836
Cd 1.5386253028536816 8.018942317184496 5.352286632279049
Cd 5.738255740690809 6.792728143602756 0.846800835821196
Cd 6.564433436566011 6.824605008555181 8.213228781236511
Cd 1.8993224857969422 5.120230660505449 4.829068099432903
Cd 4.869288274723031 5.761395773036561 5.641717480096606
Cd 5.250512239854207 1.5876645332977897 7.758186601041439
Cd 2.8411948805241316 10.449276531673364 7.594806142243505
Cd 6.5784181078428325 1.3476743247269087 5.074525155245195
Cd 9.950157995131228 8.014607963454756 3.405879143012071
Cd 9.623225730442512 3.1836244167854777 1.5853299257048956
Cd 2.4527079603087882 2.7565643162246394 7.720453694740197
Cd 8.584892912496631 6.33556306445484 5.983527349236344
Cd 9.819123791057791 7.75688339902933 8.485086740544064
Cd 6.9896370488072606 4.068312855078526 6.917282822150949
Cd 5.636454124969566 11.643516624144437 7.110386671201355
Cd 7.078378338510872 2.7366278792547822 9.896867150972692
