50
Energy = -22.08156969 eV
Cd 4.14451121818416 6.195124330025002 11.287491975813868
Cd 5.350601598766177 3.2744519194294948 11.224408044766813
Cd 6.374308273067961 8.139176791292343 0.3992987100379096
Cd 2.6473282909882223 3.75433793254649 0.7434356411618976
Cd 7.391047611685884 5.34454574532767 0.544522094313183
Cd 4.042083624865255 8.849654306816639 2.1217710399191927
Cd 2.2011407920240407 6.561359956024195 2.1705068826417873
Cd 8.344804416722333 7.565541801099546 2.596092932806453
Cd 1.8252782643516121 0.7637630846930202 1.5614754573943563
Cd 5.274150114054368 5.639940449005751 2.781840621711263
Cd 7.007895369078015 2.516482281447347 2.0800451278327072
Cd 6.6933779782946505 9.93274406594553 3.1075401826854265
Cd 1.325553691082375 3.9509754271311257 3.3718789044596758
Cd 9.03038200136429 2.0653994370754383 4.299484000309583
Cd 8.498551718054816 6.593789605146788 5.465695685431255
Cd 4.201599082541274 2.8072702457239904 3.3381991429410784
Cd 8.896602219261935 4.714163725310937 3.0925236561539493
Cd 4.213967927219088 10.96040581182781 4.609632415719513
Cd 2.286036525814186 8.657386320857906 4.514355243437407
Cd 0.15060877760550842 6.623466937843329 4.354780571547183
Cd 5.68738974289032 7.618759175272883 4.958662011619891
Cd 3.4250875135165195 5.548204718145055 5.120456106555839
Cd 9.375148210851874 9.561242214846148 4.8237741580429585
Cd 6.556227204377512 4.330135358139225 5.176515283795785
Cd 2.0662739723777483 1.655551997421774 5.174183826202915
Cd 6.762140062114113 10.684314706447996 6.123322134476507
Cd 11.610979922022995 5.34785321689652 8.520693944287936
Cd 4.288951572084753 3.179256209710833 6.7092883645747765
Cd 6.158183615646056 1.0882449246590111 4.760471656922272
Cd 11.435269461579605 7.159671320678339 5.985327023200111
Cd 5.235831056151099 5.911586927692509 7.514443400855183
Cd 10.403666680988692 4.13870120274872 5.953257659635902
Cd 0.4899936720997869 4.284922960935071 6.201994778781426
Cd 2.876779141486685 11.226173966282616 7.356146747445979
Cd 7.334871661817605 8.290644450884233 7.780029429951685
Cd 1.0678231440059354 1.9889885605983428 8.062416994181799
Cd 1.3777272550924309 7.200858962883956 7.0553635944167175
Cd 5.6412588284233 0.41021094612767617 7.6165708246467565
Cd 8.218224478990825 4.957305653455223 8.011614513990938
Cd 3.987131739062075 9.055275167121284 7.138376421068456
Cd 7.989576571059056 2.140623792678034 7.0584797494208535
Cd 9.578413744422273 7.185872173526086 9.688538511615167
Cd 5.4029637350976465 9.057001180934995 9.8700017390149
Cd 10.202786207677324 9.358822686669164 7.693861402494773
Cd 2.1185545310057865 4.711548870014678 8.633084379588261
Cd 3.6323816200047894 1.9677101233699612 9.583388750110533
Cd 6.303460801889977 3.1742460832578603 9.333923457538386
Cd 3.0547991876622675 7.339255739939288 9.531017705970646
Cd 6.74855937291805 6.320508934203652 10.293619255918113
Cd 4.246633793543337 4.833816740192378 10.703858127311403
