55
Energy = -25.33818505 eV
Cd 9.121721162353928 3.781838381937756 2.935358638362602
Cd 12.394284375756405 6.12499830988599 6.614866118511205
Cd 10.339413464540643 1.6557940868000114 4.637584654376396
Cd 7.611671508469915 5.903678456778892 7.865560185866238
Cd 9.250958351490743 6.142664990747839 5.259896971145889
Cd 6.114021889671893 7.605534661017577 10.05913294167562
Cd 10.551718983436311 6.160091787194412 8.848058837770179
Cd 9.049313631522425 3.4397618096891476 9.779343363037786
Cd 4.616289809808238 5.903605783906567 7.865304919418805
Cd 10.598178870745254 3.6535162208377194 7.091240086178109
Cd 7.581346309391711 8.441444237568644 6.185076150466482
Cd 6.113995433013926 3.1652423116692847 8.411145914195322
Cd 3.612533571158989 6.139423047545551 11.078236152677073
Cd 7.642656066043441 11.040467987081035 4.386086468135828
Cd 11.056435478919619 6.091066751266043 1.9551054405815451
Cd 4.585618610570343 11.04045686751123 4.3860497580262034
Cd 3.425904821353544 11.035902018928953 7.31787932722903
Cd 3.341133364239308 8.785075002311064 9.484063902251075
Cd 1.171917770138536 6.091081138487427 1.9549379708443884
Cd 6.114192264314569 6.11705237119634 4.948240108518208
Cd 4.59074885675333 3.648720846598408 5.703267073276722
Cd 8.887096979201411 8.78524089844407 9.485097291364397
Cd 7.606006988316538 6.130045613206731 2.1217951554537526
Cd 3.1788609884263566 3.439766884297607 9.779312565343892
Cd 12.394284375756405 6.124978271599339 6.615155625955087
Cd 3.062495860560058 8.464520038386967 2.9421455279918147
Cd 7.63736646376643 3.6486956272613895 5.703525345665474
Cd 2.9774381739557643 6.14272208910372 5.259148187156907
Cd 11.94515924072704 7.813000098446984 4.203990299430737
Cd 11.818258205296525 4.367344512536449 4.3288222423540414
Cd 9.165935444339269 8.464089130202053 2.9422871399931863
Cd 3.106397322632914 3.781987779342685 2.935218387927769
Cd 4.634767098316859 0.6956337646178609 4.632672107132189
Cd 1.6300713382148346 3.6536167071304533 7.091146552594581
Cd 6.114038428111804 0.23068248961997462 7.409098686793181
Cd 6.11408828031098 12.235883394387747 6.668902127877757
Cd 4.62224058029741 6.1301966266529595 2.121589348496172
Cd 1.888792468642595 1.6558347880425908 4.637471740920622
Cd 1.6234892991415448 8.561577827979288 6.932809358050538
Cd 7.593405683774305 0.695691426767553 4.6327158741612156
Cd 3.4381784625562757 1.353753700237327 7.54457014082402
Cd 10.60463970989577 8.561597966760814 6.933437074298498
Cd 10.516210043058523 10.545250611506043 4.606731193369758
Cd 6.114054088940736 3.436558343618934 2.9130905498724733
Cd 4.646850354064078 8.441402548341701 6.184912571300471
Cd 0.28301139199676084 7.813038698600057 4.203512075698777
Cd 0.4098444693173875 4.367284660807508 4.328596390598314
Cd 6.114043368290433 4.592099226957291 10.987619860921857
Cd 1.7119949072278744 10.545369881617814 4.606601703566026
Cd 8.802302325211496 11.035882043197997 7.317991107763787
Cd 6.114224211463098 8.65344800699844 3.1302209055799075
Cd 8.789961536965187 1.3536382788727417 7.544689338665844
Cd 1.6764640471059735 6.160164084132653 8.848020607983804
Cd 8.615567926262182 6.139371935442144 11.078340864921499
Cd 6.114110659016221 10.288084736618247 8.838196828123664
