6
Energy = -0.79847212 eV
Cd 8.67555621562988 9.42980324361431 9.350306627123366
Cd 9.408057832172391 6.353360634814715 9.781520003497832
Cd 9.913756605452676 7.549842234420093 6.909914479496956
Cd 7.122072747289604 6.141821918626017 6.149714207895667
Cd 5.574616437109086 8.90728629990557 5.406751362196536
Cd 5.798278933581785 8.053191747033214 8.757225219838002
