6
Energy = -1.01279223 eV
Cd 9.90816374673456 7.922092318591371 5.54429642081258
Cd 7.088227272327135 8.862714181070631 6.808927451463816
Cd 9.410523119951959 4.882881183194837 6.480903591699649
Cd 5.698593374460769 8.149975334063202 9.514267574267542
Cd 6.560924150753062 5.695640187544578 7.784268929860532
Cd 4.253682068181733 7.550396811977022 6.789524828994835
