6
Energy = -0.83485032 eV
Cd 7.846644196634851 6.090000237463312 7.899735306941358
Cd 6.627880411982874 9.232496035147191 7.121421294973247
Cd 10.044574151304897 8.75662591279211 8.007099700215221
Cd 8.560707829775911 11.597981038913042 8.102411534450793
Cd 4.7146051178717805 6.729021376723235 7.6868378513061
Cd 10.543858562708206 6.035900059607902 9.61076631940432
