6
Energy = -1.01079616 eV
Cd 8.628726166072187 6.306802155471886 6.154235508109857
Cd 5.692732731963893 5.998002376953673 8.577337604534817
Cd 10.428747460581093 8.050653319930136 8.107725828025915
Cd 9.39942874748693 9.289291393940896 5.376095799679152
Cd 7.404586805939905 8.763022066066762 7.791445204584012
Cd 5.363826333072259 8.884541614668173 10.2517952385123
