6
Energy = -1.04845079 eV
Cd 11.47130674277245 6.849067499171605 7.945376020811937
Cd 4.979067623139991 6.573268903851719 7.935486597081747
Cd 6.617341589368599 8.940200612439673 6.3846942329800145
Cd 9.691233995912393 9.66483580247148 7.938792615437922
Cd 6.614228445587508 8.9473425304133 9.46752339986121
Cd 8.23658908335949 6.635052131792661 7.937570280070731
