6
Energy = -0.72400493 eV
Cd 7.5441048789696055 9.39180500959252 9.47262196880841
Cd 9.446872359652305 6.655428331512765 9.215925307616596
Cd 6.1190533592226535 6.359522882762646 9.373276606944033
Cd 9.285057636361401 6.918191401854272 5.710344288843915
Cd 5.963924736005763 6.531591560503725 5.860705281853707
Cd 7.292394109872446 9.601305082385204 5.96903445906594
