6
Energy = -0.54177837 eV
Cd 7.66993645778698 5.750640076403607 7.887369968918329
Cd 6.325340700585064 6.157995086105834 10.95202975042476
Cd 7.142262990803321 5.905762373693304 4.551616507085518
Cd 8.8772874206108 9.130080469549416 7.910586421086478
Cd 7.4734774640803785 9.524163722744932 10.953726875958985
Cd 8.308485374925128 9.268966207489534 4.58247979650235
