6
Energy = -0.92704086 eV
Cd 9.644842592519664 9.037589873222501 8.470912727328267
Cd 7.353504265999125 11.225194150005182 8.37911458872594
Cd 7.246544863789692 8.930925412568525 10.545326917682482
Cd 8.192793841194575 2.761069974699111 5.5508015472620675
Cd 6.764355930922834 8.248328923740173 7.506910573269407
Cd 6.591997062390464 5.718686911267809 5.606183206860984
