6
Energy = -0.75763576 eV
Cd 10.960854453854274 4.618143217543959 7.4740077369236335
Cd 10.54174999515223 7.879232575637151 8.238612164862097
Cd 7.576013133652186 9.469516182634766 7.558526949655225
Cd 4.553459669704346 10.896170906014783 7.4740077369236335
Cd 4.972564128406518 7.6350815479214695 8.238612164862097
Cd 7.938300989906558 6.044797940923855 7.558526949655225
