6
Energy = -0.97498738 eV
Cd 8.896530522180214 8.349960411464874 6.146042667867369
Cd 6.0049051685104455 7.091595002460562 5.355684500514368
Cd 7.682734329993868 6.064118290653544 7.890278179069502
Cd 10.360185229459404 7.219310791832467 9.555894036750104
Cd 6.25172325140023 8.98851216947374 7.829852323264202
Cd 8.291639769153383 9.62210467743282 10.406955890519193
