7
Energy = -1.21923518 eV
Cd 7.69407658331974 8.012166425162373 5.978920455510687
Cd 8.950693113366619 5.350065743385914 7.48416746767948
Cd 6.145878008416279 10.00218977841563 3.8771991862881188
Cd 7.290371773923422 2.483002220773696 7.371984164804339
Cd 5.837178709079076 5.368479612887662 6.5669751678409165
Cd 6.651008416826679 7.310804987716672 8.888031592041843
Cd 4.5148493989175495 8.389977175286742 6.331567257489591
