7
Energy = -1.40438569 eV
Cd 5.169211714285769 9.342040999999954 6.984947000000069
Cd 6.905759714285573 8.746337000000036 4.354243999999954
Cd 4.042889714285751 7.388210999999956 4.719773000000108
Cd 6.372487714285729 3.371757999999944 6.911064999999967
Cd 7.35870071428576 5.250202999999906 9.297432999999913
Cd 9.178907714285684 4.891863999999908 6.691870999999992
Cd 6.472042714285697 6.50958599999999 6.5406670000000915
