7
Energy = -1.35698848 eV
Cd 7.233419261883327 8.53035553018022 10.018790133973864
Cd 4.921450743530458 7.064965683766627 8.304848269234183
Cd 10.057881997869758 7.175775278247809 10.781337590505139
Cd 8.169558989250506 6.30704177054898 8.168939290340521
Cd 6.812960841753248 8.905589609309905 6.6132888969843595
Cd 10.0665107994786 9.009882422932215 8.237545713303945
Cd 9.453208468765506 10.045704444590084 5.343298209070317
