7
Energy = -1.14686328 eV
Cd 8.402969373514441 11.105447180863298 9.186237799818878
Cd 9.103315753301748 8.168110245682833 8.244655727837845
Cd 5.9023375447514566 9.141633570949024 10.020015565595548
Cd 6.210976328680799 6.747878070443171 7.704565046425992
Cd 9.421814616733178 9.427246364732575 5.271959362358082
Cd 8.111833035856286 4.792396095411324 9.35075603302408
Cd 8.779681649306381 5.815303829102943 6.0987610536868715
