7
Energy = -1.37638705 eV
Cd 5.999817888153832 8.97314497492016 5.999817888153832
Cd 7.7472974404618835 3.59296821498647 5.999817888153832
Cd 3.170341776307665 6.919937454556978 5.999817888153832
Cd 4.252338335845782 3.59296821498647 5.999817888153832
Cd 5.999817888153832 5.99988445153482 7.54946540294544
Cd 8.829294000000003 6.919937454556978 5.999817888153832
Cd 5.999817888153832 5.99988445153482 4.450170373362224
