7
Energy = -0.874276 eV
Cd 4.400668324291028 8.46260314226305 6.1801448695924375
Cd 7.263186430891736 7.282485333553181 7.291262060275467
Cd 10.131638320097588 6.1848869843981 6.0790149329849745
Cd 10.148592861811386 8.366553780644137 8.452144781976996
Cd 13.304528986421845 7.260426452285462 7.261242880193448
Cd 4.398629085974197 6.075650525854444 8.367466532859147
Cd 1.2487860637265986 7.263423854216156 7.264754015332209
