7
Energy = -1.15000682 eV
Cd 3.2765234935825496 8.968298950931946 8.52198156346827
Cd 5.195636024392083 6.896458813500679 6.862026364025317
Cd 4.8500738653029485 6.441102220753064 9.981764405126585
Cd 8.099517939660387 7.7485796920953565 7.782463371798189
Cd 10.092055701195674 5.990314665922246 6.081751448833628
Cd 10.050777717057498 9.118533343358324 5.6326085675248665
Cd 11.356231669679648 7.939312789820087 8.254135711702583
