7
Energy = -1.39710318 eV
Cd 8.794871715828743 5.042699791348745 8.121035729337779
Cd 9.350938089086132 7.031959929105814 10.576420311225723
Cd 10.335854348781387 7.7793774006971885 7.6399539312824425
Cd 7.165824019558959 7.76389994284612 8.451675843718137
Cd 7.598541094452819 8.624811094594731 5.346824167576845
Cd 4.796011180188601 7.455563887374187 6.377142394544978
Cd 5.7912168857602255 10.35382861725698 7.3001404809919235
