7
Energy = -1.11975988 eV
Cd 10.142532507758776 8.456937317200335 10.850244668645624
Cd 7.676439699284134 6.61582131836215 9.760894379318062
Cd 10.682525060854466 5.85168545365038 8.839748508640056
Cd 6.6459474782717045 6.361503965107071 6.699630264622025
Cd 5.684516732626324 9.248282555588455 7.4759681213604035
Cd 7.785987892787073 8.832591993181335 5.088931325546097
Cd 4.760546624896899 7.970161877375942 4.676445187408196
