8
Energy = -1.6150635 eV
Cd 10.705012724470492 7.7109385134752335 7.9915459257161405
Cd 10.24028006565667 5.261512501620941 6.037022519425402
Cd 8.348185163659878 7.7958711675993 5.8504082149375405
Cd 8.177199936427945 5.8465470332040494 8.346132853700725
Cd 5.194067789611758 8.820734410015287 5.775486184359123
Cd 5.342954979530888 5.689880892716638 5.993650455102272
Cd 5.203834785562401 7.4232060769197465 8.599702700462629
Cd 2.473848432738865 7.315213658552654 6.769871646104916
