8
Energy = -1.65409996 eV
Cd 9.038669621244637 8.457295845650673 8.327472487645387
Cd 8.240677324677424 8.971960037625129 5.09730620653472
Cd 8.684415702826563 5.705497186920554 5.767422001348779
Cd 6.74502412273758 8.229981673839605 10.576285747982089
Cd 5.775880161444755 6.6825132054698315 5.105875321419541
Cd 6.551953450897913 6.147690054454075 8.290238048709794
Cd 6.130713235180758 9.443931365106327 7.685004237939308
Cd 6.203171447551656 3.7818944001992794 6.382306490285996
