8
Energy = -1.62764758 eV
Cd 9.645158686574701 6.07464506557761 6.422908368693692
Cd 11.910242121777895 7.653493288118257 8.244256398827588
Cd 8.755605456378401 7.6534963014517645 8.991701956282963
Cd 6.540447208932485 7.6534963014517645 6.304350709027924
Cd 5.655660182657273 9.21014634157698 8.883757733555514
Cd 3.385810543532858 7.653493288118257 7.051796266483301
Cd 5.6508939787363195 6.07464506557761 8.873144296617328
Cd 9.64039248265348 9.21014634157698 6.4122949317553735
