8
Energy = -1.74137816 eV
Cd 5.678425308166856 4.530302466683227 2.6433353781828486
Cd 5.730903739582739 3.937421239648808 5.665202861851015
Cd 4.346726733435406 4.438906028547536 8.412455451339888
Cd 7.541452346108351 3.9825961947811885 8.202856395099891
Cd 6.127725550431306 7.176592798723534 4.152921206573676
Cd 4.9102517517623125 9.20273414203522 6.18411074986114
Cd 6.23534348594776 6.683598352317955 7.410854343213208
Cd 8.10319052556131 8.721868617821897 6.00228332125018
