8
Energy = -1.62477513 eV
Cd 9.202063741259522 7.18769174799124 6.547591223000626
Cd 9.074927173839754 9.886424079080093 4.875969545207665
Cd 7.5091072036384166 5.969605717607234 8.975052389102183
Cd 9.041130761234303 7.095851222831843 3.374365691219436
Cd 6.526518081312401 8.00144846895356 5.0888960123653835
Cd 4.980136614646359 4.075128988602005 9.236579973507423
Cd 4.980340361462478 6.911020467972644 10.640709287472745
Cd 4.841981044135812 6.713496328095301 7.481901611552551
