8
Energy = -1.40072737 eV
Cd 6.235847306560127 5.929026043728522 9.779952328987665
Cd 8.766581315434047 6.283767150549621 7.167782862605834
Cd 11.714020518168217 7.28668907101222 6.035065534829526
Cd 5.223519919185095 5.729788908778128 6.766443112351535
Cd 9.281430835015156 9.395048646945163 6.73354461775224
Cd 4.194536820093252 8.110157555592712 8.646849250896533
Cd 7.9726300422318115 8.568952081385142 9.454556657639092
Cd 6.7485274424741455 8.159657977407832 5.377447137461791
