8
Energy = -1.65512082 eV
Cd 6.000903727408807 8.305299042213273 6.764622881595971
Cd 6.000903727408807 3.696508412604341 6.764622881595971
Cd 6.000903727408807 7.566319952832379 3.570041454817736
Cd 3.696508412604341 6.000903727408807 5.237184573221645
Cd 7.566319952832379 6.000903727408807 8.431766000000119
Cd 4.435487501985237 6.000903727408807 8.431766000000119
Cd 6.000903727408807 4.435487501985237 3.570041454817736
Cd 8.305299042213273 6.000903727408807 5.237184573221645
