9
Energy = -1.87351922 eV
Cd 7.474000476192013 5.185690210691994 5.440055110042594
Cd 4.346106418014084 5.782786062097582 5.23078034439508
Cd 5.90693444164965 8.731730281608298 5.073678091607183
Cd 8.830871477224346 7.8932373875606725 6.227599283656918
Cd 3.613313508303509 8.072598080008481 7.224802281440765
Cd 10.672232772846176 5.064922347759587 6.12663701970723
Cd 5.055944345385229 5.491645425325766 8.481880675525167
Cd 6.571676866863394 8.70539940527705 8.562762387781913
Cd 8.289368264220956 5.832439370369654 8.39225337654183
