9
Energy = -1.77248664 eV
Cd 5.706808294539854 10.470924518078688 5.26176671802689
Cd 8.454848738135794 9.568300704482484 3.9846531338772024
Cd 6.43468881067464 7.387445872638031 4.98707147009323
Cd 7.407960495187912 5.711485161518098 7.821017149213822
Cd 7.961211363088933 9.26304745796256 7.083798065446994
Cd 11.008171030756374 8.210922307198793 10.02289530017899
Cd 7.912857355663133 8.068406034944797 9.962236488823939
Cd 9.338073135592284 8.989741819273025 12.647085162213465
Cd 9.438962623345947 5.929363872237657 11.665726960844156
