9
Energy = -2.26874736 eV
Cd 6.207780999999971 5.8120187777778165 4.118506111110981
Cd 9.128798999999796 5.777039777777673 5.213226111110975
Cd 7.634489999999906 8.49909077777777 5.509124111111112
Cd 5.806345999999908 5.4544667777777205 9.226326111111135
Cd 6.988110999999991 4.054223777777667 6.700146111111046
Cd 4.553147999999865 8.280056777777776 5.065162111111077
Cd 5.608930999999957 8.308515777777822 7.995912111111014
Cd 8.411949999999942 6.730303777777579 8.089816111111064
Cd 4.160443999999971 5.584283777777738 6.5817811111110265
