9
Energy = -1.94309185 eV
Cd 9.777189103633683 9.53224144540429 9.608182029795879
Cd 10.731869687677358 8.53984077338086 6.708002784146358
Cd 7.731913152993256 10.171021688921066 12.08536748313391
Cd 8.37759385344082 7.162394589096443 11.081220907939237
Cd 9.493797520124357 6.32257716897575 4.657021990211527
Cd 6.6845131213719675 9.116764952842503 9.261264078710811
Cd 8.269000456956563 6.609989572285369 7.686827946181231
Cd 7.765338856320212 8.882806036771978 5.612609711990641
Cd 5.084667287265033 7.680284758942853 6.98138215167947
