9
Energy = -2.01187091 eV
Cd 6.787300068671001 5.940945799742341 5.411650053661037
Cd 9.786168418369064 6.453169326381211 4.869638460912345
Cd 4.956343615432146 8.825871440440697 5.479120112628802
Cd 8.228411121309708 8.865099270735842 6.378942264120701
Cd 4.060969692851824 5.988714435558485 6.777263432125688
Cd 6.310644391292929 4.267306439858117 8.357247829079517
Cd 5.8947574555779685 7.663000082552474 8.547373518321356
Cd 8.423963125979869 9.09080698827172 9.60272619722649
Cd 8.974699406610164 6.328343512553657 7.999295428018862
