9
Energy = -1.85589529 eV
Cd 5.8911299078478265 7.231857893425082 7.179989815729013
Cd 5.729453026493128 4.003778704470851 7.664219481080169
Cd 5.340995714363031 6.04688989173032 10.1710593504938
Cd 9.009825530145708 7.594708614135733 5.942631730935306
Cd 8.221902038643504 5.868352822395943 8.656136653362683
Cd 8.04682515241922 9.181278098980469 8.716900159118907
Cd 11.161137450405807 9.453608942238372 7.948525936664701
Cd 9.571643358775152 11.902943866045332 9.375515366142352
Cd 9.069443050829255 11.073850111246378 6.286096881888611
