9
Energy = -2.12754662 eV
Cd 8.872409002296537 9.625960711884408 5.054925193324066
Cd 8.002443295418368 6.8618026080564025 6.062176650009429
Cd 5.8605078773578 9.177320768070304 5.917900425111754
Cd 8.067218138445526 10.066738154995608 7.986402794050942
Cd 9.797652790444491 8.516146860895088 10.081445919741805
Cd 9.770800208221326 5.7041985211651305 8.367405285754849
Cd 6.9665857321838915 9.7339531978185 10.889719990094951
Cd 6.901457262405986 4.470846917508819 7.715410845235452
Cd 6.935462805547901 7.183346952166762 9.165143653136356
