16
Energy = -85.00947638 eV
Co 8.83914051320299 4.618439971754975 6.262495616934647
Co 6.881262355076911 6.3531018279980325 9.165971859161768
Co 8.461308002138717 6.802578467414736 7.298317140894447
Co 6.272532069114539 7.743052990967105 7.4199099090149225
Co 6.66474863888698 5.280583878985601 6.895537175262652
Co 4.782603334171208 6.051370492261415 8.254978107435365
Co 8.378430721412247 4.837789745371536 8.468249555781378
Co 7.911546710361456 6.224543639116048 5.035929526237481
Co 7.058302035700135 5.880504750913732 2.95329453762322
Co 7.497522891021523 8.37612220130489 5.658472426174243
Co 4.576719871734655 4.404589188847722 6.5792465735135455
Co 4.713990785899274 6.6736826667978155 5.958180025874551
Co 4.044601299516039 8.103204878224854 7.799946108694032
Co 5.837224527555964 5.115227625073305 4.696544079947352
Co 5.083446813817049 8.929889331515257 5.782182769373641
Co 5.982016141486033 7.464719892170416 4.201136712120171
