12
Energy = -61.70829321 eV
Co 6.371019641086117 4.050948572576773 6.356835798541162
Co 5.315113536236272 7.483077268906197 8.346055814976836
Co 5.1029735682883715 5.434734104440928 4.979415969436829
Co 4.485458408444636 7.52062758281911 6.194315478657204
Co 8.492224555062892 5.234144293498596 6.988762978187771
Co 7.591630120234914 5.321101147570936 4.866920184822105
Co 7.844964409239604 7.378936621957823 8.202080356664748
Co 6.428055934392741 7.3932231013345335 4.827688498857207
Co 6.547728047088171 8.698912737555224 6.8016979766822185
Co 8.49671462578522 7.3189517920065255 5.9742040961701095
Co 4.400232102944615 5.446502877898432 7.197977743913358
Co 6.4728305575027605 6.261704452166596 6.811328781072627
