12
Energy = -61.74208884 eV
Co 6.880146021066642 10.699568682948021 6.728889171645015
Co 5.722048718665572 6.67713295881002 6.54099935642531
Co 7.492548333541715 9.380622753386065 8.636381046185212
Co 7.051955413660917 8.492277652604974 6.542131354407923
Co 8.96882970217938 10.167555403224364 7.079070052490495
Co 9.431358668415266 8.222483347987092 8.983484218849547
Co 6.447956403447504 7.371193321836469 8.610397774447163
Co 10.097723596019481 6.135271965132008 7.8897142020862505
Co 7.606325355207384 8.124796257640234 10.529651330639162
Co 7.8734628767180155 6.224418429451843 7.117536196502764
Co 9.2899613885523 7.936917277058265 6.748386117273317
Co 8.33601595636926 6.303310248402507 9.330665814642442
