14
Energy = -73.79353556 eV
Co 11.007992425420936 7.369629400639069 7.716027950161999
Co 6.8997816043844775 8.785676632570883 7.492802315351376
Co 5.969225978920311 9.414787810785297 9.550275808867621
Co 9.043465974785532 7.09639241945176 8.864714137756582
Co 8.282356015926542 9.174664886023589 9.409404345508017
Co 7.7278735106993475 8.018627848189178 5.427868834097668
Co 5.135501296107228 7.602441175493743 8.509477541618182
Co 7.0904843058799205 5.853292579974041 5.503119108926817
Co 5.5697040805251605 7.38387699444877 6.1885453311716345
Co 7.029079951509166 6.443694045709603 7.768971046904198
Co 10.544195620705702 9.013590397859376 9.17102458533735
Co 9.072529693698252 6.538258123490286 6.592101577057126
Co 9.226975467144634 8.76506999773465 7.188485922245087
Co 6.940449151037034 7.374035423837072 9.993479611726091
