14
Energy = -73.3518447 eV
Co 7.403210985911406 5.941099217721425 8.367698639238826
Co 7.77529579421115 4.851612620822352 6.274649919090705
Co 5.175871817309467 6.9970243684730535 8.320163624884483
Co 5.785198483669174 5.191994517278272 4.849180265436261
Co 4.204777012700095 6.4936974458893255 6.1501245979359025
Co 8.761223243662895 7.0853947599121785 6.649196349004769
Co 7.749537213775236 6.577548400974299 4.504253466224381
Co 7.141141342253926 8.362606534491093 7.9258650544375016
Co 5.535586628621111 7.474892736195692 4.428217972263769
Co 5.142296768883534 8.63215481098866 6.652797412706589
Co 7.440568290861761 8.687039571980126 5.578131098731527
Co 5.607178774803999 4.798920637607537 7.27741481604055
Co 6.471539482688224 6.7767314401193515 6.4039659278252286
Co 7.361108706412511 3.6870726115547483 8.171187283455758
