14
Energy = -72.58793029 eV
Co 4.115229403082398 6.535802954261299 5.523439500396049
Co 7.328837604066886 6.315222402391382 8.1455156326152
Co 5.776269435724638 5.214569159562422 6.566602143039907
Co 7.426427893997531 8.571408393685315 6.939523070470993
Co 10.75551236773377 7.809879993958568 8.876166821314394
Co 4.412832731028396 4.312499874684161 5.032169541108396
Co 5.865595882687726 5.814099638887156 4.174343686776777
Co 5.838478086103806 7.997479341308918 5.023731064120764
Co 5.452729446024522 7.383845675872427 7.240617789363326
Co 7.429590638385004 6.549113768820308 5.764765524267246
Co 8.911442025862682 9.163819503445657 8.642729703798437
Co 6.838466226039975 8.280977217322926 9.17575716343747
Co 9.241411310856252 7.22507323288626 7.332074485955
Co 8.794683755036912 7.137929702701061 9.77480891688538
