11
Energy = -56.06956443 eV
Co 8.062735131305457 6.40078188936093 4.8769885559140205
Co 7.329783134574272 6.490775941186212 7.003693922280065
Co 7.06351208115979 8.458966658337713 5.833668215559315
Co 4.875038553926912 8.80907132597412 5.622561570626009
Co 7.718290161963802 4.366366713897235 6.3264056216723
Co 6.658632065846393 4.69828822677075 4.33354190528799
Co 5.537853856305429 5.02847635532204 6.313328905276688
Co 6.447516176197858 4.988976613644394 8.417893462616682
Co 5.8076147767254245 6.82483169925664 4.861478467055135
Co 4.280757159988487 5.523823956212638 8.224459837478074
Co 5.19220644269246 7.243834570237081 7.1830353825942925
