19
Energy = -102.90035521 eV
Co 8.345642101297882 7.975230556705719 5.932149772986662
Co 6.401595239764285 7.588838018063773 4.494997032731883
Co 6.399673135826889 9.198636675231391 6.251836217346541
Co 7.934202302104909 5.738405511334565 5.462757910489761
Co 6.417389969481156 7.1656699512085344 7.315293867127036
Co 6.616665233308118 5.338201070553223 3.558277986074661
Co 3.2469048196131753 5.515019895083359 5.661274096355536
Co 6.61954866470065 3.5918294558859976 5.261110762644705
Co 4.274185297334703 6.6959463721209485 3.8907650917106693
Co 8.559278262604748 6.366490388622343 7.649555843084051
Co 2.8520243731381 3.1770874766712662 5.408362077990109
Co 4.826894341048992 2.0894685636109736 4.951461174351564
Co 5.574746533183319 5.72301527309399 5.585851513946932
Co 4.577277545611715 4.197072146043442 4.160246358081503
Co 7.968714522558494 8.684682590820831 8.008727287777258
Co 6.849657413980565 4.79785046876188 7.32529114580962
Co 4.645174592722153 3.781436135177723 6.60887862428071
Co 4.535737865332755 7.777627910501088 5.902344598436787
Co 4.516875801923846 5.8639591727786495 7.6883857460519005
