17
Energy = -90.66995108 eV
Co 4.66197649310852 2.762731582765577 4.969360380026229
Co 8.532776780811313 4.354764702041242 4.261481246384239
Co 6.651183451799712 3.749447538084305 5.274554274802272
Co 4.635210921116514 5.0021406717515555 4.7087466725089735
Co 6.121263364771653 5.621154068458985 6.554395226604034
Co 8.397334195349956 5.651872652497749 6.173556015370702
Co 6.953848580974911 5.952025847386932 4.283842181295846
Co 4.586580064793815 3.9556632589803384 6.8949760935008255
Co 6.84051289096061 8.171147450758697 3.8943983385008507
Co 7.371247561728208 7.713583465036314 6.005242589900089
Co 5.074723282326947 7.373810530522335 5.085310226326351
Co 4.9853201662240565 5.714617776009018 8.587676581576204
Co 7.364297094992434 6.600251039934933 8.222167604799825
Co 2.9961236950920886 6.550955667260289 4.613805326045095
Co 3.688719934652744 6.0726694416534 6.687039462474441
Co 5.3764956110671065 7.688474619703817 7.434880064966735
Co 7.282407756028188 8.827927583336052 7.92407199949215
