11
Energy = -56.33114462 eV
Co 5.254060932577294 8.940930927937686 7.473697788127576
Co 6.993649094137653 8.57398523989486 5.79139304740791
Co 7.08864282591317 6.715942780449507 9.994725241739031
Co 6.9389173748843325 7.377647010308098 7.740715245121511
Co 10.413288531993059 7.089378771740841 7.6360345950480815
Co 8.619746486619162 5.905929440977736 8.382373133121627
Co 8.550324227174075 6.750725742255473 6.235428550029001
Co 8.753650195404592 8.076342419552164 9.048271216820739
Co 7.313217343710989 9.79604367129527 7.733754040582995
Co 9.148205819161161 8.815206405486537 6.875604240549891
Co 6.370455596042192 8.76718544003761 9.561525674115549
