17
Energy = -90.78452285 eV
Co 4.816890674351446 6.73847248684316 2.3915217470244423
Co 7.0292101184338405 6.067233600198286 2.689622986117154
Co 5.801458442170661 7.645599947011669 4.183615611646228
Co 7.316736915971824 3.889085237000279 3.669895927899885
Co 5.384336989970815 4.496630684418505 2.3069360403298207
Co 3.459496265922032 7.669357809046572 4.0510990266980915
Co 3.449754015797805 5.359476035040543 3.602891876328143
Co 5.12593033324569 4.025984780620341 4.479072488024112
Co 3.189314521904261 4.252956678781059 5.781891413394899
Co 4.456431539273095 6.267541069942987 5.505542518424165
Co 4.651256578941778 2.5742903475935046 6.259829266259707
Co 6.744451140260936 3.71633921595785 6.105426214396816
Co 6.762341996973594 5.706115308140332 4.9061625048285435
Co 3.872672212827814 5.4393901441354044 7.616052610817355
Co 6.134060595814616 5.752676894115061 7.144603594407883
Co 5.329686011361654 3.765991449637764 8.059654375773317
Co 3.090405863416115 3.2472925281543494 7.860616014266513
