18
Energy = -98.01473529 eV
Co 7.021158793754328 6.576824579161551 8.377080669701668
Co 4.995006186165402 5.4698824509197 8.849057441780216
Co 5.229719384067815 7.87580104691821 9.02806129502529
Co 7.495419314482261 8.669148839046981 9.045845440626698
Co 6.266490004529887 4.626735047895663 7.051108869324792
Co 4.757313867244883 6.810745039007761 7.015371072392016
Co 6.347423186570723 8.690797374964491 7.092381215727091
Co 8.59106976200672 7.799974679795747 7.060909264280298
Co 8.622904699924415 5.389680334273997 6.893864552761247
Co 6.91791139785371 6.700710995267207 5.943030770585365
Co 6.856816066214667 6.766884496688972 3.6498244347863267
Co 5.122627606195074 5.5271649089615265 4.940836889172762
Co 7.385858495220084 4.68886073093709 4.9434027625514325
Co 5.289933891094142 8.014336962593118 4.936733861316586
Co 7.585464558807834 8.647375972951465 4.927880414914607
Co 8.95686419899359 6.639532676463862 4.872023462374828
Co 3.973105376885161 4.6303421837586916 6.8194046417070915
Co 5.428864852726993 3.333384556146636 5.415108124902028
