11
Energy = -54.82891752 eV
Co 7.1551157985604785 5.770142166456678 5.071589557672361
Co 6.976501630187809 8.047576209957857 4.980441641100885
Co 5.785064826682589 6.931866248343606 6.5647945129966665
Co 8.994413000986953 6.962410539649074 5.754692202652307
Co 8.257140600641813 8.91271952292216 6.618224723791609
Co 9.39992302895752 7.436038115084933 7.976057763800449
Co 5.980745784660548 9.265134016654875 6.67418802827388
Co 7.7868825049299435 5.867216227724626 7.327022971018552
Co 5.8767363950011875 5.9287368295650476 8.63892416536852
Co 7.08311265027594 7.86619659094371 8.243797140111797
Co 4.774756508345767 5.0823562619283615 10.220660022444537
