15
Energy = -78.11034355 eV
Co 9.263107694873346 7.2067731161829816 7.8132203785158
Co 7.681835572141076 5.5914503977025705 7.280124427339772
Co 8.267825671145898 7.270759165027331 5.751873726290798
Co 8.501728619436225 3.6682075087462573 6.331817655696623
Co 6.571314529578903 7.056237240207714 3.923981214804108
Co 7.097390883332413 7.6894903671085695 8.060860287998002
Co 7.4617465532276634 5.197271083697825 4.973326582521105
Co 6.2721116577644125 3.7944377072777824 6.55152638696415
Co 5.38818269538567 5.845981459940339 7.6110592602370115
Co 5.169489718410163 5.480481338007671 5.277573169816797
Co 4.823008796070796 8.014278086682422 8.105822986667066
Co 6.02832162957468 7.498395580778019 6.056429871216587
Co 4.269582321806147 7.405950452358126 4.433377350690071
Co 4.1011129873626855 4.0782499023871 6.804467702356871
Co 4.38503946827548 8.988569515315763 6.0687320014456665
