16
Energy = -84.66681729 eV
Co 6.765362620840436 4.384936728295019 5.618536885988833
Co 6.885189089404221 3.4748697675886455 7.6698266274554125
Co 8.436391841469593 6.033778182080834 4.960451709219668
Co 5.626794963837655 5.342726606688721 7.572013251946747
Co 4.467510373566994 7.36327831022183 6.9674836210754
Co 7.530988681531133 8.316125373489076 4.3292070912339895
Co 6.425059282653258 6.81628834769618 5.721796865886483
Co 6.665015520146696 7.535284158600379 8.05043923485084
Co 6.34873151492498 9.05074055518917 6.3329039252306965
Co 4.616339103595057 5.419265506212321 5.285852389626372
Co 4.767734873236581 3.468002866449124 6.5081902211249485
Co 4.984762602992566 9.088075900611436 8.20604427823624
Co 3.3787285438754444 5.275087261628476 7.1519876492468315
Co 9.687638436834993 7.903418834230465 4.6225412933967185
Co 8.431053310549848 7.954093504940761 6.508824160733175
Co 7.959194230882929 5.671582015478025 7.203142526267718
