19
Energy = -103.30811936 eV
Co 7.128505791466815 5.051599689564417 3.4380852710370426
Co 5.111128519485168 8.044384484942107 4.8389637733209225
Co 5.731287847756906 7.034068663833867 8.597733188093107
Co 8.491083809031617 6.993583379424038 6.95462480118957
Co 6.12939781961074 4.256216859356915 5.388800660995544
Co 8.347395656636772 3.679619033882007 4.817423822504346
Co 7.660129511661056 5.861760127764023 8.832706245477933
Co 9.150637498996677 5.7585515891041235 4.930184073972917
Co 4.250527937519667 8.325844376361175 7.014659316541462
Co 7.721318500278187 8.218063711000411 8.804019146670019
Co 7.935260824574541 4.793046796082683 6.777926634435467
Co 3.1996761997748697 6.8107117754188105 5.298904001806901
Co 5.656094462078427 9.340883282507953 8.554863051361417
Co 4.934196110107668 5.76849373053789 4.115542554816344
Co 7.041013799608858 6.549520637339313 5.119472249909248
Co 5.881114417999708 4.65487875693068 7.809665996713198
Co 3.8683016131458037 4.513011945121694 5.8530661569255225
Co 5.09525166854974 6.285317735835965 6.470849182066793
Co 6.603876144414849 8.334173890684543 6.7507211568645
