16
Energy = -85.71234134 eV
Co 6.773631362139027 6.290625653548788 8.35466993432554
Co 4.955095204147823 5.058659809088458 8.907974226997878
Co 4.889032054671336 7.455481332932371 9.016530650220446
Co 7.084630177456941 8.426743432144718 9.034088613771097
Co 6.197037560696158 4.416159119882407 6.950646896775896
Co 4.638593720034258 6.24266836058422 6.998394633806798
Co 5.940996680140812 8.307456382476504 7.07537325933223
Co 8.26091035503624 7.692524709349617 7.069391091291805
Co 8.523600808925709 5.244644497277036 6.864735716371322
Co 6.739699327738328 6.40289105185635 5.910552097057162
Co 6.684301248038827 6.520703047391146 3.6400651988636885
Co 5.126272205648813 5.14227912296139 4.842853710588753
Co 7.532149839613876 4.545826511019862 4.835789590394137
Co 4.9595577892251415 7.559177000866352 4.945908092054534
Co 7.213277368658724 8.454810901786239 4.9627480708451275
Co 8.790401118594836 6.5432810637652095 4.907509712241713
