17
Energy = -90.92678939 eV
Co 7.300553718563855 2.590703886258757 6.4811782701350005
Co 5.940136815869128 6.208095196063943 7.415434974307382
Co 6.22348858769739 8.468623678951698 7.802265091678774
Co 3.259582683102865 6.384776245758758 4.736382508120136
Co 7.723027163747801 4.655828590549234 7.3298921715852785
Co 8.36217536530667 8.543012175190066 6.8393018313166225
Co 7.818649697401051 6.490555097519299 5.9391492687916125
Co 4.729917537065103 7.9883799899308015 3.9907948957798345
Co 5.647075208502069 6.106295972061761 4.931659030473036
Co 7.934856105511817 6.875624888545093 8.297440386481965
Co 7.281831366521751 4.30763642183931 4.961045953626684
Co 5.806823948194957 4.502164351624707 3.3116796218655553
Co 5.580319067601248 4.014658828854494 6.515824624458015
Co 4.431361651248629 7.699781397996742 6.325227346361603
Co 4.139031789918173 4.246216322403589 4.75476462026723
Co 3.7371445579489686 5.457463718148474 6.769891644784729
Co 6.458632646473392 8.336828847170999 5.52095568214447
