16
Energy = -85.59529068 eV
Co 6.7049964790341186 8.156660681220332 4.151649098919689
Co 4.114613017570258 3.6414865456700483 6.860233264921187
Co 5.12066636812144 7.123847340890718 5.426066884540343
Co 5.9734265956313175 5.055173742185048 6.703000130077546
Co 3.822634087484662 5.889384770139356 6.827684310848432
Co 6.563961498434298 5.761599144727252 4.135551972805509
Co 7.888667958093925 4.546485258032275 5.570885464645671
Co 6.5550305855146 3.5947282801229408 3.6849208409419854
Co 7.502570497236122 7.021367740333054 5.962652762997399
Co 4.700740077545543 4.469210344419768 4.829283902154811
Co 6.186695857875915 2.9684464421334362 5.807981759373479
Co 4.015738473721997 8.29531818834471 7.0646786684672485
Co 5.821565039811181 7.163361223009336 7.778091136691039
Co 7.8663435447581405 8.04540352419031 7.979047048670429
Co 7.8801784299577 5.68156303082999 7.772206781820365
Co 6.240653260873002 8.944424094071854 6.3732166977332385
