18
Energy = -97.2951347 eV
Co 2.8482244208856753 5.37862128550375 6.1917302881244405
Co 3.7455847287565707 7.657182040492642 7.110039305284384
Co 5.740863423789213 7.204619533436249 8.561401654442815
Co 4.352982349334487 3.5266168849801285 7.201974660716299
Co 5.96333651457287 7.789140246431445 6.286246485908026
Co 6.144469462787559 4.702481053169991 8.677502349498562
Co 4.865492389129285 5.715822940216003 7.1476792039759065
Co 4.619538446059937 4.405665167007629 4.996065854224265
Co 4.315043387626756 6.744319832671204 4.969166589759248
Co 6.474628436126339 4.0117083168949055 6.371913413867756
Co 7.326698470254663 6.060718354977744 7.180104119981798
Co 6.740955916639151 5.982256708839235 4.782021517551819
Co 5.210894208842105 5.534909065843137 3.01705185290124
Co 5.744629770086283 7.7643316979559955 3.569843677613041
Co 6.51183051952881 3.8439322845510833 3.8271708041959656
Co 7.616630661305595 8.209465525459946 4.8711862328532485
Co 8.374107060460128 4.345513232296081 5.23091139417149
Co 8.895380748943902 6.5371783849893 5.699191084639309
