10
Energy = -50.83897972 eV
Co 6.478970075773959 6.953809561557256 5.284236538194814
Co 4.567571466355451 8.296256535079772 5.482553624810025
Co 4.64470376884772 6.666647754934437 3.8919125129447396
Co 5.634036028601719 7.572873548612348 7.360091155411239
Co 8.036920087553149 5.161158802767898 5.316289412468721
Co 5.815878507309197 4.785002128044781 4.750430447930813
Co 7.016783795517565 3.2857667092177154 6.105579355204194
Co 6.4549638613556315 5.379638454872985 7.000589391254275
Co 4.405337734863046 6.042480025684587 6.115068758584314
Co 4.8459197046136 3.7574515100194024 6.594333833988052
