15
Energy = -79.88213696 eV
Co 7.795738722688672 3.7267756196732376 4.310505437400175
Co 8.689696020452992 5.599922208004517 5.252370635029084
Co 8.206574430859268 5.945640620395547 7.532522251420658
Co 6.802049674417475 4.6486451994486595 6.234800856440282
Co 5.532244281270863 3.4449186641631604 4.622476050507853
Co 7.23650697303997 7.9609401898411 8.056644275950791
Co 6.445500070561438 5.560459538317182 4.107751673624452
Co 4.383646058014488 4.756692246191369 6.156358937282053
Co 4.176267731948218 5.143948119528816 3.8338621286411114
Co 5.732211098554977 6.244794974622838 7.595632138022856
Co 7.0994424321231575 7.147119529653139 5.883150425401824
Co 5.266146536789592 8.43441793360598 6.978084293049895
Co 4.827728169859833 6.895250806143706 5.3121446265868
Co 2.6534961248512916 6.003975920962993 5.326939184922386
Co 3.5357319818934547 6.8537469900454795 7.250943702921421
