19
Energy = -83.20545361 eV
Co 7.336716077298748 4.674763291659008 3.386578829037823
Co 5.148858524118929 8.56985925506064 4.281124161899054
Co 3.8525237595099853 6.556299616226598 4.55769546539081
Co 6.942104616305018 7.9111903134063 5.806623467040098
Co 7.587974547146562 5.547040771705898 5.614790878001922
Co 8.776224367885616 3.6895036239275645 5.16257633494744
Co 4.686045643726545 7.632156964647537 6.4523754054709475
Co 6.216783679737448 8.630113704164245 7.98063548078208
Co 4.89899258290702 4.791746818117068 8.212520264106587
Co 6.465605589551822 6.393477492334431 7.631464627990879
Co 6.471890873944442 3.4245229201686276 5.080915712692712
Co 6.965776660656709 4.07290447243075 7.287893607711974
Co 5.628806215641528 9.810301190172323 6.166815920040048
Co 5.015164556125681 4.598868283341002 3.642886994661313
Co 6.125685450046939 6.544282530047769 4.07415368570038
Co 3.2445829853795582 5.924919599977094 6.949534740672334
Co 5.1506345824329 5.178562909635519 5.930015491295786
Co 7.888615566039266 2.2198506171974803 6.544195667606486
Co 4.472478276032554 7.006467314676817 8.662980745731907
