16
Energy = -85.18272663 eV
Co 5.171113923109874 8.542003377439217 7.514237720468448
Co 5.388374745893555 5.479976885057602 4.9432622996218365
Co 6.911442763898516 4.800159095760787 3.401956906284568
Co 5.101380891784596 7.748294887595132 5.248197009741361
Co 7.860855572517301 5.096907017464942 5.513434268765361
Co 9.02926334805805 7.031875782302594 5.916891633414856
Co 6.287132001493858 4.805825170584612 7.202589833844699
Co 5.431728585675342 6.655128274369292 3.0184425710390235
Co 8.329679422799693 5.903104956853176 7.823482954807594
Co 6.145067185803435 6.562808006904478 8.74670488615742
Co 4.307030904376246 4.0253197121262945 6.3632398632595395
Co 4.490955184907842 6.2668609565907225 7.082800758298821
Co 6.853856191616073 7.2197620646716105 6.658713855744609
Co 4.008667968448601 7.280679637627989 9.002567853511549
Co 6.266400018272749 3.3656085051420304 5.190566305549381
Co 7.236342640030182 7.014428698098186 4.3294415687592
