12
Energy = -61.68211995 eV
Co 6.4096138588404274 5.444461155184293 7.594454135591185
Co 4.567765990167131 3.9762259663997197 7.059762846511642
Co 5.071614123705485 5.888268842536661 5.785355355627546
Co 6.47824977704081 3.9268622854241975 5.774801817552396
Co 4.941134771556586 2.179490983453786 5.808726200481253
Co 4.0891804534752 6.260189516550991 3.7204296849395972
Co 4.179061938544027 7.959308826631078 5.356957851937184
Co 4.3875817884959085 3.9776780696907115 4.598256318693314
Co 6.161070917148151 5.222853884830611 3.7973289465151816
Co 6.188432807204342 7.701664449249808 6.630202783777563
Co 7.525742135869322 6.079366483951519 5.670963390069463
Co 6.096797900548942 7.479875998692524 4.299007130900004
