16
Energy = -84.85668712 eV
Co 8.60964637133725 7.524127511138173 10.094367233220831
Co 7.860563006793432 5.833012193353832 6.59085142637129
Co 5.606328695069195 5.835610632743197 5.630122737003811
Co 8.260969874773982 5.64887703455167 8.935599568630394
Co 4.307148871741495 7.712427797053726 5.87742989680582
Co 3.9332568393105287 6.004234637354158 7.318404472866105
Co 6.633206415220904 7.947485300843889 5.951393402746501
Co 7.584554641761251 3.8613126340094404 7.771306530513341
Co 5.440765485081904 7.706970302350329 7.950779664089747
Co 5.63667704618809 7.475353736179802 3.901575411715967
Co 8.975376479881502 7.786251167421867 5.89267252713507
Co 7.850828659657067 7.746799392173694 7.966474119157273
Co 6.446967178479839 6.847763086563019 9.860460710024341
Co 7.712548328445047 8.571851894164901 4.0459984633432535
Co 7.658345620133293 6.3545812138466555 4.363312065023453
Co 5.9995307229330495 5.440883915783715 8.00859269643669
