14
Energy = -73.53001343 eV
Co 2.3932023365481494 2.2775450680635396 6.456417932587158
Co 3.5430645668162204 4.343240396803359 6.1663818044275835
Co 6.368312901730221 6.0190758410031595 3.6399595698269347
Co 4.489774279240978 4.5526782868765165 3.155541492994721
Co 4.625344830018015 2.2508310339374074 5.882019756469933
Co 5.1338127387254815 2.3192109381822066 3.620295585504999
Co 4.228787734518537 6.800594365407153 2.859557452201957
Co 1.306674475108746 4.05807109319593 5.6668539214243
Co 2.6039271774244126 5.352361049754641 4.20823784674309
Co 4.5552080313869965 6.113399260933322 5.0661254072132005
Co 5.763888993565333 4.06900411433586 5.024107833959976
Co 3.02015465551343 2.9765178732314364 4.360161177446189
Co 6.726923490526961 3.833712918662315 2.8570803304076473
Co 5.751666230489794 5.544500201226148 1.5480023304057358
