12
Energy = -61.05509976 eV
Co 7.2843927240509645 6.595043549705574 4.680838617706596
Co 6.375454357091424 4.279554671905165 5.050594910138577
Co 7.9385770184362805 7.734470066466286 6.496951274026621
Co 5.745324683963841 7.816037725697344 5.981496344625808
Co 6.925620768225285 4.3688788229211415 8.454967182652023
Co 4.076191229803677 4.192898093730996 5.208146426186173
Co 3.534122984221129 7.61140654734472 5.522059176880621
Co 6.4956902790235365 5.245749752029158 3.033516416236028
Co 5.302752974346663 3.829034882691995 7.1013043899754225
Co 4.274645535968461 5.9023064192596015 6.758347625316154
Co 6.588312667838463 5.782561041412734 6.78743310989284
Co 5.014493364331725 6.189759377875656 4.494422572759765
