16
Energy = -84.77088364 eV
Co 7.108331203835755 8.098344003524849 5.081268893930192
Co 5.8632097833240175 8.384385253726919 7.128681593371435
Co 7.710966997166463 5.107817989961763 9.850374430100903
Co 6.781345687018704 6.960690350429962 8.797007677323686
Co 5.010355826060998 4.738446725160139 5.947004455212178
Co 4.74745609848152 7.1309756319789 5.389526802975844
Co 3.020936888101923 5.8187583047195925 5.894036809664022
Co 8.115035147545548 7.035762254784392 3.275387425402304
Co 4.61026828870502 6.353626523307992 7.629161209293144
Co 4.219722249316114 5.338261514382417 3.8903389704520324
Co 6.733915528088892 6.2669548378544775 6.515672655136415
Co 8.248736891340892 7.947742306158154 7.169926824192287
Co 8.751581949324624 6.477270377310496 5.368211645646041
Co 6.2415132444009265 4.7255701144826 8.165423659082306
Co 8.507103400318307 5.645016260498345 7.84577624011624
Co 6.410266180511639 5.943598036648482 4.1945196323080545
