15
Energy = -79.04697962 eV
Co 3.129964021615212 4.7622010297372475 3.1116321198674823
Co 1.8048431497233037 6.355636131646997 4.274250000665965
Co 7.10806297073952 4.489031801885853 5.481879297187133
Co 3.8117194568647133 2.911300563010056 4.7109972301825405
Co 5.114712669126694 3.7898744368805573 6.418489660840066
Co 3.3264421895334833 5.0861090499187585 5.411358037511783
Co 5.474690096457463 6.068959214857995 6.038383716217376
Co 5.068777159888736 5.578207516942432 1.9678723276705543
Co 6.9252940329338815 2.5137070971867543 6.838095392300078
Co 5.288840774313811 4.560474816946179 4.002980683957715
Co 5.682923198971878 6.817105063741571 3.8820397883523987
Co 6.167922460418046 2.4690703184223857 4.655586329884623
Co 3.731768787386022 7.343284630210354 5.174507695987247
Co 3.5769636806753295 6.961134068336556 2.9391266849135955
Co 4.961800638598845 1.4686295475230902 6.267526321708382
