18
Energy = -96.44999957 eV
Co 8.631168490245683 4.144579946186867 3.902931653647493
Co 4.300198858292818 5.853933604643425 7.710290056582183
Co 4.627579750220751 6.1235553954945265 5.348824067326059
Co 4.941429269705324 7.858120836125211 6.844514466808711
Co 6.604706474258171 7.36416400784768 4.925851783279674
Co 10.327638515320643 6.172184438493632 6.980182895103055
Co 8.42240286075384 6.401927772426788 3.764970780389535
Co 8.382079070753676 6.650624756767045 8.004459605555992
Co 5.698700669426598 9.432118355032776 8.59584491569941
Co 8.830923099375534 7.468517327252184 5.772083503088545
Co 5.612637540393216 8.4602278478099 10.562808054504023
Co 7.176814929173298 8.39171920424256 7.112461260569643
Co 6.4939205595904035 5.895181926331366 6.769786753976737
Co 6.067052360374189 7.012369352551341 8.84980016753088
Co 7.760617171224032 8.451203852854208 9.407369567245519
Co 3.9434884864028916 7.8384249955748695 8.962406537592123
Co 8.636000610620094 5.1727349538235865 5.921694222794924
Co 6.669016743108575 5.065961278084573 4.59677290650071
