17
Energy = -127.6803153 eV
Co 5.606301866435424 4.095409434329341 3.9414517414997934
Co 6.129209869646435 6.189574791024816 8.349941834817137
Co 6.596097534365643 4.0965221633397615 7.0430377684363235
Co 7.990372628166675 4.527292920991464 5.027496965223937
Co 4.204380546859173 2.9130278881106255 6.263500567501191
Co 9.32679675950836 7.073804379347573 4.555974129832593
Co 4.782338303486246 3.6351674993788867 8.571281054215895
Co 7.8204743513213195 6.610506443354773 6.399433264562085
Co 3.3501279820761862 4.422778895609979 4.9396905797222095
Co 7.19838322381949 6.345844682485353 3.6750480667562053
Co 5.631226185777862 5.717602227479541 5.618099002735947
Co 7.521509745899474 8.55035687719637 7.485892681859431
Co 3.8912989114450065 5.497343216240186 7.2696812730865545
Co 6.752800071612859 8.3060414006537 4.791999681800598
Co 5.304358327292347 7.935859408832098 6.641878870693917
Co 3.1030486270053106 7.196806272094816 5.862586790943087
Co 4.7610919211481315 6.670810728167156 3.444954879305316
