17
Energy = -92.36965714 eV
Co 4.994871196747755 9.188434112037886 5.866331157158701
Co 6.5162512884087 8.284665997914363 7.417738176113145
Co 8.415393078289611 7.074348999717406 6.590060193847502
Co 6.834228367757163 8.027271240335827 5.039081865875297
Co 4.3246573088224896 7.395485536117166 7.120261480930394
Co 8.670546212169977 6.840901678216667 4.254756901183932
Co 6.172355953970371 6.145236709134448 6.274005111701091
Co 5.278453740188145 7.359750616562176 9.197888825716939
Co 7.125141902418587 6.176686829145378 8.414857235990208
Co 8.103474438344204 4.987068622385567 5.4735453374783996
Co 4.948325175437289 5.277799559237655 8.101968449296933
Co 6.497670052084546 5.94028836988877 3.942941245973624
Co 4.657470644133388 7.121678527007567 4.740801006959224
Co 8.971692081539873 5.017617105521887 7.589135507007557
Co 3.989576416978702 5.242777111241491 5.96861610845208
Co 6.793053956723189 4.108283245742996 7.30268882970483
Co 5.818509320356837 4.072165084452225 5.175943504099536
