13
Energy = -67.81013317 eV
Co 3.878338785258392 5.162855427992865 7.410445160221829
Co 4.9086957826471265 3.3004897101113566 6.586191817374979
Co 7.085672258315104 3.7550533235759573 6.052063931998521
Co 3.8444815429366774 7.000568914549934 5.788980606887137
Co 5.667906298583521 5.590498879619929 5.997012952474563
Co 7.280057190815909 5.475699594594111 4.327617260391933
Co 5.669447779887067 7.196401165576013 4.310249963874539
Co 5.599682686470841 3.8766460091242294 4.274638182370338
Co 5.604838756970136 5.559413060189758 2.6692265091039173
Co 3.5273527527933544 4.80026728096269 5.151614359174406
Co 3.7699732150107765 2.532602709650828 4.762385584710436
Co 3.6345021570570726 6.441041983495102 3.504986093320743
Co 3.7260847821804552 4.1606143028309015 2.9372043573147293
