13
Energy = -67.67749101 eV
Co 9.068541263859355 6.670028758426693 6.797047672422862
Co 9.055114502965262 5.252480639610219 4.9876316878019455
Co 7.623941734697006 7.020225625214879 5.072874246277395
Co 6.754753896771919 7.293632538161859 7.259217977440824
Co 7.346252600262898 5.163845273935228 6.5248324030799765
Co 6.728841330320371 4.976128785617003 4.294176949008129
Co 5.377909861060947 6.373440738370322 5.602128007631926
Co 5.3116044306223005 3.999595975153702 5.897187464516017
Co 5.324859145885321 5.528820459771743 7.832528796604603
Co 4.1534821169736205 7.410240208130161 7.261539074858682
Co 4.138740880105227 5.0134849737159755 4.209077826561125
Co 3.279461216243707 7.070004998466218 5.070332369957804
Co 3.4167597405943098 5.303878585641561 6.4512486519127465
