13
Energy = -67.77548896 eV
Co 8.015794997805498 5.64014136248552 6.349648178612692
Co 7.037725613304816 5.87381299667666 4.247839028139755
Co 7.378798468863727 3.7440978933254563 5.082995608328325
Co 6.066320866329645 6.840356823775363 6.211573174011814
Co 5.994042461612344 4.511426421074344 6.72467372999349
Co 4.7052975061543965 6.136386157073657 7.948516707337105
Co 5.119469666121016 3.025487636312781 5.168010023541323
Co 3.7296782852442347 4.507345572323414 6.61839548833514
Co 3.6827877841564773 6.838969624341188 6.07015002821511
Co 6.094277941355556 4.009030282178381 3.2499806288740833
Co 4.775153362567491 8.722246349555844 5.8517379149336595
Co 5.234706666314032 7.417306027145857 4.073757463066854
Co 4.819296130241526 5.245179649448367 4.755608226300118
