10
Energy = -50.16143134 eV
Co 5.8143755834130735 9.81444294593446 9.464948560301794
Co 8.889599416546503 9.247364470649583 7.843137269673305
Co 7.93091096389281 8.98233652921473 5.786770523191707
Co 8.715032895319407 7.148033310094169 6.95490953077981
Co 9.5682558085464 5.284542708907148 7.9991928481976515
Co 7.4398731354891305 5.891546091788247 8.412468293958822
Co 6.471367290630924 7.5664735106359196 6.824661883817722
Co 9.28826306496038 7.175497080076408 9.190491537243494
Co 6.628253038016317 9.84303342486873 7.461998372744833
Co 7.193390553708971 8.14389637109684 8.92719869854966
