19
Energy = -104.311841 eV
Co 5.39954770870353 7.370293952284871 3.213077083116549
Co 3.751504263372793 3.7953265224015253 5.676117678946575
Co 6.7273368158275275 8.042419285446703 4.963467540956989
Co 5.1118140497437645 4.225138107811527 7.469509410219673
Co 8.4352031532964 4.320954502173322 4.988899949464834
Co 6.059413421066382 3.9900246248301463 5.309659402617864
Co 6.011656956189091 6.236808180069095 6.4250871944576815
Co 6.933267604935031 5.849637511791421 4.167871746684026
Co 8.207572132332977 8.857820626813234 6.494625355305986
Co 4.448518903198877 7.782919752404056 5.382054007034856
Co 7.409298004285579 7.450250561760318 8.034920847308111
Co 5.790744807593496 8.73902016486072 6.988606631063935
Co 4.609805420077773 5.629927549644453 4.519698466236159
Co 3.658549914461073 5.89302572442833 6.688143189476574
Co 8.347437551423823 6.512328675848378 5.9869629092185725
Co 6.408004301283034 5.5442315826542545 8.816118923827151
Co 4.808949073889864 7.09184525497315 8.309454380040084
Co 8.88667044383635 5.787265741962089 8.253024262265157
Co 7.566845615463767 4.457503203021966 7.061156194749524
