16
Energy = -85.80838219 eV
Co 4.871150166011713 7.7284936428991164 8.816357887062216
Co 4.467023266981924 4.727667497254625 5.325404088444891
Co 6.1061204379179745 4.435796656651915 6.86236166147352
Co 6.480004891976202 8.50962858596378 7.2941036114495965
Co 5.090193824921072 6.547006533734675 6.860072499819424
Co 7.071876424364289 7.57963539463253 9.334031128962668
Co 6.755185541163282 7.248980281042922 5.218512800652551
Co 9.047368410686952 7.011830079797477 5.746833203729248
Co 7.659795712046664 5.093695765638349 5.341116629338261
Co 8.751063279141016 8.287864179127872 7.6902933599241345
Co 5.801927256518696 5.650392253652093 8.917230194114238
Co 7.47000903707725 6.375288666818183 7.392691670494555
Co 8.07805792289963 9.071829710392691 5.667733440630948
Co 6.0082295361444205 5.380465787081043 3.8104112547218008
Co 4.5444399931157475 6.964985666223411 4.679483168187306
Co 6.234196330669817 3.3247794582761347 4.8192381637813035
