14
Energy = -73.83883313 eV
Co 3.775012761054316 3.200671717779176 6.58405072496247
Co 7.255184772535539 5.142770380114617 7.664048572711575
Co 3.5598027118825994 5.401123218660078 6.514699015662069
Co 7.729939591813147 7.426450524531044 7.231473896515101
Co 5.660000700171195 4.3837559671867705 5.981059081867607
Co 5.045026889987874 4.443150987317333 8.16333536288741
Co 7.234110368714611 6.137058024023215 5.436417900302793
Co 6.116433380210726 8.242735963112688 5.62989951740598
Co 6.682392497956834 7.207542958310932 3.5144832828216974
Co 8.242850818838386 8.172520333589336 5.031902974161824
Co 5.532890484192673 6.536205924760697 7.169203788361585
Co 6.1311029153530665 4.905132195606753 3.651173832070257
Co 3.993301858424871 4.232514126173232 4.449606179452244
Co 4.873106509506831 6.3995239394769445 4.809802131460476
