10
Energy = -50.04716873 eV
Co 4.904804265477654 8.228210942160572 5.4782739342025595
Co 6.112961941713807 6.2457229632283155 5.925627938290498
Co 4.517358425042829 7.215703072444102 7.307049205094433
Co 8.632997913012119 5.802839017753035 8.949912576572142
Co 6.5079244773722635 6.42998082962695 8.207265848454393
Co 10.134132275216622 7.2622274246074445 7.979226454507041
Co 6.730064090888802 8.318250677949717 6.854720015649207
Co 8.962827149363456 8.879919662346511 6.78136406804528
Co 8.13247537989489 8.019268728636854 8.760429977455747
Co 8.31388099580922 6.6179713077473785 6.759070876256752
