12
Energy = -62.10942779 eV
Co 5.162565804848513 4.614949201653026 4.727821244197426
Co 3.769065455796511 6.435161707421275 5.520109423019149
Co 7.148218309153951 5.002155902443215 3.677340081598793
Co 4.12603289672289 7.320709216217283 7.596875660244448
Co 6.575057231933154 6.456803049240271 5.435640290152316
Co 7.190549204369643 4.337359920768052 6.021474740494376
Co 6.355443206229178 7.303081893180273 7.512753069798651
Co 5.1704084861855115 6.747452662199026 3.719195018989727
Co 5.359751922346852 3.009715067984086 6.392281066035726
Co 6.590778497858644 2.846741162122979 4.442391924049233
Co 5.142939374624947 8.232306997763802 5.703211607569172
Co 5.160344922288192 5.324132775260164 6.99014044455414
