14
Energy = -73.16398796 eV
Co 8.484831052122388 4.21459012012751 4.860596707162694
Co 6.288150435694312 4.276028653015792 4.317405623671472
Co 4.672686200972292 5.795739423383194 3.681207050969694
Co 7.158094481126189 4.362175400219309 6.614008336999286
Co 7.30340599251187 8.443537441576416 5.8089038595525215
Co 5.54649107613798 7.664899533606022 4.590220828858837
Co 5.273972940780706 5.65350383753698 5.915697181221216
Co 7.416587548131813 6.271167841088984 4.902613406580819
Co 3.4273060797363546 7.030727191195877 5.301895986980034
Co 5.221603754012844 7.789393496920723 6.868087711899054
Co 7.21267564688229 6.6227880582991405 7.158309405377185
Co 5.4910704520862765 5.566105602555411 8.214200355479745
Co 7.5460396380045 4.812283728675633 8.7276128612469
Co 3.487222719220452 6.4351735492569855 7.4877390409026345
