15
Energy = -79.6197242 eV
Co 7.347305539812475 9.376995450769787 8.750136852092988
Co 8.002576408193674 7.230285861800024 9.774858120493922
Co 7.44955359912873 8.387963414688151 6.584212717720109
Co 5.418728443876721 9.102211355733422 7.501212331265601
Co 9.209653276268481 8.221122574819303 8.108550997941016
Co 5.82113379112752 7.786541516590882 9.355389509600691
Co 9.329707572084052 7.200334208038439 5.87465982846493
Co 5.540650267739492 8.081238136325775 5.2748222353217455
Co 7.576739350479511 7.387039636170265 4.421339810255961
Co 6.492937930265555 5.584114349467291 9.1727107931596
Co 8.103495554698194 6.226532465821697 7.607891844475385
Co 5.813304071017585 6.779196622335781 7.2381477125039755
Co 8.22410346392404 5.247082895944787 5.445146108565559
Co 6.039314688272867 5.833080093947244 5.101605088225781
Co 6.598464325364504 4.5617701593143805 6.945290684572829
