11
Energy = -56.50185374 eV
Co 7.837637397297601 8.849949474433762 10.18931033000284
Co 7.839426029535099 8.844293849260646 7.775412721649654
Co 6.934529182662606 10.624996139035101 8.980007750636128
Co 9.536716747762016 7.802426040126587 8.983703391060335
Co 9.240908551329111 10.259101838009038 8.982355000236518
Co 5.870167823732076 8.613027934519996 8.983703391060335
Co 7.379721132832271 6.903729680220353 8.98420644236877
Co 10.392752506735212 9.154089982291243 10.613240089316635
Co 10.3955614599464 9.146417295586161 7.354030071376175
Co 11.821471696488473 8.231790336601145 8.985158340193657
Co 11.561400714007585 10.384895187586988 8.98359122976968
