10
Energy = -50.80620415 eV
Co 7.349396455236468 6.839716628443031 5.490645745078396
Co 7.486161034611486 8.4894690424572 7.052226849151142
Co 7.125093662416249 4.927710727269069 4.214508294006823
Co 7.193377373336539 4.821127288247699 6.554466971551166
Co 6.29189492614367 6.639228270417343 7.612892709344973
Co 5.482218409622493 8.196934790588942 6.019643697873492
Co 5.408587493386497 6.466401121461494 4.451157150712743
Co 5.288110097563417 4.5761790942336695 7.8908119438064075
Co 5.260175380453195 4.489413458415398 5.556775828710049
Co 4.327022474792836 6.263248037899732 6.6241568551370955
