17
Energy = -91.20393834 eV
Co 5.844002513090274 9.445035276087614 6.874710840506137
Co 7.889995679901386 8.447704317532297 6.461736206522826
Co 4.784377241201298 7.73968172291266 5.7214512833476245
Co 8.057021380357947 5.926923448355241 7.055526635694006
Co 5.550687866213485 5.96973161476093 9.17820977117452
Co 6.390792843669789 9.066537108868166 4.705413795708315
Co 6.25822739661806 7.266103078749588 7.518836762348008
Co 6.968216703728661 6.895933056529682 5.104019549788921
Co 7.817472688402583 3.344662456971137 7.0022054072295985
Co 5.311782293558974 7.129837790152059 3.5376538878638004
Co 6.4140240924846506 5.154346536643188 3.3081885173353465
Co 4.1563707490957 6.182507560346625 7.37759270157189
Co 6.0479214591511825 4.719702116055465 7.348141440619557
Co 5.082678756875195 5.337299233461762 5.18574005590591
Co 7.503057802950368 4.639942870087983 5.229768678403373
Co 3.9641293208594615 3.983082619863455 6.679991424276777
Co 5.84737024729384 3.1257364604639006 5.617992895800363
