19
Energy = -102.84227503 eV
Co 8.737030389695002 6.310308947162957 6.0414050449372745
Co 7.808784324052483 4.258397871027035 5.278526303533229
Co 4.3214653841285315 5.864883302940705 5.737902384659446
Co 6.9682783363316405 5.358603429364698 7.127048968700932
Co 5.361324814194241 7.065719540806714 7.662420965959031
Co 4.077815554163239 8.093143521377458 6.090070621942349
Co 8.071487304679748 6.278562128610266 3.9023485782805585
Co 6.941242440161481 8.168066586709582 3.5761842147663496
Co 6.911839251072094 3.169377747254168 7.474395262177605
Co 5.4853754906940315 3.7073078569970677 5.903854541834869
Co 3.1439749936709345 6.326658834175537 7.611399330039697
Co 7.664546525224848 7.696772272239439 7.568092780381178
Co 6.390437237879037 7.046170349283124 5.493819510446565
Co 4.851669871127843 4.712942002471298 7.908361743204284
Co 6.014256153911941 5.198176485454338 4.15003061910834
Co 8.169294178916562 8.538431207267289 5.395755019100251
Co 3.920422542632268 4.12475958226561 4.299651756516122
Co 3.121145768428267 4.133803651362532 6.542846843027048
Co 6.156347469790072 9.095719370497035 6.503496960180043
