17
Energy = -91.44096139 eV
Co 9.801029196046153 5.975585529391605 5.522670950676678
Co 9.113936509477654 6.125212115064984 7.651188579947834
Co 8.127299129576743 4.523699419983959 6.064757545092446
Co 8.410170833544353 7.830447777578044 6.159099849494357
Co 7.764099289066261 7.912883264073269 8.38775496351608
Co 6.836622105541341 9.420394722268783 6.841358151640161
Co 7.718318372311637 6.241388846818221 4.6153796992006715
Co 6.897023466227935 6.177041609350134 7.063732713672874
Co 5.974093835691835 7.7597463666931965 5.504991218379019
Co 5.47796010741672 7.904792262350996 7.9822264091469615
Co 6.43170583776393 6.1882223366116795 9.307481961733835
Co 5.936425797094838 6.71434367705025 3.3238521728147545
Co 5.715090333215299 5.261012152537268 5.2094159533085875
Co 4.026105765781386 6.767298341442771 4.494870252104247
Co 5.374255781128234 4.610551417529455 7.7372880234189925
Co 4.324774041004178 6.355463757937953 6.694249859338878
Co 4.211393768423969 6.130032612160237 8.974875667780104
