18
Energy = -96.097526 eV
Co 2.7464909277272063 7.584099987318376 4.416014770113666
Co 8.37753834486192 5.99118771992271 3.8940744434045245
Co 3.839843837248969 3.7486197260207805 6.9124688103147305
Co 3.233409025961074 5.674975029124962 5.699951056522497
Co 9.242951626797781 6.351474807015041 8.258815967156963
Co 6.420040944251874 6.512962721593977 5.146671155703393
Co 6.1673635141612655 3.496843029471811 7.112750146688955
Co 7.376985148240242 5.408610122526102 7.548995552817548
Co 4.501810202463264 6.2614522012802585 3.8681897661003632
Co 6.6118394880307525 7.640399143868766 7.240100449567537
Co 6.449430915827291 4.939886643540035 3.300709306348217
Co 7.612526548379279 4.470081077935161 5.455827338741789
Co 8.611093468345846 8.386915137703552 7.7299759372269685
Co 8.56480519186866 6.763783279168943 6.051724144848542
Co 5.058224525395863 5.6858721958461125 7.2019737553552545
Co 5.212960428109667 4.401173846840237 5.157990644220236
Co 4.463903850208731 7.7013076139584875 8.065050505322818
Co 4.470489831314137 7.664968087141575 5.874368338817457
