14
Energy = -74.24801258 eV
Co 6.455040758088817 5.484467212968623 7.6234252066253525
Co 8.826120705049055 5.393022287688552 7.6503977744367955
Co 4.1096099670155475 5.553832448392045 7.545057026051946
Co 7.735857446713156 7.49920116570748 7.427170868206536
Co 5.325889569075959 7.573743204304485 7.354984287786501
Co 6.588567944926406 9.529861723765297 7.175547232164317
Co 6.228919238053905 3.2516426815938972 6.967764679763912
Co 6.580145747095619 6.68959941247649 5.5374803418815635
Co 8.955775749086436 6.564205006473146 5.724479659119296
Co 4.076504275340199 6.760508695987362 5.616393742703006
Co 7.7966533162869025 8.6993049732934 5.450313431284214
Co 5.465889146465782 8.75394821780342 5.367350451648404
Co 7.710944424036239 4.565032150246873 5.874079048874965
Co 5.203833417566339 4.741382524099155 5.745307954253413
