15
Energy = -80.13099322 eV
Co 6.503885496154712 5.594536744515347 7.5017362750256265
Co 8.867233233407504 5.654269656589046 7.4388863301146735
Co 4.14630062165593 5.63582146819121 7.43248656710333
Co 7.72160888256737 7.6974530265463175 7.3206609180315585
Co 5.298293542247157 7.688399875672436 7.33193904486818
Co 6.509145461305247 9.671212356589509 7.229667832195661
Co 7.646603887276626 3.5427670902588146 7.406064559160463
Co 5.367140286774882 3.577115182889664 7.4351935809985665
Co 6.505768274299462 6.990302256145068 5.444303899058847
Co 8.920184455984147 6.892365437939231 5.536965028657641
Co 4.0989006616382 6.891961540231094 5.52690696548208
Co 7.681015277667003 9.00009232778077 5.40341224309971
Co 5.330384116891656 8.998160068644763 5.415597240377157
Co 7.690901997724595 4.885385508138051 5.6047343405608965
Co 5.323916806924767 4.891440462388748 5.582728177785285
