13
Energy = -66.52880452 eV
Co 6.42952019480669 6.439088690399495 3.87611305183337
Co 8.143765731825779 4.783952509165002 7.03023968619665
Co 3.509671483429218 3.4568948371262382 7.852189121014047
Co 6.29817232435053 7.974931926565791 5.617388591767552
Co 4.703946490331028 6.303426759023145 5.4170580683933975
Co 4.604559239390683 7.757295170147231 7.280847390550743
Co 4.8751641224062 4.627281681932999 3.760920242940592
Co 8.13783840218064 6.491551800376711 5.520871092494287
Co 4.453555776230541 4.002458382384425 5.9398979178025675
Co 7.96734052383086 8.156113462135947 4.029025447624533
Co 6.437139072737922 6.306175307788627 7.158271356960411
Co 4.310149514193292 5.495634442156835 7.611055304363199
Co 6.580760412199612 4.718322170467883 5.3577876091362215
