15
Energy = -79.17547913 eV
Co 6.586419258340561 5.184081729740223 3.247548646235073
Co 4.789644735749367 4.592782022382269 1.7988928145687277
Co 6.697466878745041 3.316605290315808 1.9295303758662041
Co 4.43231928866619 5.594573824882866 3.784932834339228
Co 4.7012922835609405 2.525642124267999 2.689480367648336
Co 6.527911650878086 3.0756889268147414 4.175710997376848
Co 2.7825842866355286 4.116625293732367 3.181866472551551
Co 2.4510558129626703 5.9979864594487475 4.807243393695919
Co 2.3957840865015383 3.888996645533661 5.690512242210054
Co 4.3760073744475045 3.469870665040302 4.706525876615832
Co 5.93783549232268 5.022364775719029 5.636501039448214
Co 4.518787822803108 6.857252550954914 5.7314036581678955
Co 4.432537385561892 3.8725910943009674 7.001766216115995
Co 3.111947314654805 5.676073690453737 7.013023133467303
Co 5.33393234091944 5.884390919161283 7.680587944442032
