10
Energy = -49.85409344 eV
Co 5.153595774918393 4.06192474027114 4.668492108177478
Co 5.387878761616532 6.301155157724062 4.768376537751862
Co 7.072536272978029 4.942809814136367 5.596767620779207
Co 4.9608662102339665 5.0770877470698705 6.684524276663132
Co 8.530062257328147 6.597806386654258 5.813672923472621
Co 6.928675569070979 7.975655402603579 4.851744958863074
Co 6.917711732754401 5.048332844161368 7.94948909570096
Co 4.905980297527383 8.188108347448738 5.924837842536619
Co 6.528058690184456 6.946996680894184 6.837000460169636
Co 5.079994485996084 6.349695886531234 8.494575118154392
