14
Energy = -72.85137453 eV
Co 6.7601445623561895 6.980445113176409 7.802506990205467
Co 6.062697422244851 4.919592456568335 7.16840590324729
Co 5.8313123898434736 8.801608124720069 6.946343572591249
Co 7.007458132854902 6.510746809165453 5.60716958638369
Co 7.3555237798221516 3.244778571109149 7.69921096340373
Co 4.71832355960651 6.853439682197572 6.399894388579774
Co 7.94100717860579 4.338568278247809 5.763897421685444
Co 2.700517610001186 6.261093145323654 5.580079069357174
Co 5.614957071004157 8.220811650271552 4.771905281232201
Co 6.018818618389452 2.877635677248128 5.8984964396786514
Co 6.0799501758448296 4.700691121258427 4.450876743764266
Co 6.487134554562557 6.702190443597032 3.3100351346853873
Co 4.244065525633077 4.5127135927212025 5.801490799827377
Co 4.374935608452705 6.2973139626531704 4.130972113182377
