12
Energy = -62.3299361 eV
Co 5.841620499561979 9.038361928841319 6.844717870897707
Co 5.817253176020037 4.316992691465853 6.8707862211509125
Co 5.788201475284894 6.646284263624517 6.999095496801511
Co 7.701063127837581 5.486814448094829 6.251675877691078
Co 7.679427969002107 7.877073183066335 6.2402569484244115
Co 4.507769928704599 5.492191679716397 5.35724999871552
Co 4.597168698053208 7.923503630425711 5.365452032585736
Co 7.202827064748176 5.547744648043083 8.496212945953166
Co 7.178534484048101 7.869763781309588 8.498727461142716
Co 6.363560925636083 6.696195057537764 4.687275687254161
Co 6.341051259114019 4.3747494553819495 4.640390163409736
Co 9.011573967736172 6.76037780823973 7.7782118717201625
