18
Energy = -96.95654325 eV
Co 4.376807146265849 3.293319912281654 7.354156006403578
Co 7.208725154148505 5.995557378184458 7.233050752746594
Co 6.700814181912379 6.8514989562112065 9.314008717161581
Co 6.850412539659273 8.564932060901342 7.754145724292694
Co 3.348058387042586 5.383324626937525 8.076401764491042
Co 5.031154887678672 7.110865985280927 7.597765630735057
Co 6.8455851740645315 8.536785317786725 4.055839743093161
Co 5.953634246336243 6.814968265849697 5.266111770554687
Co 5.7440269402105955 4.560850793401267 4.369729980684968
Co 4.524245842177418 5.212475725724836 6.209837524626999
Co 5.547221853327688 4.97670376464304 8.463739135621276
Co 7.825966725409469 5.445961235937318 4.964489020290373
Co 8.762316968327667 7.189428155701411 3.7388494909446015
Co 6.503624660844994 3.933315624672256 6.458571001029011
Co 5.50444402881173 8.925314812467423 6.0318500255293355
Co 6.73840519104938 6.426038141868141 3.131073433273201
Co 8.111359242853839 7.686618801721413 5.84736091586432
Co 8.745683618394223 7.423544947116612 8.129889165669972
