18
Energy = -95.87543643 eV
Co 8.4532305319245 5.186053753897435 6.520941100774262
Co 4.700626015319422 5.9531628248670305 6.220664107247191
Co 7.5158580582200445 5.577858037271979 8.851956392867892
Co 6.5554653746827265 7.741027105004923 9.078567258146053
Co 7.129962752437178 6.930520801981994 3.2551464135982475
Co 6.296929051663287 4.37153625660624 7.332458827968442
Co 5.741866950018209 7.630698113083082 5.029777835032325
Co 5.021474567770698 3.7443523840809387 5.455643036753646
Co 6.819754745994671 6.74933115148586 7.057779451318341
Co 6.736469183646478 8.93424623062049 6.630761985196909
Co 5.07978533739379 6.150584205573996 8.599019978477303
Co 4.0055004522667454 4.1014039796634405 7.54993735480156
Co 5.768177519668938 8.73962780111506 3.0712306330366084
Co 3.0274364232293607 6.112848158219738 7.810678125368265
Co 6.724640203574443 5.375741486196747 4.933218308155182
Co 7.327144558451997 3.275046986322377 5.65248404088891
Co 8.145219540700838 7.279023009514355 5.252549158912639
Co 7.412512987780114 9.314417180426888 4.4172378887921875
