10
Energy = -50.75761487 eV
Co 5.661573795303011 8.0561746256114 6.1973181018087375
Co 4.5708507689046485 6.129715305123997 6.541427605049129
Co 4.749072341396075 6.927279351604511 4.380810866582284
Co 6.056723092373158 5.142777563286953 5.126622876575978
Co 7.834758899755216 7.6750235256197525 7.000090399508858
Co 6.064011328552678 7.035545256350172 8.273388975872615
Co 6.386698954781632 4.968867599598676 7.458836073492764
Co 7.090759927353082 7.112926333394067 4.792706390773455
Co 8.123066508676198 5.585480247848391 6.238330549936559
Co 8.09338305698889 5.997108865646907 8.62136710473985
