10
Energy = -50.0018667 eV
Co 7.277721609630585 7.077094622903836 5.593590240748427
Co 6.25223926719476 6.6233517450391695 7.691277658316626
Co 6.22070860650471 8.680016775048971 6.8421573761746135
Co 4.940926924684729 7.176111709157135 5.758036172168467
Co 5.795490989317996 5.447612048055358 4.332183414166046
Co 8.42661523484381 6.24848314764975 7.396472076333994
Co 3.621610870368537 5.701029595588141 4.645070467073372
Co 4.744020849089405 4.969798089851516 6.487776024317752
Co 7.0635912610713465 4.847134957350328 6.285088922395815
Co 5.7317385279974795 3.3989858981426924 5.162370605409524
