16
Energy = -84.44764916 eV
Co 5.142007466816433 3.791690604479378 4.912103537772789
Co 8.31232311301969 6.615780795859272 8.870874241383245
Co 6.886295064944135 5.179696539862127 4.717890665188274
Co 7.78635514685076 5.727754643306168 6.803020498421947
Co 6.642322691519957 4.866625247503687 8.602614551072453
Co 9.665801938142394 8.778642769594821 6.123766671437585
Co 4.193035769771032 8.335491106542644 8.563428090068486
Co 4.062988199551036 7.0965233803742045 6.692495561919178
Co 4.540657445051077 5.946896888109672 4.607864654181855
Co 5.653680644399807 9.038466221887237 7.033482334246205
Co 7.833282419089088 8.175446768133705 7.189180693693124
Co 6.180700749453768 7.220081442757276 5.663211110376443
Co 5.35722790275203 5.153744500468846 6.695305927747534
Co 8.453019014891142 7.102019532370814 5.073911788568479
Co 9.84495066365137 6.760559916067883 7.0745059415266685
Co 6.002038676585948 7.001951968463358 8.187499504770724
