12
Energy = -61.93240069 eV
Co 5.804205424116594 4.552195021501232 6.610437105231261
Co 7.561524275689856 7.102332889444062 7.757842978915601
Co 4.335792815274381 5.434855103717341 5.064388540575343
Co 6.294619093607262 4.583620540268196 4.278262563968272
Co 6.131467340922846 6.851441005460647 4.213017942361015
Co 7.566189801071202 5.9361766047997335 5.777109431420303
Co 7.217823584070835 8.26206669305736 5.690251962298395
Co 4.717324894591589 5.737269166628611 2.8771522909219254
Co 7.78189233212127 4.834867209694463 7.8324153652813
Co 5.580759708251069 6.897819395935732 6.597043249241908
Co 3.806827668542283 5.584678837834969 7.308313819841216
Co 5.827038282092763 5.745652082654118 8.574889245251745
