19
Energy = -101.49046569 eV
Co 5.380883569186528 4.329375466315052 8.50871503776335
Co 4.77663807751811 3.4626365985517493 6.4557817716509325
Co 4.309880690268053 6.667079167042096 2.747269785554936
Co 8.896452669799425 5.371477638245503 5.937344144362514
Co 2.504907558492352 6.4228958022389975 3.839429031899381
Co 7.414253147061528 8.563394766570795 8.070970027359706
Co 5.45623694101763 5.396669131837553 4.091095993592891
Co 7.750208581810354 5.061281466814658 3.9596400056623646
Co 6.803874995256055 4.1058843345997476 5.792575970238221
Co 4.418903166074689 7.276105904429778 5.049030612524932
Co 5.244035385997598 5.703752253555847 6.682218264580577
Co 7.653595914544686 6.3175095842425755 7.7390341808565095
Co 8.97779499752236 7.6440659124459 6.445409574101313
Co 3.5244186355824674 5.114315662510683 5.2714487730490065
Co 5.550069282584492 8.132563229784033 6.8203887400735965
Co 7.4713445403731304 4.115469383445497 7.945398013704108
Co 7.033819463004976 6.731483517958635 5.467191167510491
Co 5.658463455934973 6.7079243070109325 8.682264253489008
Co 7.355244801532608 9.020532273881898 5.745317094895078
