19
Energy = -103.05883523 eV
Co 5.331322563644204 6.141776320625135 8.821700482826127
Co 6.045131788133378 4.149738470403491 8.077929183859167
Co 4.001800600735799 6.687828350978721 6.929605904480368
Co 6.163410814820332 6.877057120988711 2.7781981380856218
Co 5.973791629508993 8.219670747831389 8.176065386934678
Co 3.797840354517489 4.6514646470236105 7.9300235016336575
Co 4.831674908495563 6.752823885155584 4.574886404394946
Co 7.033958782738468 7.891830762655557 4.6600832943332895
Co 8.615786973487715 6.436983524244542 5.8128630821327745
Co 3.249172382200096 8.125589904740584 5.376852708768416
Co 9.499253181449685 4.76174042015725 7.015538933432033
Co 6.283876972869782 6.556977354474208 6.480666431476619
Co 7.403095802573313 4.305713473455035 6.311218058008725
Co 5.358001015293821 8.668128934904198 6.019000142293175
Co 9.015326653033759 4.4063988848084525 4.697539832383837
Co 7.774845613947712 6.013473989959257 8.082140224131729
Co 7.85193533720334 8.30394894083766 6.925808322091233
Co 4.997919055878204 4.712173635040087 5.945887947260449
Co 6.996114746262867 5.4939764454846785 4.3127842433714925
