13
Energy = -67.92374659 eV
Co 6.686785293813935 3.3922196155064266 6.9482251159809065
Co 5.72069814815843 6.888200554745744 8.605058099707831
Co 6.493543296611406 5.698685663420602 6.761074771104552
Co 5.313241230145845 4.591048211622951 8.408794673158717
Co 5.8566596197263205 7.886801090894085 6.323658695788209
Co 4.217703765731907 6.255904581712625 7.13355575515076
Co 4.788134305593565 4.145692252229275 6.0626419827784375
Co 6.715848777632111 4.484168338184166 4.730072307604569
Co 5.823549503247885 8.123199676366093 3.825007981237328
Co 5.071939019262394 6.2255809031269225 4.88936101988055
Co 7.34393599747375 6.86359883494505 4.811868362188521
Co 4.719308886661698 4.3216953864730305 3.655149502764196
Co 6.23321485850534 5.977381162372602 2.907168046432026
