18
Energy = -96.84957061 eV
Co 4.747278090102718 6.057548339449333 9.0096930256256
Co 4.22603033497467 3.7319811901075597 8.561890889108497
Co 6.706235680510811 6.938228800644304 8.291290687563654
Co 4.793870026057248 7.637106642816195 7.112083388282067
Co 4.12651252679781 5.309941517646577 6.940503320195379
Co 5.30808313420844 3.0114651940674824 6.641241581660587
Co 6.279133590804987 4.650260106993397 7.885252893013871
Co 7.1652114169490115 8.287628445007668 6.466148983905497
Co 8.342405525594456 5.693091838658535 7.0169534877349475
Co 6.1769787637721265 6.207948061516228 6.0634631353568125
Co 4.943252431131024 4.478254356162651 4.913609160225492
Co 8.267139829326547 6.712473489016158 5.001502798213739
Co 4.117710221502658 6.761685490242482 4.966065219480297
Co 8.172410253541171 8.983464717735774 4.550303538030923
Co 7.158828134609392 4.227866220642366 5.614571084838014
Co 5.908305618743354 8.056120288364985 4.533198900967781
Co 6.439478362435693 5.817109672325721 3.776098270802423
Co 7.492409178859069 7.633137619653895 2.9066861790512784
