14
Energy = -73.65327227 eV
Co 11.173991864289755 8.356403866130648 6.888709669107376
Co 7.423348125170236 7.970902715352339 9.70019439167097
Co 10.455894334702895 6.2860805355935705 7.217895796050255
Co 8.6970042067413 6.112400444530509 8.725100278759099
Co 9.503418918138749 8.231874824692742 8.421316999134033
Co 8.410141054026893 9.990150366031463 9.407862135172612
Co 6.603446799630544 6.771964251707488 7.83253572583772
Co 5.9966152008880185 9.722807216428523 9.199912637623292
Co 9.079265135858806 7.949211219534923 6.109322694943308
Co 5.172403201882892 7.582629032077306 9.463221308002783
Co 8.250168150523763 5.900789164591278 6.426343162926882
Co 6.792853451615908 7.614474072143293 5.697977214159307
Co 7.436748920360516 8.983767177656155 7.5240551648750875
Co 5.201564930170307 8.55095442945246 7.367215023412203
