16
Energy = -85.1947743 eV
Co 9.42453326060813 6.902290127245851 8.725315809278444
Co 7.301280442567099 7.047798934948973 7.9906342174978
Co 5.899683378696922 8.812338872691095 7.288858255696262
Co 8.42298466051101 4.965690805684206 8.28304352380906
Co 6.067456856477141 4.942904218097661 8.227456775005045
Co 3.5783422422132185 8.309173606056525 6.905352723976435
Co 9.03332674494529 6.481483574765801 6.484961106579807
Co 5.12714390723981 6.661033910606448 6.997951235376656
Co 4.899212854291383 8.397079265994817 5.133194409029498
Co 4.867269251155729 4.585879822331672 6.004803943495331
Co 8.080222810152403 5.9342101254157535 4.313785609898199
Co 3.479664725051495 6.436002553791001 5.426516161573039
Co 7.128907346252961 7.604026626501852 5.702580673693964
Co 5.624408556098969 6.218137621248898 4.536072864909533
Co 7.173103352462201 5.120981168107808 6.251094486901631
Co 6.493512174937989 4.156255363991716 4.281155356847549
