15
Energy = -79.40285218 eV
Co 5.316086712772283 6.412372987640108 5.482735816728164
Co 5.696531796189974 8.934641064546582 5.834368143328994
Co 6.057142533946262 4.866686948975413 7.120683080433785
Co 4.321745693925748 7.553682306126719 7.155358564961578
Co 6.981340032389734 6.959178490958158 7.143179244543073
Co 5.9776930777039 8.88459524163396 8.114243675050457
Co 7.275314911392911 5.272917414329753 4.9204308728603925
Co 7.283529800710893 7.578822628577005 4.804021724347579
Co 8.454509586393234 5.136046953092401 6.842273734934332
Co 7.930281324446655 8.97657625673581 6.601025168839266
Co 7.498551884045633 5.434873783995531 8.951549438599933
Co 7.61523246843367 7.695869160662496 9.315973069804196
Co 9.235296957521442 7.338280681240376 7.719894665444084
Co 9.268082874149888 6.78220106207413 5.505381563084639
Co 5.470193994296469 6.554788667730125 8.870415091344851
