18
Energy = -95.89408917 eV
Co 6.710278389897125 9.147541237755316 4.186269856631385
Co 7.45862338800954 3.997113116693566 7.442416749551879
Co 7.636964734629001 3.7908263723911224 5.154113868555842
Co 6.924339984499545 7.557958583341479 5.865726218606686
Co 4.67279367078194 6.979776192329211 6.667545408632198
Co 7.339851788491008 9.748968427689093 6.445538735506854
Co 4.549812177396095 9.349642894988818 3.673426264755919
Co 8.411533240360049 5.702610326221079 6.155918318856791
Co 6.209375418187764 8.434755087566367 7.989123603366932
Co 6.538276400348539 6.0883345754913725 7.810063309112058
Co 8.841278829718798 5.520831256778582 10.732150997784222
Co 5.120346691918151 9.126814805760814 5.87908538382417
Co 8.415942061446358 7.7887551509462005 7.653890003909189
Co 5.139529571988208 7.256031128070409 4.3977136413746925
Co 6.1256508522151565 5.341956957269133 5.562406551955218
Co 7.505391920205303 7.127106237089219 9.656737075551343
Co 8.853613519717793 5.573797086852182 8.500783370845175
Co 7.006190258727307 4.75817423713719 9.693563156409144
