13
Energy = -66.59067894 eV
Co 5.136589200320596 5.585940847613538 4.001064824798439
Co 5.462488417191744 5.596911213892267 6.329805318244932
Co 5.775847493895136 5.580999385873398 8.694115283732389
Co 7.195699000215137 5.5519485976293765 4.79237505788966
Co 7.5802468812624815 5.548613501883501 7.221767401814609
Co 7.8519552887986555 5.59257338359612 9.485581590811895
Co 5.1228273367512145 7.766364708667685 4.0055499832988195
Co 5.450121829786862 7.7504756015591685 6.3345682808913795
Co 5.762580033608288 7.7642115191418055 8.698715686294333
Co 7.181669661640609 7.824566406809875 4.797518562181439
Co 7.567371815859114 7.822261770379032 7.226682940302585
Co 7.838375285702534 7.775670437314093 9.489923256221063
Co 8.931748883773182 6.696983687497509 5.7798531431673625
