14
Energy = -73.65640321 eV
Co 8.012540109120058 6.095172460348684 4.756191635589615
Co 5.877157632479572 5.071234385141031 4.789581595263521
Co 7.684902473022667 4.082519463302817 5.950499734558216
Co 6.201982240303999 7.161545333571879 3.7126881498231197
Co 7.832241051777581 6.113391341570425 7.019528041844581
Co 4.046186538807286 6.2432406401573814 3.849294009123224
Co 6.992871375117574 7.912986167832071 5.718009665978654
Co 3.680428418282799 4.233520694421737 5.035637663514769
Co 6.37379069769681 4.431542569723831 7.777250098953685
Co 5.506144435599771 3.1411631526937516 6.0971258295432085
Co 3.228097341345475 6.287223569485981 5.967121087283578
Co 4.089078859704706 4.517422402853865 7.255489348017636
Co 5.50954472423987 6.302998556749535 6.6028426202135435
Co 4.675684822141284 7.999221210026179 5.1867888384945955
