19
Energy = -102.53450679 eV
Co 5.868805964390984 6.8045639856140365 4.400564013954059
Co 3.670859683037104 7.638132483035182 4.014896067690842
Co 3.501230605658092 3.8276597223745847 5.41153395343851
Co 4.043159057300093 5.51092360291311 3.445138496621286
Co 4.505721254774489 4.402509478046578 7.422942586191132
Co 8.169734109817052 6.130445350059441 5.124918158415728
Co 6.380728193955893 5.324595155839312 6.414670209324986
Co 7.201350893719778 6.1841963233266934 8.41068693769115
Co 5.503326891971905 4.3217283567044555 4.611138068359836
Co 8.586518792026396 4.784692713861563 7.037725338759557
Co 8.679248161529511 8.382731288592089 5.198057197633165
Co 6.654788372763942 3.9144174232759834 8.231826008641459
Co 9.042547261302802 6.964870904080549 7.130400597994461
Co 4.992861877866126 6.698364869298819 7.737474985802607
Co 4.764115835921973 8.229700378203436 5.949149170906108
Co 3.963226035077838 6.014226594987898 5.705931167459052
Co 5.335420248488516 5.231949138869824 9.479421555178973
Co 6.903225479612094 7.627623769143371 6.460746668505991
Co 7.653719082693214 7.588148330116571 3.4083910075986616
