12
Energy = -61.6431342 eV
Co 7.1490533379217105 3.3006906472876993 7.226740278753593
Co 7.75092399310819 5.394183789517416 6.630919338463011
Co 9.057312152440659 9.702156104508811 5.358538651771828
Co 6.833411294671482 9.320226655804934 5.833562532943006
Co 7.0541700495527255 4.975719928694722 8.80962947221262
Co 8.416853859588647 7.627041865152474 5.980019615521514
Co 7.729253743868765 7.169474372444203 8.19982096209249
Co 8.35779663605256 9.359845206696427 7.53005598354132
Co 5.524653865178089 4.931943632310333 7.117599937414037
Co 6.147685027026115 7.126800619773076 6.445652444037578
Co 6.162033319587012 8.903765100024508 7.9814572625548905
Co 5.486096038869159 6.63429216877869 8.644311161809158
