15
Energy = -79.60779695 eV
Co 7.517041949137561 7.695471720274342 7.041139034647774
Co 6.195860264680515 6.062801002647483 7.987741999946456
Co 4.99427746912772 7.562835054495871 6.633302731106811
Co 3.8309250033363793 6.418339277053838 8.220753203566694
Co 8.457111722879175 5.5350423178439465 6.922092472469261
Co 6.594496478075223 6.1563632619657715 5.639478817843846
Co 8.657636686653339 6.8323742025684595 4.992289469146022
Co 4.488269425220333 5.1063355025843675 6.533782222227641
Co 6.647601972118094 4.05533802556972 6.612030980134106
Co 2.8726235351436062 6.746269865964251 6.047272801807025
Co 8.099903266004773 4.56804000133708 4.804609899243948
Co 4.585304373483738 6.534914733872659 4.469441970681752
Co 6.843422673023588 5.942396148459684 3.3897929277260994
Co 5.533131796210098 4.386503816664403 4.444133562421664
Co 3.182230010770708 4.750317973576102 4.760024353983281
