14
Energy = -73.22726264 eV
Co 7.750128369085845 4.410980773692458 6.010381633367461
Co 7.871985364460249 5.463965894284061 3.905846988975486
Co 5.870141715067207 4.567591751684531 4.706018962536956
Co 5.565671193297621 4.125309619862561 6.934322416463339
Co 7.762448433854092 6.716324067873948 5.962131080351644
Co 6.1609168945409705 6.893565200378598 4.234408905781151
Co 3.843401730605615 3.798528509813927 5.393530512112098
Co 4.034929302268463 5.868826501985762 4.165015197595634
Co 4.833562801771182 5.741813005257144 8.558315218012707
Co 7.0970864592433065 5.53828364427658 7.928909373029491
Co 5.819133266952681 7.235738707036049 7.055991033935685
Co 3.9843386384882713 5.8189030996546345 6.469809900165109
Co 6.63658986171688 8.717588769568925 5.537475313673284
Co 4.385075769908854 7.85488522892754 5.346574486101168
