10
Energy = -50.21903781 eV
Co 6.220459092997722 9.232857647230801 6.680760896813322
Co 5.582596790047068 7.273649404497693 7.605030557222222
Co 5.686559749520508 7.374635071690456 5.3162122303026464
Co 5.263383559126275 5.342930954266697 8.735140953926397
Co 5.166129051361337 5.3748040471819705 6.406422603147874
Co 5.2589554649486265 5.442424949419623 4.114712275792839
Co 7.696182911085136 7.5508498432433795 6.4141685517949005
Co 7.174086814480408 5.412550812846089 7.488556567051592
Co 7.260112502643527 5.651990981577163 5.219048242130137
Co 9.188948960316 5.850670987070667 6.510115269979307
