16
Energy = -85.68637992 eV
Co 6.882785414324236 8.197463502531688 5.406006539824002
Co 7.146797350076171 6.611017904067876 7.0220365367726165
Co 7.5556234702448775 6.068827587378545 4.6407414745208815
Co 6.084071836465338 7.368297839714035 3.355268891251071
Co 5.212140333905602 7.7224997876031996 7.396556381105721
Co 7.699079916307413 4.445758666873112 6.7866921728115885
Co 4.709973134706888 7.5751680176763525 5.139345425501362
Co 5.788923102078875 5.123456781083648 3.264574828227446
Co 7.065084161530648 3.718265329145675 4.7243573813403925
Co 5.584479524660774 5.382618446744299 5.6374543564860575
Co 3.553001146246038 6.293165809139521 6.750533302519103
Co 5.7503228334503085 3.311125734320919 6.796095954935634
Co 5.340580453884551 5.354573619362775 7.983066541662692
Co 3.7445400726953437 5.632252610951738 4.258984823149548
Co 4.616874110216465 3.477996321372057 4.6078630268203895
Co 3.605114742716998 4.050986563239493 6.559414799833802
