15
Energy = -78.81167209 eV
Co 8.833401404660819 6.362070352060687 6.077705360872902
Co 10.897069904570305 6.166332270640198 6.981643478697752
Co 5.310731366065725 5.183137362376501 6.266377634982147
Co 6.563709595194867 6.980587508250356 5.548984441959536
Co 7.144521417687137 5.77868526924562 7.5823402144934375
Co 9.980754081612398 8.237082384994842 6.908209158691998
Co 8.361463528415973 8.479460120970653 5.208660362766112
Co 6.142191522521288 9.15930947965934 6.062697925339033
Co 5.088896591273454 6.3381359555180286 8.429378801936414
Co 3.3233062434114635 5.683120889815074 7.1234720689422195
Co 4.5322532341124795 7.502256464203739 6.485376793675056
Co 7.696913478945876 8.077285381630185 7.426290648625957
Co 9.258060745720101 6.570610727656415 8.448649958599464
Co 7.117853473901972 7.10622256058833 9.483487418766737
Co 5.637730104189244 8.539953621992742 8.2994424252902
