18
Energy = -97.35044639 eV
Co 6.428232162465852 5.905616105683146 4.600465809404493
Co 9.12975443751886 5.569492281004756 7.228043192416553
Co 4.61360635932319 6.489232034879783 6.575865829986732
Co 6.899113224093404 5.743739508847848 6.8649291731562165
Co 5.197907157102447 7.826225917921717 4.710778088881724
Co 5.428270294562856 4.122600279866764 5.860266502462529
Co 7.0965159278132175 9.2878679757252 4.818876884335565
Co 5.180080477869989 4.675357571084036 8.11668732170792
Co 4.171965419199271 5.493265193477219 4.489239610042159
Co 7.243982366337984 7.583305468113619 3.4008022052826536
Co 7.680767115731528 5.258236135428451 9.037012832618833
Co 8.138184184426699 9.374942148510776 6.928417411702106
Co 3.3046637231145333 4.724201363438959 6.5925896128302055
Co 8.169743429791751 7.350870517366404 5.615270536437569
Co 8.09041967675069 7.409691845613003 8.073763292927467
Co 5.848594667747987 6.8496755146921675 8.677073554426169
Co 6.215143677906069 8.231153025033484 6.734023880527451
Co 7.1395142325304874 3.599941041798256 7.59051213330559
