14
Energy = -103.81868258
Co 9.15684073569359 8.186381015391879 10.199004556675801
Co 11.401385280328135 8.095348366592772 10.226431239325313
Co 6.811658543055146 8.25604194310899 10.1214389127744
Co 10.312040283765047 10.075296058880216 10.002740864004474
Co 8.028533907574106 10.149894016619976 9.930677708483877
Co 9.165522958191909 12.105700876403622 9.7517256435618
Co 8.931139962980614 5.953906324905717 9.543809846657513
Co 9.156840735693592 9.266052741817147 8.240061800962687
Co 11.531553312541067 9.140595084506606 8.42639175000482
Co 6.778913694629366 9.336337384781489 8.318870343031586
Co 10.372397402964626 11.2752044141536 8.152263830267605
Co 8.167926429071946 11.33042968524344 8.069856992090838
Co 10.287103089729609 7.266926942281371 8.576452178856345
Co 7.905432663781179 7.443361170338922 8.447558333303116
