13
Energy = -68.1008214 eV
Co 7.358931443046949 7.1259924919156985 7.643188751519651
Co 5.24192219378801 7.748719723685146 8.569165646885077
Co 6.055709822893833 5.597232644457492 8.976248437181253
Co 6.734295737613675 8.049107264695744 4.746493404159954
Co 7.180755567158168 5.920137564915962 5.535604420792825
Co 8.52429738839396 8.571335917725266 6.105217278373141
Co 7.734600361401828 4.852812121397639 7.559491490897792
Co 6.356995239298411 9.020703386891071 6.797420729966465
Co 5.534627709047266 4.722953052570509 6.907560070399143
Co 9.265417464147092 6.368536464281702 6.41126222866166
Co 8.785623828825107 7.109190087386695 4.322251068438111
Co 3.9611792017789873 5.949913665872623 8.034934502428438
Co 5.2732052161120295 6.970926408812025 6.398722764904061
