11
Energy = -56.14961177 eV
Co 7.290070603610631 6.421822641431697 6.271563999846501
Co 10.181003734423644 6.779978064685073 8.99332320972917
Co 7.026511131347944 8.708552972906462 6.563857593568027
Co 8.502042730955251 9.898020727015883 7.842766927136442
Co 6.4119411628970155 9.445331821217174 8.715089079873172
Co 9.082315302222472 7.678269414989621 7.188687631115763
Co 8.122087326000155 5.93296401572287 8.379125029771732
Co 10.345575940296504 8.964680150032697 8.89700388831039
Co 5.186914488230671 7.472940174980425 6.214435264918923
Co 8.224897866413482 8.131639287818073 9.307266963658817
Co 6.223210101025058 7.241415872334753 8.181985133321508
