15
Energy = -79.17632968 eV
Co 5.0120397653635465 6.908365399417378 3.8517061433603756
Co 8.207662881909911 5.11221830671684 6.517700158103829
Co 6.661973949034515 8.414500263975128 4.3777540519079485
Co 6.709977342701472 5.826198855298135 4.773059823712762
Co 9.845975633890822 6.605940153843169 6.968653363633214
Co 6.361167242097438 3.8251748003607493 5.771299075953503
Co 8.044877930632467 7.39702632928451 5.839433086943356
Co 7.001756709268659 8.907250346900458 7.1383707725161525
Co 4.598295835654101 5.355531001217575 5.6335517191687385
Co 6.180153240928321 5.541294353033677 7.45154265533579
Co 5.474179104578547 7.477704725108811 6.114902507069903
Co 3.94562505252741 6.4251290353218655 7.547742091009284
Co 7.984375554224335 7.0021106373544475 8.173306824787321
Co 5.680203174644495 7.588382505989311 8.53175907380214
Co 6.637112721168836 5.94521779097358 9.658405236157591
