19
Energy = -103.1615572 eV
Co 3.379253015135814 2.882353873317837 4.195572761729081
Co 5.623696506797489 3.1874352099490073 4.515909650508675
Co 4.118853344721834 3.337808098769263 6.3825473893510125
Co 4.432297088279902 4.895342004437448 3.4438728746750193
Co 2.8690212505090256 4.870300120289274 5.193723271440164
Co 7.001451936209255 3.9288163883190212 6.36027057519304
Co 6.7914044503297255 4.95447669743387 3.637986381429822
Co 5.5221437554565975 4.619675385270178 7.960833919420856
Co 5.149640317630972 5.1976369545273045 5.605223605920898
Co 3.4945101042340188 5.644530042004373 7.317825174079078
Co 7.349905354027859 6.115191161965898 5.527552967533865
Co 7.551363499106206 5.7762905501863955 7.815349023755213
Co 3.8032376521646927 7.092745044026354 5.386864042773899
Co 9.182069065794725 6.889192718975799 6.569814617839069
Co 5.731266239570242 7.012006959044845 4.011291695158068
Co 5.54358733200421 6.898234472174407 7.150143517399196
Co 7.680772809567812 8.192378318576388 4.688973611255934
Co 7.4528971357736875 8.204695470000908 6.966403355783961
Co 5.5748731901185975 8.66126853944137 5.59987079083985
