13
Energy = -67.46479597 eV
Co 6.996925210530418 9.2115118116377 9.507830674003001
Co 5.85002454332185 5.850458073853506 7.8061530595093975
Co 5.85002454332185 8.143392347207332 7.8061530595093975
Co 5.83240689476393 6.996925210530418 5.670830454535304
Co 6.996925210530418 9.012680353623931 6.005886888230853
Co 8.143825877738987 8.143392347207332 7.8061530595093975
Co 8.143825877738987 5.850458073853506 7.8061530595093975
Co 8.161443526296909 6.996925210530418 5.670830454535304
Co 6.996925210530418 6.996925210530418 9.58363215717519
Co 6.996925210530418 4.782338609423134 9.507830674003001
Co 6.996925210530418 5.9059683903483124 3.8913435782360253
Co 6.996925210530418 4.98117006743676 6.005886888230853
Co 6.996925210530418 8.087882030712525 3.8913435782360253
