14
Energy = -103.56974538 eV
Co 1.431225371922486 4.437464592568771 5.362699300941271
Co 1.946446391432036 1.8994027790380408 6.49431813828847
Co 2.3863199132421853 2.633096244144745 4.16748702585695
Co 3.333229383845232 3.9177349633742584 6.691028808158228
Co 2.454269573266054 4.728744097561978 2.862329889574559
Co 4.427575994489185 2.336073669690401 5.283098479871402
Co 5.833053278962566 6.751448691160998 3.863392753376784
Co 6.837476593512554 5.151536045675057 2.304708140135599
Co 7.79270241409498 4.8800048191142436 4.433495977600179
Co 4.774242012861674 4.083780017061334 3.360040471960036
Co 5.370128967245564 4.8967025435271285 5.3995973502064505
Co 4.386272896678841 6.539280892428755 2.3063253271510566
Co 6.840246415678254 2.854103912006726 3.920058184971057
Co 3.2594465042638165 5.963262444143304 4.6240558634038385
