15
Energy = -79.97270975 eV
Co 8.013926617360195 5.4970392823591885 4.750661941510428
Co 5.3224630700101345 5.518063342791964 6.666296518309462
Co 7.891734833487601 5.494048748078063 8.742310472812383
Co 6.078671785818442 6.717310615115441 4.702387582775488
Co 7.44077781071144 6.7016841995620835 6.73098970325677
Co 5.957785079936372 6.715274831627398 8.673264822312483
Co 7.918840882168015 7.892270228667927 8.743797201452919
Co 5.349653597883884 7.932660398548375 6.668822767311714
Co 8.039990453277962 7.895279456434803 4.752831655094993
Co 6.0843248929586595 9.030660900420964 4.7349406721223115
Co 7.337711999910482 9.058733813161675 6.728857832185785
Co 5.966649331698583 9.02915360923127 8.64439781901287
Co 5.914367582696163 4.402019184364929 8.640441454407545
Co 7.28446839994048 4.346952852621314 6.724901745487057
Co 6.0340389580890115 4.404253832962153 4.730503107895084
