12
Energy = -58.8671428 eV
Co 5.6158740306074195 5.624074946455845 4.436970883675382
Co 5.645514253422651 5.647015363493809 6.694587302157486
Co 5.642369969320159 5.62642874083607 8.949805542730184
Co 7.758427150979461 5.6240817328672135 4.436850100969681
Co 7.728868859200583 5.648538659792635 6.694182239096308
Co 7.784947528480183 5.626190223400992 8.95396961081307
Co 5.611381982787983 7.766726987802793 4.436598692473299
Co 5.643079444336889 7.731256697513493 6.694329135281582
Co 5.63748943480463 7.768829034467909 8.949239163461817
Co 7.754385036121164 7.766738854862477 4.436775019878148
Co 7.727184299477869 7.731111475609341 6.693835505791186
Co 7.780614366526135 7.769143839806453 8.952993293633217
