13
Energy = -68.69623057 eV
Co 5.845375837606476 8.89206692307698 7.017340541277407
Co 5.845369837606532 4.112088799375743 7.017341541277356
Co 5.786156111317221 6.502080361226359 7.1122919315001365
Co 7.7085967584768404 5.297135263000584 6.387563670908026
Co 7.708599758476813 7.707012459451793 6.387557670907955
Co 4.535896843175372 5.278399755031994 5.4808556167992215
Co 4.535901843175369 7.72575696742055 5.480861616799038
Co 7.220867917821078 5.335568171799404 8.630851544583516
Co 7.220871917820998 7.668559550653241 8.630846544583521
Co 6.354980585399103 6.502081361226309 4.799648421304421
Co 6.3711676355845785 8.862312675684176 4.823396750688601
Co 6.3711646355846066 4.141846046768394 4.823390750688531
Co 9.022018013896723 6.502059361226174 7.93502109462461
