11
Energy = -56.34965148 eV
Co 4.892536091989969 5.9799687657531155 8.526338477137713
Co 5.287563178409993 7.730120974404184 7.021155908916923
Co 6.689557151881903 8.584884547651708 5.364109410913865
Co 7.1079419490464 6.595151242053254 7.918995044244291
Co 6.508781090512955 6.284472647686457 5.676579211049463
Co 8.51842687849778 7.261032477277581 5.113296045176387
Co 9.106479209506238 7.5022093857624474 7.223120503078182
Co 7.319413792801325 8.865941876008275 7.47413339837177
Co 6.252031819712265 4.62617769625389 7.1971358699839625
Co 8.442314199954172 5.3363295503758605 6.51108984913875
Co 4.327091336577206 5.685847468715666 6.426183114774433
