11
Energy = -55.85827916 eV
Co 4.05766879191961 8.59843964224408 8.051706856018576
Co 5.837361543126238 9.46896595743213 7.18828625896048
Co 7.45092285967951 8.549299554280658 8.711946113919877
Co 6.368759381649638 7.586547732964448 5.8186253795229
Co 7.06055203235852 5.573339368098449 6.799963255192268
Co 8.63424914353486 6.787775990000561 5.769066956306938
Co 7.802913116175671 6.232841974357737 8.791776160750508
Co 8.02499113996459 8.90645988999648 6.569222491499621
Co 9.397327724775772 7.473522818026372 7.826818338948432
Co 9.361757831083267 5.265755806658816 7.286777516705828
Co 5.791723650409216 7.21549275858368 7.964725437086787
