17
Energy = -90.95740168 eV
Co 4.505288779754122 4.149950649773743 8.114116214581687
Co 6.835392012274528 4.413278123688895 7.499883080626727
Co 5.286042168730377 3.6618142377480334 6.00130049880021
Co 3.084513440108631 5.547002492506633 6.836787164359514
Co 5.355019580041032 6.076001521977471 7.188757887059913
Co 3.0706639447632917 3.2954082278771697 6.345205765394653
Co 6.810970535767036 5.400968505012929 5.36919844278958
Co 2.049786006827905 4.859203272961506 4.878517765060273
Co 4.746891878252979 4.195749367841597 2.0021969029844353
Co 7.087682800421646 4.415344419160437 1.7926390933088672
Co 6.2158816359745845 3.7567863129013612 3.765948619189991
Co 3.388514923442974 5.77776283612542 3.0110123373895217
Co 5.813376750506706 5.984240178566758 3.0206632847543116
Co 4.5487839408326405 5.731767252222241 5.002313627748842
Co 8.064755506588465 5.44302190849011 3.4953139057678317
Co 3.861526150158097 3.680720472582096 4.078907223704838
Co 2.6581375867863604 6.9942078617941865 4.980465827709862
