11
Energy = -56.0040121 eV
Co 7.4906163406576685 7.334432479923753 6.797482980654812
Co 9.302356886538952 7.7042561990513745 8.191554458306921
Co 5.358719876178107 6.6811668702209355 5.909480964417166
Co 5.908093672913519 8.934695861363585 6.37554148995777
Co 6.47366411214724 5.277179489767481 7.476925216439149
Co 7.361199872556297 5.537426108335101 5.385074684513843
Co 8.746369819924851 5.530352836099776 7.439629293910594
Co 7.5130319731564414 6.671104143706121 9.10432425864623
Co 7.293511829721861 8.928058676667339 8.429677877596035
Co 5.512865254047931 7.523509451826314 8.131650261989261
Co 6.877248619445502 7.715495934339879 4.596336358882897
