16
Energy = -85.46389046 eV
Co 5.540652173416346 5.736693398516303 4.7293143856014375
Co 3.6465325738315677 5.382214375052319 8.32915675274055
Co 8.65694613918953 5.676265282458485 5.578648109479614
Co 7.294473923123866 7.107674733877117 8.702277784298673
Co 4.869724563120311 4.44257345648359 6.594792729960814
Co 7.552895267443873 5.148923583914124 3.5916846093465367
Co 5.087392526635713 7.206607956956937 8.153114506931868
Co 3.8870684622796783 6.4844523841887085 6.286870716931708
Co 7.961126169778151 7.97823096678183 6.588562049522923
Co 6.7154863653163845 5.936203175859511 6.781323385425904
Co 5.815638844000459 5.066816187739107 8.722091802444611
Co 6.945998891752872 4.027710931341458 5.44803155452495
Co 7.288845779345124 7.2499057931233635 4.414117376376954
Co 9.465668992996864 7.654630112887983 4.919901837512977
Co 5.701730499970758 7.985258438021171 6.0299365735396036
Co 6.49058005248048 9.087500434660846 7.94817653509741
