15
Energy = -79.15600391 eV
Co 4.69110953653548 3.377953723840681 5.577378394905247
Co 8.633721844750227 4.8744104281775815 4.188244944346785
Co 2.780824748218205 5.558754060820127 7.606912745671933
Co 4.540912374319821 6.910113996512487 8.411380340173968
Co 7.1113876527804045 5.942412099847886 7.19128598389596
Co 7.001858454022363 3.3433701885217406 3.4789108035412912
Co 6.613825224726967 4.648517954746649 5.275937810767044
Co 4.9247495377392925 5.326272149145727 6.859498882753657
Co 4.902769958440503 4.370473317395123 3.5677285785977086
Co 7.549844580982678 6.772184304552171 5.095917116721821
Co 3.2191445703834733 5.098444818660036 5.308419481653953
Co 5.77517021491138 7.62316876431156 6.532899558649002
Co 6.8100695916486 5.643044285895388 3.0949601235142303
Co 3.4974856564533474 7.253438671689035 6.3189474551114655
Co 5.118617956548399 6.4289331383452195 4.663069682156785
