17
Energy = -91.91600265 eV
Co 7.013509130555904 6.761763071580095 8.460591990460578
Co 5.056231220118962 5.466882389503655 8.997176115366681
Co 5.19564352949158 7.849850985277927 9.217269925553301
Co 6.32267060754579 4.761351077173394 7.176307225231403
Co 4.812422733639187 6.892698190202203 7.188263658917664
Co 6.3572671863009 8.729861773981488 7.291249266244613
Co 8.716014946360138 7.930768538136974 7.126008190266534
Co 8.689363661050193 5.531589127320782 7.017049373996242
Co 6.989840790219631 6.848216653577663 6.090172008263622
Co 6.903985391569461 6.929511380447812 3.823056530027134
Co 5.2074884908891015 5.679203972279651 5.077583358349924
Co 7.429673363210998 4.830944521757469 5.046189913891334
Co 5.346803985340881 8.19116587284154 5.139185333947324
Co 7.632231643062417 8.801786217870166 5.07725382786617
Co 9.044747039825594 6.814727270621062 5.062748213460709
Co 4.028389256103644 4.719726048567809 6.945253288688844
Co 5.483677637209939 3.483448750717613 5.508978607498903
