13
Energy = -67.76044586 eV
Co 7.071616546117617 8.647402257678246 8.765953996660723
Co 8.220711584375106 8.209830879397911 6.735478504404487
Co 8.648845560538943 7.071616546117617 8.84163652900486
Co 5.032074370373531 7.071616546117617 4.911054308292265
Co 5.494387531696288 7.071616546117617 8.84163652900486
Co 5.922521507860125 5.93340221283732 6.735478504404487
Co 7.071616546117617 5.972318609138897 4.715870784852887
Co 9.1111587218617 7.071616546117617 4.911054308292265
Co 7.071616546117617 5.495830834556982 8.765953996660723
Co 8.220711584375106 5.93340221283732 6.735478504404487
Co 5.922521507860125 8.209830879397911 6.735478504404487
Co 7.071616546117617 8.170914483096334 4.715870784852887
Co 7.071616546117617 7.071616546117617 10.520069692617657
