19
Energy = -103.76786794 eV
Co 5.809554620335917 4.744596064259138 8.799680424497206
Co 8.229968325154571 5.215747896493996 8.592212157982742
Co 4.632721280319727 6.881236408799452 8.783681464197226
Co 8.511745485138336 7.623815786762163 8.473558005365284
Co 6.292126945713926 8.669181461496372 8.604882070904114
Co 8.592390298826517 6.284957565868606 6.39763068599578
Co 7.420226857874667 8.422776817007993 6.394749327796028
Co 6.944037783736614 4.486797022855168 6.59264325910891
Co 5.013785045179587 7.94833372123476 6.591195157370599
Co 4.724070470194126 5.539841823685779 6.7155183295201395
Co 5.971433245648345 8.493914167875175 4.362538540391349
Co 4.321913516577462 6.702179194390878 4.5795275325653995
Co 8.197935560023518 7.45320183015479 4.256739867525374
Co 5.501791731571639 4.566295459723818 4.565524641776712
Co 7.916079206430882 5.045546948091875 4.370930500202625
Co 6.788661115126906 6.675373794952919 9.926797348946653
Co 6.624869053481845 6.583752227703608 7.7018383422647005
Co 6.4525065366889125 6.4891785185038895 5.377099277015265
Co 6.2881877167458 6.394906455707799 3.155577519030958
