19
Energy = -103.66724103 eV
Co 4.217626349564396 4.559159212908952 4.576030613465451
Co 8.086585470650222 5.925194244085525 4.4520027726026505
Co 5.4384998820735175 7.732171516582831 7.858812728190132
Co 6.763072104053879 6.83823242791778 6.089545211771003
Co 8.40508657600848 5.250342266684728 6.690060127442592
Co 6.782234559700409 8.963310809858587 9.117275387999438
Co 8.081023692136764 5.066110875571144 9.108998393126383
Co 8.922973347624868 7.645001319628034 5.8744616003363275
Co 7.251818026368013 8.221286969323398 4.335034013452688
Co 6.524423520131417 6.701727005138287 9.84447844663654
Co 5.656811898574169 6.426517311721093 4.11048641582653
Co 3.4633757487020866 6.764986511739131 4.329763709210411
Co 6.291285061332835 4.508855151849784 5.640432142215838
Co 7.364360154219409 3.4451347251699542 7.4704009209535425
Co 7.916804411277661 7.212212492956132 8.118767019017488
Co 7.13947962685335 9.027641742411056 6.7333479309098925
Co 4.995389478723036 8.231446302516424 5.517521097949623
Co 6.180038927260193 5.363041602190125 7.937158900583111
Co 4.509061680718617 6.030238900181142 6.26521346145829
