15
Energy = -78.93311264 eV
Co 7.969899912483083 5.053351292165693 6.750415415203629
Co 9.12901478132398 6.670396313048771 5.753918554691308
Co 6.38916869507637 3.713599442565589 7.583952986354765
Co 6.360949383487701 6.065400485883811 8.272396677118671
Co 7.020129773214294 7.163526851884792 6.393436294561269
Co 7.50566184729462 5.721474388397779 4.397271679961729
Co 6.156685962019221 8.311286794537518 8.224782114385874
Co 4.65431024321522 7.581299436406565 6.741263975828983
Co 5.493937816774545 6.810719023353754 4.615147447561027
Co 5.108653622185469 5.33124710170172 6.496353028059346
Co 5.178455422687045 4.8161315100854365 3.5655644664795263
Co 6.504250430136801 3.8925499341217056 5.255447753187608
Co 3.501550758534052 8.070318171840546 4.890066715934506
Co 4.221343395924269 3.619489076421342 5.246629793480387
Co 3.4550055565462343 5.848526078885486 4.952659496490062
