14
Energy = -72.97156362 eV
Co 5.781963332678842 4.778244334349867 6.539071815095086
Co 5.1685916663519675 3.5576013934112347 8.361742433854547
Co 3.5243778883359593 4.447967007698418 7.191041625654515
Co 6.116825093647908 5.532222942593651 8.660214349318451
Co 4.532418327700057 6.54445819575281 7.503908925608736
Co 5.9797027605464175 6.926939246180086 5.587551127470839
Co 6.099989226051551 4.965313195985165 4.219246804282776
Co 4.377403691176883 3.5513923287360494 5.098738496176583
Co 7.222418220209089 6.7078343420000115 3.3502998857926225
Co 3.9362550313586957 5.837361843203862 5.311669281891047
Co 5.5810071475110705 3.2591952138934666 2.851631720011522
Co 4.980888086029129 6.937159420640432 3.4640889860930915
Co 5.951105996912614 5.367828002266361 1.922167857586237
Co 3.9657246213473374 4.805153623146105 3.1572977810211724
