19
Energy = -102.92177285 eV
Co 7.736609640008819 7.627735931689888 3.3470389542884695
Co 6.33075403718291 6.389246584844026 6.593258160507957
Co 8.21899369597643 7.455029083126678 5.608282708490115
Co 7.549511868547488 6.733313047674194 10.137417844957707
Co 7.352669860059548 8.873823889498642 9.289715329341476
Co 7.566026786910964 3.541158779617704 4.978583915135834
Co 6.425592686814593 8.727636087536451 7.055943539608234
Co 6.017355296064132 7.935116564015302 4.856274905813915
Co 3.445305605052425 4.828101654098536 6.314229733761871
Co 4.214175601306766 7.110517961811464 6.8037028489682525
Co 7.08714298121979 5.676411057842152 4.412261266518971
Co 5.661542954272271 6.725613355843435 2.882870051673252
Co 5.721032952515708 4.218238580426562 6.109355403571574
Co 7.082400048315319 5.137984777917117 8.48170497447525
Co 4.721887905923616 5.922483274427524 4.815652529271834
Co 8.109784313148413 7.22332316791085 7.922558859471051
Co 5.800200789992921 7.262398578925911 8.746014719615653
Co 4.7816845529490415 5.226921609625557 8.0672339444798
Co 8.246077089306711 5.100298037833764 6.457479806525181
