19
Energy = -103.55918154 eV
Co 7.071259127433677 8.199232770479087 4.0976593654017135
Co 6.806336962812137 6.046456516658718 5.072039061915246
Co 8.912831294147525 6.978381746342398 4.812423433722971
Co 5.497059870473004 7.879617102079262 5.888867790931417
Co 4.782985583645907 5.626349293304574 6.129501663975167
Co 6.323694454639873 10.05442617699036 5.6253309339846025
Co 8.666193409317481 4.6940141289230075 5.478727883284237
Co 7.8268869683933655 8.492450074985056 6.222614900537728
Co 6.744934634402432 4.358671270161541 6.825080265176425
Co 8.175172040692903 6.309549669500395 7.005770817127995
Co 8.770374513200625 4.359980478931035 7.962638106681337
Co 7.268709634594089 9.958307287082526 7.851977152033541
Co 5.011430067584649 9.519959752448948 7.4536785445944815
Co 6.880646051933377 3.8889369692330513 9.118978992396798
Co 4.081263719421244 7.26818222185212 7.604336800060379
Co 8.729152426702436 8.0906338400705 8.441770419167554
Co 7.714013120040191 6.080064271120622 9.246454632396986
Co 6.395104515332492 7.821528852119611 8.113789279571499
Co 5.630604654774865 5.661910627260113 8.33701300658272
