12
Energy = -61.60177255 eV
Co 3.887557627407355 4.983527514492966 3.8962525120206113
Co 2.6101808210582194 5.910077818152147 5.427313103770511
Co 4.758812349665123 6.9234829264682345 5.167754667899212
Co 6.058585710706419 5.186277050621946 4.456044605761761
Co 3.459493719230548 6.755530701761894 7.280825970105159
Co 4.523605670943611 4.854226166405458 6.253938937127944
Co 7.236228006919977 6.9422473444566 5.461553655164765
Co 7.016887060478524 4.8694094918475415 6.543622946169991
Co 8.285832679508218 4.939173167536453 4.454550672476226
Co 5.712808933186307 6.627128546454939 7.240070804052516
Co 7.8814657575306954 6.673196874945402 7.863966304558334
Co 9.159490860662897 5.897688982558366 6.244407974204967
