13
Energy = -67.39635724 eV
Co 8.414333539780033 6.266323544553662 7.708163597183993
Co 7.939158607240263 6.840887547316898 5.621949106523169
Co 7.2399101424243835 4.71695331262589 6.470400690591473
Co 7.378287565469516 7.268235057517758 3.519591648642433
Co 6.175806526594127 6.673367890696009 7.249179363751879
Co 6.720589237857462 5.2260152281443215 4.348750627835171
Co 5.838609432230383 3.2641232521818533 5.277191471690451
Co 5.634746561638036 7.205226381911875 5.04955169040069
Co 5.016603686465787 4.631423102056109 6.995410864311253
Co 4.4194422416207075 6.108761129661445 8.655988523778944
Co 4.4978989539924035 5.144023394947102 4.874565304564253
Co 3.86337201896823 6.684574705918025 6.5890540766206795
Co 3.3891158915207344 7.122224275091909 4.468096172714643
