11
Energy = -56.47001761 eV
Co 5.046608109067654 6.029445722696133 5.426966300951714
Co 7.312571649147186 6.52459588899093 5.715924368381562
Co 6.98484050844463 6.083852691527103 8.107073575605684
Co 5.948848844952138 7.973810926649674 4.575474474668076
Co 8.750963955347277 7.284560694527649 7.391788778631631
Co 8.717462265960933 5.057977267319387 6.781954726503379
Co 6.486311898854261 4.513742795652367 6.569167439004227
Co 7.045669056174397 8.368249890248226 8.479993739925185
Co 5.496564716106961 7.652760336489189 6.922328646849789
Co 7.311641108305017 8.801266420307302 6.241742578698715
Co 4.773090033576049 5.584309429990143 7.6621575982555585
