17
Energy = -90.83851062 eV
Co 8.121708335017853 5.384575484055238 5.488578435709496
Co 7.298173971070159 7.701232322997533 5.540193499495965
Co 6.586372948537883 6.255669560458501 3.683198121051797
Co 8.872683195866298 4.628882596506436 7.641884721210721
Co 4.59229364068025 7.053400472580892 2.606997145029795
Co 7.362512586075688 6.382747008716743 7.551043239813585
Co 6.3084132165126965 3.988121992343163 4.590394678174148
Co 5.008356869897815 7.70964924439101 4.788631484548189
Co 4.388867635855895 5.388442648428667 4.198192726781013
Co 5.877207402007522 5.884645032109046 5.872765384927172
Co 5.450854283292027 7.7846838264330325 7.156123104551409
Co 6.741069561923901 4.05382021410415 6.957220271786778
Co 2.878098057586308 7.135390510688739 4.099264850298848
Co 7.161682821644557 4.712391296603819 9.136345586428478
Co 3.631124458239063 6.383226465850825 6.261469090568434
Co 5.164629972045843 5.517872869870216 8.057257879879215
Co 4.456512230449971 4.065536031551888 6.2080016543351
