18
Energy = -97.16158993 eV
Co 9.227168227884677 4.516482363536495 7.0413556994612305
Co 8.387509728695903 4.439940703623195 4.867873537622744
Co 5.969181796116253 9.574486315578241 7.512378864890975
Co 4.748515235388771 5.530444287724795 3.4364766978925196
Co 5.1309296827874995 9.675912716930736 5.398387457191791
Co 5.125818613314389 7.597964861633598 4.304597020554219
Co 5.346963469603687 5.647899421722784 5.6885775213776455
Co 6.926450404998415 7.542826266215725 7.967808904344823
Co 7.849612102444809 6.2187731254632785 6.273232557939599
Co 5.435723370652862 5.682616605444796 8.049099938385014
Co 6.30504146350998 6.475846360915876 10.000738292320206
Co 6.991622583762147 6.164257660689991 4.076104759966369
Co 7.665291176702812 5.307594426056466 8.482501314062
Co 6.2229294485739 3.963430567241756 4.348035601791235
Co 6.867678250773249 4.0948639047355755 6.613039707709819
Co 6.915743604183637 8.276262767212785 5.581681493861333
Co 4.875873156916223 7.9255998339414155 8.973763315087277
Co 4.88245933490944 7.706676446499967 6.696194183790731
