12
Energy = -62.1051757 eV
Co 5.704514911290755 6.844716029024761 7.561486086535648
Co 7.719973756575819 5.999357301459699 6.500357141867943
Co 6.714190845551544 4.823821714498053 8.30204093079894
Co 5.980407351172414 6.976095588861972 5.1485069115435085
Co 4.38291738071439 5.162609411502975 8.158275728485748
Co 3.907484397736281 6.444205978069155 6.034951655884533
Co 5.61740684461393 4.8507046731900285 6.2600263676446595
Co 4.115518973401694 7.438805779346646 3.8416009818939103
Co 7.603985019255525 3.7660747476478074 6.377440856281029
Co 7.085148633917626 5.086309010894803 4.382506418766781
Co 4.692730436185081 5.304563922855335 4.080707150671045
Co 6.0797890363539935 6.5922662610550855 2.8435626604061124
