15
Energy = -79.84766897 eV
Co 9.674745307947504 6.651097402345802 7.752903912184995
Co 8.627712194832267 5.271288941831356 6.019243438306813
Co 7.8310257892115205 7.445712039303755 6.563976047824161
Co 8.757196694663257 8.689214277132843 8.311887878820732
Co 7.640066363334894 5.611894023155996 8.111479752822879
Co 8.58222603614068 6.913693830442848 9.765282087053667
Co 7.351952112897842 6.498024644218085 4.443544880067731
Co 6.438223684268513 8.543455176859434 4.992049937338485
Co 6.740312126657462 9.471510596729926 7.156351706048698
Co 6.244169800458885 5.448150677407971 6.14875413480593
Co 6.701473677612995 7.698867974591487 8.677618087494304
Co 5.007676063103607 6.696665400565117 4.657700706632825
Co 5.259000742321256 7.647073379817733 6.734621232447285
Co 5.296577395040739 5.867353911679266 8.249174664989217
Co 3.915117236187752 5.708890855655935 6.443564585713937
