13
Energy = -65.51328412 eV
Co 7.843445769241474 6.950802761453013 6.0897940135735995
Co 6.226964528366185 7.401279211785433 4.435908527300245
Co 4.57006396743343 7.749521019480695 2.878271210873081
Co 5.620181446126756 6.559035481276678 6.514948948309241
Co 6.924725451288556 5.282870496736602 4.825120839928006
Co 7.367762323386246 4.901586244743942 7.1827442570901665
Co 3.9909993723977024 6.813802580669752 4.898607546731168
Co 6.795073367787733 3.834744348510732 8.948579712653975
Co 3.4687628267807247 5.870086234973873 6.973419721973373
Co 5.16050207607353 4.415511538808013 7.720815427636727
Co 5.207417566118639 5.609753818110195 3.300337786234828
Co 4.583139068869954 4.670164512271684 5.354966677700409
Co 5.867418409700792 3.5091583304703984 3.8654513329463533
