11
Energy = -56.04414552 eV
Co 5.806136580107856 8.228170388794638 6.455687911369838
Co 3.9335998681871316 6.792621524037847 6.190486361305044
Co 7.741576519104517 6.933646847338924 6.616780285160577
Co 4.748095986198906 4.571454423122699 6.20940921218506
Co 7.104373161453582 4.691477175818896 6.486808269516724
Co 5.95869735701473 6.265866675362279 5.199727279340568
Co 5.683271573475277 6.186105228142432 7.569256043237775
Co 6.889611059469454 7.902059428326131 8.536996125725322
Co 7.70448146744047 5.674833581084341 8.558021298794193
Co 7.351682719671341 8.013577168391244 4.614817598316438
Co 8.15483670049548 5.818062217293605 4.636730593621583
