15
Energy = -79.71739937 eV
Co 4.829779745923936 5.74478049872532 8.181190845821638
Co 7.007352172326675 7.686253257337001 5.634198585836069
Co 6.877669431985782 6.331827512338039 9.261445497951593
Co 9.03535309344181 8.67918929925615 5.806999635416074
Co 8.918003467559616 6.294416489683961 5.911069782288718
Co 6.948748853401737 5.6524389542494475 4.60828064025198
Co 8.83894708245365 5.4184461865889615 8.165652066522295
Co 6.9049856224683985 8.787853775880045 9.352330879614625
Co 8.23086847357516 7.610406502920252 7.759346647177207
Co 6.87193733714988 5.647794014071813 6.987778618451734
Co 7.306578840564924 9.593105888058432 7.1724509720692655
Co 5.02206014463423 6.261460995025483 5.844780134385465
Co 5.784932728438615 7.732097630411218 7.672669492563449
Co 8.53422039491493 7.267032780353386 3.9438492113681263
Co 5.038946890592245 7.443280835304878 9.848341610486283
