17
Energy = -91.29262494 eV
Co 6.567552010253355 5.564364957556773 3.5738983885175646
Co 6.505868634788099 3.5083150162398944 4.643201864261254
Co 4.400826534472579 4.781882697874377 4.200199130082543
Co 5.510319130567923 3.6362610252912737 2.529722257501019
Co 3.0178004303470454 3.6042775000483 2.8781899481805384
Co 4.941028551791172 7.089129905596653 4.521890059729436
Co 6.071590083276233 5.45221665571235 5.907936145859767
Co 2.263606672243006 5.3553486368001675 4.65208927007264
Co 4.507188595334303 2.353269110664039 4.200649282484092
Co 2.4398238490752573 3.1048983499392246 5.046869153186915
Co 8.24813000785762 5.190262709758851 5.151543082377746
Co 2.174568815643028 4.494479290181322 6.811750399715397
Co 5.558281171304178 7.604481033618466 6.677298243313071
Co 7.239186639013651 7.362240551271135 4.9614956128888945
Co 3.8181546276974454 5.982940544375243 6.300389062336945
Co 7.6768720137859425 6.540638875429089 7.0177203515080215
Co 4.354568127301368 3.670359034395203 6.220523642736353
