16
Energy = -84.67972756 eV
Co 5.267435460639392 6.043590135667802 3.7255882260785986
Co 6.870475807543914 5.818971222739452 5.364686880606545
Co 5.319588153372152 8.101964033066396 4.58335206045352
Co 3.339391016271589 7.263198034657237 3.5440119803040133
Co 5.788873257047866 3.9041017006168777 4.381116613051595
Co 4.0583836700894445 4.181863093708624 5.803647167824235
Co 7.970956817068371 3.8145825015214 5.382046829190619
Co 3.4704778211889837 4.757580962205469 3.6239650576393614
Co 2.5898687758582213 6.024111026625167 5.315216139357979
Co 8.968256988352728 5.678610023441077 6.303740125352311
Co 6.181535037779352 2.81674780667167 6.404356841256747
Co 3.2543011184190047 8.216683485959948 5.609897050289955
Co 7.174103735180195 6.462838361043084 7.531730325705381
Co 4.69939068350228 6.484716108419388 6.070538240717166
Co 7.886780138389293 4.186347606155109 7.639002356312503
Co 5.713685966241511 4.797598344445118 7.27060855280377
