19
Energy = -103.70190719 eV
Co 6.32158308200448 5.876149159740491 2.7031803017748888
Co 5.652169053115574 7.94490156441043 3.763091355904698
Co 6.972776142023471 6.37590232159375 4.812434774676074
Co 4.093333585202522 6.347903991235381 3.361295869528234
Co 7.511030552401992 4.250964848164948 4.1264733528751805
Co 5.187199836455643 4.265826073793391 3.853614189884235
Co 3.785299755106599 7.891530340767279 5.216658217407307
Co 5.88899558592118 8.17218960270467 6.09041111575348
Co 6.168429989042452 3.919172503370596 5.9764685015294825
Co 4.6241212822363105 5.769146469347658 5.493505706069545
Co 6.369050781017941 6.047594042178663 7.137640219311527
Co 8.177659112428342 7.417602943910352 6.632271085705458
Co 8.238572195686341 4.9777092667662 6.312446550121218
Co 4.586984518639775 4.680243189084188 7.70994698755707
Co 4.3295257041324815 7.089964972438923 7.47177018610136
Co 6.592458200380781 8.00815811208412 8.331863642185
Co 6.848010938171282 4.089397599468485 8.246979967005515
Co 8.08081299129927 6.174844418378356 8.64062417885902
Co 5.785801009966604 5.914612895795143 9.333138112983043
