13
Energy = -67.56342463 eV
Co 8.267906328276776 4.796382073640099 4.293743171604317
Co 5.978951393877142 6.411735421892321 7.040737029532104
Co 8.58984714310668 7.948749761322484 6.599762941283473
Co 6.5994110624945765 8.614046703998213 7.758698754753355
Co 7.816336708603683 6.7482071833405985 8.485349638224013
Co 5.772768997696879 7.243523883227862 9.40948828083698
Co 6.324160290801244 5.834139011135756 4.731741870581129
Co 6.552320059962815 9.338335032196595 9.94010922560206
Co 8.368178434293196 7.038403731059009 4.386625423104391
Co 6.55858298237372 8.022682564177945 5.447448820952813
Co 8.562241703024327 8.873791939116806 8.932482403643842
Co 7.7170763454976425 7.5476579107575 10.63940561722257
Co 8.065713295325919 5.718287937662686 6.337965647191767
