10
Energy = -50.09830118 eV
Co 3.0775570677216404 5.309278423554549 4.9415279054405525
Co 5.391613513213243 4.239302925773414 5.6267664758486795
Co 4.389170980619171 6.066989398637646 6.64407718080523
Co 8.031355987117617 4.048357925616157 6.433678656031211
Co 6.4737874802289905 5.480397100693482 7.273383026421662
Co 8.518280523118904 6.262625476523044 6.6413056695602535
Co 6.192853986817573 7.365263920859967 5.951053859546222
Co 5.10970353767174 6.123630350982623 4.303550213316396
Co 7.195266147443119 5.5410443924958805 4.934481949358649
Co 3.520096142555532 7.5285125605071705 5.131120429736862
