17
Energy = -127.90272267 eV
Co 7.792922460593488 3.642607540457052 5.174681157470124
Co 7.256588484992944 6.336536221910933 3.9533741155121462
Co 6.192612544322508 5.473159714229765 5.8328844430934375
Co 6.4865910808646925 2.788340754084093 6.805404332205279
Co 6.019143859510207 4.279875943137232 3.374809747756567
Co 6.297262231992016 8.198717589037516 5.499464867192493
Co 8.069489278213636 7.26075854025136 6.627775850269078
Co 4.681477196328163 6.6899872807639325 4.060144016432796
Co 7.957443377861223 4.987141087759461 7.413506043961664
Co 6.0942709931834615 9.411227674456141 7.6107943701109795
Co 3.5876627816652924 4.7976731507177135 3.4575123010616937
Co 4.947143963938809 3.2470151788043946 5.304794664597632
Co 4.386009535555515 7.185652814135418 6.549000949001702
Co 2.342326481805273 7.032207846048569 4.654567304311788
Co 6.244991432153475 7.064566361087282 8.072851544642752
Co 5.3758817270703245 4.655596562523705 7.8404155992381845
Co 3.4849450775313766 5.014009553987573 5.9586404819572785
