17
Energy = -90.18940651 eV
Co 7.702321433315801 4.33519934708008 3.6169354671365777
Co 3.459448923070629 5.7418158016727405 4.2000437813417815
Co 5.97500361148821 3.054932443096172 2.7729542267897043
Co 1.1422295860481335 5.526911355445034 3.812036634865165
Co 5.599386519763631 5.329655741867617 3.2149458268327478
Co 8.985181939363194 3.1867769001792374 5.058145678804557
Co 7.297324104558698 6.50310963600655 4.31415827234447
Co 1.8873279895443114 7.429480836011303 4.701823670284219
Co 4.676928922532693 3.6688791338117825 4.576334224712463
Co 6.782847283977128 2.6899544825703123 4.966948520089963
Co 1.386236697220282 5.666174099290447 6.11077051095928
Co 3.4885819317064835 6.94546512600132 6.196634179077725
Co 2.2625817646186386 3.8208201881732347 4.744104072504393
Co 7.584667873245227 4.755945019372542 5.892069788515315
Co 5.486605933022833 5.750241568041062 5.521791439745691
Co 5.622097084735032 3.73932569021347 6.738975567052808
Co 3.5066690193395513 4.700753248717556 6.406768756493438
