20
Energy = -110.27118486 eV
Co 6.977984375578556 5.882282194003393 3.370923378216552
Co 6.447606329709694 8.12610193205712 3.8064342789648307
Co 6.128467150270012 4.224756683603217 4.798133294447191
Co 4.248917787409184 8.566927949339117 4.767568789119569
Co 5.063655008109589 6.384569963484385 4.6624806299367085
Co 8.064455507597398 7.080501603548152 5.06564026596008
Co 2.9247809046544293 6.819712327344087 5.447425798147084
Co 3.875951740495776 4.497309160112997 5.342286430566444
Co 8.370661163370416 4.703656276350747 4.822071049801178
Co 6.095979838668668 8.077251207598724 6.06864272649375
Co 4.35857032745287 5.971224199128925 7.020740980932865
Co 7.683617618808657 3.683744058105171 6.84574361401195
Co 6.760522733139916 5.768054605103433 6.525000788958834
Co 9.14792675511342 5.661076241186849 6.776586071472396
Co 5.865073994099312 7.25329581744914 8.302248011045565
Co 3.9992333560036513 8.221700273941579 7.072762903762725
Co 5.390892612649042 3.8163409840323816 7.019974681139512
Co 8.024341001572743 7.537689181948667 7.484033433868338
Co 7.7314632147881515 5.3575506326110895 8.591890979325601
Co 5.54281287084052 5.06916899938295 8.91232618416069
