28
Energy = -157.81751053 eV
Co 5.040858557465878 9.290280077388564 8.292309285108763
Co 6.770911831516236 7.858395636398971 8.736133991219342
Co 8.574533553900705 6.559952168937666 9.328155256169868
Co 4.77509831688635 6.990551781078667 7.832801391249162
Co 6.559236480947417 5.55481769391678 8.433569765098401
Co 9.170495029135358 3.0701873384214036 6.56906110430637
Co 3.8675572389888897 8.62714305750579 6.402002628047511
Co 4.533529676234227 4.625349971692818 7.326082944597341
Co 6.859548986454577 3.651476970656363 7.024753601620423
Co 6.211634787380312 8.316067075304813 6.493839191325706
Co 3.532952392131028 6.337751025783267 5.887604223726796
Co 8.06365489802236 6.922688654000562 7.032556372662722
Co 4.8088454414216075 2.454086476640703 7.0422656571505176
Co 8.729011736163057 4.83058639443981 7.893463871953512
Co 4.97527223186991 7.669907596747002 4.538556702493878
Co 3.1964083915590633 4.0462416453597205 5.479402510043218
Co 6.045424015416447 5.840272478060716 5.986029171152999
Co 2.632728843081529 8.006007517671243 4.47024631022037
Co 7.389328722268736 7.251663041460556 4.659522435110338
Co 2.2785255840308403 5.779196459452463 3.9904141910593185
Co 5.398626916715036 3.583568483216575 5.182136908827825
Co 8.472946249137781 5.111129758117907 5.533273977096375
Co 7.622648799413224 3.0009256455226847 4.888812106721777
Co 3.7153021632057284 7.0960552824329755 2.6405559190700485
Co 4.534518681839675 5.3900758097282955 3.9218955071563446
Co 8.724326792992438 6.061797849901091 3.36040932304649
Co 6.84718466245506 4.918482883279484 3.8332375085739088
Co 6.159775646319591 6.77481849546187 2.712219760759146
