23
Energy = -126.17468481 eV
Co 10.481365241804221 5.3328855241286925 6.146625431196845
Co 3.086925130275889 8.390466051852822 6.288837138488764
Co 8.08858846813094 4.792752564272458 5.835549308344766
Co 7.009559834414539 6.614653044939325 6.74914646336084
Co 3.0981199093521776 7.073499545106027 8.145426652857523
Co 5.254074061158911 9.560851814020262 6.504055649946284
Co 8.949836441630532 5.1127419778122825 7.90195819922951
Co 10.701038515681741 8.809703937610752 8.155095175768414
Co 5.05577102604197 7.38739877954925 5.733362928159082
Co 7.159460872243773 8.567544762816539 5.4415847399943855
Co 6.814647440776781 4.148586153531756 7.746640935367015
Co 4.868017840350138 5.449393710998325 7.923844155629381
Co 5.63854381198077 4.995882889794359 5.846850733227623
Co 10.962655291402584 6.430305965136621 8.095155199883012
Co 8.881269045319666 7.41921334730991 8.065523550156545
Co 9.048490331618428 7.0612652583293425 5.705428947766841
Co 7.2147631347072485 9.038385034069783 7.6980055538739505
Co 3.365805130614787 5.914404234909025 6.1906170512967575
Co 5.311849215617866 7.713379688412076 8.091331273295705
Co 9.216882742240152 9.23710484588437 6.476618984778521
Co 6.989445657499859 6.169593591669414 8.972925505701696
Co 11.16191013901189 7.730179980825958 6.236682661394857
Co 3.7421336397656533 9.380510121868726 8.200133255348838
