25
Energy = -194.14975939 eV
Co 5.460252596765587 8.955123574691124 4.1231450888118735
Co 6.547943524247586 7.194766526882864 2.516455439839402
Co 6.343614672125997 9.135090098931618 6.651605678368535
Co 7.984368728261004 8.92011375335103 4.242719827545744
Co 4.023046531009203 7.808912401410958 6.443867094217278
Co 4.077790710984074 6.691470212178398 3.99775128408074
Co 2.443674222721798 5.795683879533379 6.1151349436864395
Co 4.117793419026901 3.756514962076846 4.280925811955316
Co 4.139596237217373 3.26942032210236 7.148244623584972
Co 4.112306658114603 5.946406389360399 8.384059828820806
Co 4.675600953507752 5.246662110522385 6.005891563657123
Co 5.9947267702542755 5.056795478425626 3.62527144181984
Co 6.3359310210418 6.697291100416247 7.472595872033962
Co 5.494937851226476 8.126418341434576 8.993102265098239
Co 6.317023221711785 7.104362266775406 5.072965774341586
Co 8.425239807270973 7.789125671246847 6.407853533552641
Co 8.413277310259822 6.485200817826739 3.8343244985936535
Co 8.018384398810719 8.1429499191329 8.828913620348708
Co 7.362482381565631 5.25935247776878 5.988099207014268
Co 8.039294180381077 3.89191346455432 4.1791583155102385
Co 8.44824224997812 5.7106598596579214 8.406428796345255
Co 8.062666080206844 3.373586592077798 7.232616689227543
Co 6.605447022714333 5.939685677609363 9.913350308464402
Co 6.02848510378886 4.286898365133393 8.168660034619869
Co 6.138830593580568 3.0317368872707076 5.618858677164448
