22
Energy = -121.04703628 eV
Co 4.4602051835075756 4.658972856787444 5.677236256926097
Co 3.513860447965542 2.8240125578530573 7.005594201694619
Co 8.007770699122577 6.422478384008575 4.450606419229271
Co 4.5634356715996045 4.568349187383835 8.089118824366626
Co 2.1721243147193148 4.50006147881341 6.203459399916555
Co 5.816338333692634 6.208708773091881 7.060021342673213
Co 3.3764272560306106 6.256855394660971 7.049109018622535
Co 4.6651903425417 7.07602193549501 5.1930738785375885
Co 8.231938480386248 8.783674011863239 4.070361602421756
Co 8.097642776900273 6.1775620948130525 6.802400301286497
Co 5.831920622129133 5.468207405377381 3.7868169125928706
Co 9.229915068157437 7.929554958292227 5.801867984373996
Co 6.9856625345852965 4.557308430070849 5.608978399420978
Co 6.874841874368005 7.996047953620163 5.867467029281123
Co 2.6961533492953427 6.028199982483837 4.581728884364499
Co 3.7997051593422997 4.551158506808872 3.2289842650679494
Co 6.23803604976706 7.746920672586892 3.61486818786752
Co 5.5625690466801485 3.0989647542552685 4.275339319510366
Co 6.926295923675548 4.357643361930601 7.933241576485727
Co 4.149837572180714 6.8605653707910985 2.9155386377415162
Co 3.313589937293689 2.8608776074819917 4.7117198508884455
Co 5.766913721447301 2.8369044058488786 6.558402217789638
