20
Energy = -152.96781216 eV
Co 8.019705232029732 4.691420161137766 5.670806032182057
Co 7.663706038414975 6.7997143848175075 4.268556473793899
Co 6.393126586351683 6.8962903209352495 6.625553852420256
Co 6.268356231385182 4.712560499583597 3.3545383259099553
Co 6.804247013647026 4.815951626493132 7.8357223599965495
Co 6.986887050850725 2.5318330090141608 7.150982511996088
Co 6.692356023368084 2.784344527063294 4.792877225252614
Co 6.166371938786856 7.32996391582753 2.328335835293027
Co 5.350858551226827 4.360752486062144 5.991457043570898
Co 4.608120942163265 3.6895673911926603 8.457652827774375
Co 6.255275473190387 8.845336332650064 4.60068550889237
Co 5.0836769642833834 6.373612574238092 4.656497948198681
Co 4.50583022793256 1.8545419796463065 5.7037160028921035
Co 4.25039660358123 8.442536643947802 3.304013191236825
Co 4.1787673883549585 6.045990854802699 7.365029547378944
Co 3.1117689133304 3.512288939381777 6.640275552090824
Co 4.048390488119174 3.7792316528854912 3.973503293251322
Co 3.6827114405491406 5.904688811007059 2.7005107229837355
Co 3.808405965585966 8.050057943688003 5.909971403420233
Co 2.8429160703837586 5.472433229090519 5.345658914464275
