24
Energy = -134.58390854 eV
Co 5.663646976401752 9.113625591939508 4.778150557231522
Co 6.72383825290518 7.541456603342679 3.279669032413509
Co 7.002867396882665 9.113339383835804 6.941992352421369
Co 8.081240233775178 8.972477629512197 4.719829253710888
Co 4.784189969045636 7.86964521644714 6.7661931280566545
Co 4.653814900545441 6.843245124113194 4.60761795578486
Co 3.293442519525346 5.885698680355912 6.460223968303452
Co 4.359869233970334 4.3241685763994 4.953596298865248
Co 4.354269789102442 3.902281047712952 7.359888233831259
Co 4.749865483903506 6.037187635733359 8.54286453430841
Co 5.527868203219239 5.570897067820959 6.394622447929767
Co 6.522393965818517 5.252543031074431 4.201620504540466
Co 6.823014056269355 6.917372094896463 7.810462502912293
Co 5.5858729852789635 8.409743690497931 8.969852824036824
Co 6.789898813221831 7.295103718984955 5.499990838220837
Co 8.795896860063513 7.582107283335931 6.687151220974743
Co 8.628465454962706 6.447274747832814 4.474377092646329
Co 7.990219972729612 8.320234925664614 9.110183193511103
Co 8.125708619050874 5.269525889858759 6.485274482131061
Co 8.415579796305227 4.058819896055447 4.561414270187192
Co 8.713532987696697 5.992631374419063 8.65831490681907
Co 6.7301523818520215 6.545179309517478 10.015202098853253
Co 6.602267570072295 4.597928629649506 8.23918757929787
Co 6.526851862913083 3.5778302117602623 5.963940124589726
