27
Energy = -151.2653278 eV
Co 9.66090667404602 3.9254772526876067 5.589622484466991
Co 8.821368133533914 5.847989729468228 4.761394178692587
Co 7.452094126179697 6.890622994930498 2.88904080582769
Co 7.628851466755154 3.7154565205634005 4.590230112620205
Co 5.336046092019064 3.8984454689976333 3.7804677490204535
Co 6.5130240794614 5.747484209636427 4.6369109669392845
Co 8.121427812643507 8.087880413437704 4.6471644784092945
Co 7.942070489278518 4.5642359454204176 6.876721792226531
Co 5.15865967976405 6.070936785681526 2.7937386213389437
Co 3.257794388273237 4.858000799749944 3.2735182695033753
Co 5.859199011179757 3.713945515534845 6.093752249830372
Co 8.306958672799434 6.912043033358734 6.790829703234587
Co 7.821206633517985 4.026093047983232 9.038352400133338
Co 6.035911658297714 6.070735709502977 6.855248659750716
Co 5.744453457354622 7.983075518119104 4.130022246680132
Co 5.699970571367215 4.282184187774871 8.307560110274423
Co 7.298821951503763 6.23686415491585 8.782294451846592
Co 3.457443109306035 7.036727695326868 4.02026818752395
Co 6.5821783781527845 8.40600580705651 6.377478527338916
Co 3.782795461892331 3.682989442286153 7.183167393192371
Co 4.158337608732289 5.2051436022728925 5.391398315146089
Co 4.397686758966271 7.620621229526586 6.041104604335687
Co 7.648826128024555 8.450594804724936 8.465075669005829
Co 2.343461946643338 6.581332646634941 6.081285656230142
Co 5.424352814064482 7.804776171144604 8.310356304599114
Co 3.0732115303937095 7.932809843966122 7.9135776473005315
Co 3.8915427665847844 5.866128870031648 7.798019815267178
