23
Energy = -127.53502567 eV
Co 6.442170430823106 5.426734197275866 7.880785941671173
Co 7.85535967782312 3.8021848167728582 6.1643468299609125
Co 8.083448175709488 7.247244480661282 8.017234594993724
Co 3.577044062672756 7.301237312083493 7.4720524401712085
Co 7.254760262802184 8.413907148426853 6.1888597894966955
Co 3.599383796389811 5.680409719634958 5.128479082113356
Co 7.349685247563468 4.827237474699424 3.9704695530014855
Co 4.599170234619106 6.17413431925979 9.237197739537807
Co 3.781919485819071 3.4015924828367723 5.330254458986159
Co 5.704465792038881 8.665878362753537 4.4678313279414645
Co 5.874108641822444 7.752693979243198 8.262828279633403
Co 4.88580040145922 9.192285716367131 6.614113254945226
Co 3.5422353181689528 7.9797886769393696 5.122992244367805
Co 8.641258587713265 4.947819196735719 7.946601758325451
Co 7.579347314230831 7.350940356881715 4.02439804441931
Co 5.737207579277604 4.571450827589025 5.688687967708778
Co 5.510890092569816 6.3876802236089825 3.851328198723986
Co 7.750531687841664 6.13111708406172 5.9654399324673975
Co 4.142934625169114 5.032016862762179 7.30178775728227
Co 4.921956349689806 4.174560457595892 3.4947157082605647
Co 8.456843771663786 2.8183753734995416 4.198976490068283
Co 6.281357139873629 2.671582272054436 4.526236331326634
Co 5.423661029917089 6.94908916263631 6.139858336770463
