24
Energy = -182.11121996 eV
Co 7.945829485527522 4.587626901414062 9.317041453246537
Co 8.390815076254032 5.634010064056325 7.274251925915829
Co 8.641282759787046 3.6694448591289905 6.183748426438218
Co 4.874955338873222 8.204936592458786 2.736187395345661
Co 4.323612097154797 7.578978813077275 9.00634671463439
Co 5.132357066223426 6.083655267730275 1.8644594869140312
Co 4.403629535267492 3.761796685647731 6.3975497030586395
Co 8.199230799779603 5.186614054904715 4.756749477257663
Co 6.985619353857506 4.637075634125352 2.694083276795214
Co 4.912602284221621 4.8317097620078995 4.237471669028762
Co 7.5888738008748975 7.667154640537486 7.9967511730028695
Co 4.097836566472256 7.312703654591592 4.859303239154394
Co 6.526702052905795 6.818634616240275 4.0283302630291375
Co 3.1298264929551403 6.1938770864851005 2.9518487578913186
Co 6.557728954586561 3.468702173464271 4.969192316356457
Co 6.006685329392573 9.229591227712934 5.00128201450989
Co 6.148970544647802 5.719638219455114 6.3162224837959595
Co 6.092295593723107 6.034152986208203 8.74358345376028
Co 6.639835268641018 3.6152907730577675 7.483789573787493
Co 5.591686553411096 8.023250621808174 6.921728300022204
Co 2.497287203698792 5.282791924533751 5.467458303659098
Co 7.875654003637431 7.740752691213174 5.983864306011056
Co 4.651567591861657 4.313319640019648 8.46404875835313
Co 3.888727895058579 6.008472057038578 7.1654871826144335
