26
Energy = -146.02744647 eV
Co 3.657222867686933 4.826380001677684 8.374484226129553
Co 1.761183932860819 5.767091035713688 7.225197477921362
Co 5.7950997551180174 5.811863253625697 8.124860054676601
Co 5.551221708268999 3.7577179659908535 9.256826493122064
Co 3.8203713461908384 6.768580427712168 7.161057880900069
Co 7.502245959155742 4.271655882938626 7.893711285398232
Co 5.90881147302172 7.9913735093807325 7.308901753341268
Co 5.360133903970534 3.7443520929353835 7.022323655224027
Co 3.364712082878656 4.619933006811888 6.037934055819624
Co 2.1602420780757168 7.703984346298968 5.908035822532652
Co 4.475501599440003 8.258599285372641 5.4805269133495225
Co 7.617806430700238 6.215619421196997 6.657134547130324
Co 5.425475855972743 5.8787066277127025 5.538185759317567
Co 3.3020842538773283 6.41395498756108 4.49841343075336
Co 9.385457909457886 4.762571889106133 6.317813998401095
Co 5.089217215774709 3.539443341588573 4.697332156453911
Co 7.27904865975677 4.123452552279413 5.5309815964551845
Co 3.056479262592468 4.214556505135149 3.7900325684495857
Co 5.44680531029642 7.477789409859406 3.5430732045291355
Co 6.93825535383144 7.9871448100354785 5.2710499120212315
Co 6.865938875187366 3.7301039445385493 3.24612715370687
Co 9.077559935924082 4.56697817061792 4.087595750214569
Co 5.011759586052488 5.2319322990737325 3.1432430692332973
Co 7.191679102132865 5.910398419769125 3.8906231295773908
Co 7.912062672939426 8.007417377089132 3.277687575849193
Co 9.074840249688831 6.768463457014031 4.93211696096514
