24
Energy = -132.1271431 eV
Co 9.849324212093407 3.18341852822108 8.381672057399838
Co 6.21013185155159 10.74725351325637 8.745384141183248
Co 5.592331963088968 5.317693045109321 5.0957163993708505
Co 4.918700156765476 6.745399683581865 7.004941012735252
Co 9.349251844454095 8.361884538228775 7.5312337098035504
Co 5.664555813407441 11.123547493233268 6.560126330380035
Co 7.745847075828055 10.162296369691008 7.130589991891481
Co 8.933971386174102 6.170054154444306 6.889165252139064
Co 7.042961998936629 7.9281386466528145 6.995720618793339
Co 8.001836219286202 3.3026205215391435 7.000730719710193
Co 8.055877575174652 4.685038373950387 5.134788207873645
Co 6.574582743206919 9.346160001508698 5.167665086609349
Co 6.670546677903624 6.661579242310576 8.957973525643402
Co 8.234264821126294 4.765502648528425 8.766907220804224
Co 10.515857189331104 5.375782323367855 8.346537685638054
Co 8.95968095884238 6.940150593137161 9.271600357020146
Co 4.003876517884524 10.525727748984284 8.128750574731825
Co 10.03642054537854 4.203621483657457 6.337039007928635
Co 5.312667401420376 8.629419715827654 8.634293154126343
Co 7.345100096799329 6.8472428543684805 4.9937464168831225
Co 7.651286142853798 8.853667713451722 9.094470701088293
Co 4.7024930270961836 9.076749537390967 6.497730895333127
Co 6.72276539058542 5.325598284829433 7.038832427024352
Co 5.166433102528826 7.548228340298495 4.791840955467925
