29
Energy = -164.77355264 eV
Co 6.2081880609339075 2.318501403362939 5.45189659788481
Co 7.583196284534692 3.5267072879262047 3.814245513156409
Co 5.867573532312026 3.218268259751541 7.568660468384642
Co 7.257523456030141 4.458679899900451 6.088859034300837
Co 8.53573998795778 5.574697837100283 4.430822711854173
Co 6.570114494091782 4.514836967065512 1.960928647324368
Co 6.7433081427773685 5.385830810909336 8.276850849974268
Co 8.155134455611625 6.644188281578216 6.573277855294772
Co 3.9011505938981283 2.1545190612037306 5.10684219919521
Co 5.227728298281958 3.3071335494991416 3.515346597239587
Co 4.448526633594287 5.318796423227765 2.498037492167769
Co 4.852968543114996 4.2516621167476645 5.698462229215343
Co 6.19164522348776 5.443771928560572 4.117050619983808
Co 3.5248593782046416 3.0128720673593197 7.185203064612307
Co 7.494210795966632 6.524304182781337 2.4936351768466922
Co 5.798151147770365 6.408250438299903 6.3686912268757325
Co 2.6877427086886443 5.037878977319461 6.229935741598083
Co 7.597856535709811 7.588005293750668 8.732620910036589
Co 5.3433734554728884 7.396994315262872 3.090980699017087
Co 3.987384061711098 6.3193643716221715 4.717292982612596
Co 3.0715625431247333 4.1055261388556294 4.125845868656575
Co 7.188198297377865 7.589273824224636 4.671373325458166
Co 4.421962469433333 5.157537130911982 7.945095409988804
Co 5.0779581854284235 8.38889718181616 5.279739839569327
Co 5.320928071791389 7.264378065053687 8.671659530114725
Co 3.6454529154119015 7.159098252913096 6.974845851164258
Co 6.8876279628272306 8.622488810380462 6.782162747971225
Co 4.776525605219866 9.194608510208475 7.5449671245601415
Co 6.389398060655553 9.45560100451677 9.095526561603553
