29
Energy = -162.17488333 eV
Co 8.874737137822663 2.546748767062347 4.5398224380355
Co 2.8029375584659224 6.984426071934711 6.978406399302757
Co 4.500029267757663 3.893213201536541 3.3993362753795675
Co 7.094699208233612 6.245203966369183 8.75389493239718
Co 9.895507060164848 9.56295506430634 7.405906413679982
Co 4.995147218914697 6.897454028769558 5.982398725868275
Co 8.798394914372453 7.563883729493941 7.502800181007205
Co 5.011029415089107 3.514223675745631 5.563259538257111
Co 9.726512257933328 3.5512254856764764 6.32758581081494
Co 7.439609008050919 6.984816732509023 5.5800121094438095
Co 5.822991478606907 8.944879621609745 5.192890877386192
Co 6.73560954832553 3.198852420090972 3.992766195141633
Co 6.183413433309944 10.419461513766137 7.037601235352818
Co 5.0571875920902585 7.354620822142311 3.661321804228371
Co 7.35423783429421 3.16036438430223 6.242487205628986
Co 4.299589258483829 8.897647559092224 6.950908653436369
Co 3.0504004941183096 5.548389035291851 8.978546064999055
Co 3.8357756371379472 4.914992723636917 6.967178202765195
Co 7.975308161402021 9.74065106735079 8.425262005945005
Co 3.6233939277675002 5.597170712791228 4.704151487760629
Co 6.02307670761872 5.389067844697809 4.358630663831467
Co 6.284128758603961 5.111596039703192 6.8419714287846185
Co 3.266796974927338 8.099722752399794 4.995684920161267
Co 4.779242682464135 6.819822328346297 8.357929335186148
Co 8.26504238462749 4.779514733538132 4.80001417320513
Co 5.264351159156673 4.597232284174873 8.819647500540727
Co 8.543312787701948 5.337695200415188 7.0597134932725485
Co 6.526048928216951 8.14251873012148 7.518968925428901
Co 7.985388009380953 9.300487388590374 6.09512493806645
