23
Energy = -126.21216695 eV
Co 3.954807470821606 7.007211948829313 2.1995802285957917
Co 7.777236000295068 8.130916726431694 4.338678544863948
Co 3.4151388913510354 8.700484333377284 3.6393870962669763
Co 3.2359860117139463 6.508902100777784 4.345118786239257
Co 5.46116956605828 7.690880921342829 3.887382267692417
Co 6.334975758326019 7.686178599652335 6.057685202789874
Co 4.064691267939507 8.01916417435003 5.880083648155862
Co 5.097162082189178 5.386828247266462 3.3464718190066534
Co 7.136820651781249 5.962254441032365 4.189333107868101
Co 4.933257308748924 2.8815111911998863 6.503432958172903
Co 8.454954229042288 6.548663238659586 5.994039335103424
Co 7.258282342881895 3.9371390968810234 9.400703353277375
Co 4.103472338203784 4.535316115105496 5.175883524960744
Co 6.3025472049530995 3.812038986922971 4.834903192645952
Co 8.446493234542752 5.297850262546964 7.874525947186278
Co 5.074280929232112 7.556358204421228 8.019173610213187
Co 7.6531722564896265 7.766785836998216 7.845083545890691
Co 8.50151806930273 4.374232439741121 5.3063781927242335
Co 3.6712345785852176 6.00718110194364 6.910482519629405
Co 5.87478436940311 5.481482180999059 6.418138131787757
Co 6.57878192866209 6.0589462688543305 8.843453615225679
Co 7.088444729019322 3.6033589075136208 7.11763986057395
Co 5.132802330471641 4.372431567950449 8.290076297191128
