29
Energy = -164.3506391 eV
Co 7.358172211354825 6.0537099487072314 3.0310017879694064
Co 5.7498689198659205 5.770357477092997 1.3997138877211028
Co 5.714998027126432 7.732030108605136 3.2535661761441235
Co 8.84846426197314 6.1208877410996125 6.08354103248712
Co 6.481943351295283 3.669096650078715 3.309694785065646
Co 7.441112761986517 7.521592675285486 4.921695148625393
Co 7.643611584260023 8.249952712734153 7.1757397287599485
Co 7.069430246743745 5.048436355856894 5.083352791282445
Co 8.668702747165408 6.387850498962292 8.357668990837945
Co 5.084838243857227 5.541609276911695 3.6510947585173774
Co 7.797922017277592 4.140403135254948 7.163132193823773
Co 4.650013911656049 3.882469304200992 1.9394272999401372
Co 3.818726719510183 6.786515770431536 2.044247858712609
Co 6.222886025775458 2.9697973429824702 5.63427261212805
Co 2.867483243169551 4.903678434695375 2.9664616870624534
Co 6.956529869433062 4.987555192865886 9.238812418874467
Co 6.698925226237564 7.355516537862775 9.220883131528499
Co 4.843512414815694 4.936158155438957 6.111950663270468
Co 4.2735099582354685 3.399794787598124 4.303618240398581
Co 5.2506142357150125 7.283351231047738 5.470251979397995
Co 6.689510656518881 6.196048232057181 7.156370595021309
Co 5.638650924502102 3.6480753434255213 7.867503418785678
Co 5.186825627609549 8.041324066902455 7.630849329512008
Co 3.2569931590569694 6.886667066154351 4.352841417784243
Co 3.9601283217700907 2.7563925047290514 6.513619257319224
Co 4.812341687322173 5.83328214704101 8.483112368726553
Co 2.6728959517140103 4.879000821207216 5.332655836435803
Co 3.045432011660054 4.544557981551574 7.64752424703165
Co 3.361031105868047 6.738021909399954 6.783908871931956
