20
Energy = -110.4457106 eV
Co 8.612784831728778 5.596032890745384 3.7111360351282614
Co 4.528276795372443 7.8870228937121905 6.163018209531524
Co 7.734861796028499 5.599694581402644 8.291631822124854
Co 4.969183193177414 3.807939123907721 6.029875126431812
Co 7.343719014078806 3.722992545605036 6.793717432945101
Co 4.88344604337816 8.136086053071688 3.944396857169344
Co 6.696507022051108 8.636066588813433 5.563914360878714
Co 6.776787975472292 6.8898593124723435 4.0798380051244605
Co 6.792548943698808 4.675931420938347 4.807467557638026
Co 5.600213193767482 6.542566896322641 8.953667416786699
Co 7.609538526890451 7.602326444831286 9.42237024883619
Co 4.735830232038967 5.933712346551943 4.845881546356028
Co 8.229780512163869 7.657658240345922 7.188623005884481
Co 4.159565107045981 5.775464747382321 7.1727552096189715
Co 8.83580565970133 7.63401464872955 4.938777570627398
Co 6.0877038735198195 8.494835594318271 7.85113300900916
Co 5.681343648193286 4.312444639123732 8.17503822353309
Co 8.602120653557785 5.626625282448903 6.050839847728708
Co 6.36041697230723 6.365408338628041 6.521819403246768
Co 3.7842913342085183 7.774919936286915 8.314317960909449
