28
Energy = -156.39607825 eV
Co 4.668684481485328 7.6562063991524285 9.237796188724717
Co 6.733734519636611 5.813916061467255 2.719699349360203
Co 4.4429602241018085 8.77950462079532 4.621828455768491
Co 4.765865587529373 4.5086683934339415 2.5644619336724244
Co 4.414077645373963 6.70777152659176 5.601456631843446
Co 8.436482285313494 3.9235484711156308 6.547181733717216
Co 9.631787310667287 5.6617897197914155 5.7270716936526975
Co 5.063982826692402 5.307126992387487 9.221388179400254
Co 8.723016886237973 6.600932602375314 7.72742910889457
Co 8.278793117276221 7.965676483045202 5.920546929555045
Co 6.950279130829124 6.817445467809081 9.597040287484182
Co 8.504377678144099 6.746875562113949 3.919132756676191
Co 6.007294056485727 7.094972849230947 7.447407228885193
Co 8.062301790877552 4.418224833903467 4.213468935692782
Co 5.4241633809199765 4.737267459514837 6.9051159204685035
Co 3.563753954244811 6.2119358058550995 7.680146576607115
Co 3.583091489261435 4.591863453735926 5.437407632151905
Co 6.242554357100567 9.061149317602304 6.163184999800648
Co 5.686963251592698 4.811523056328123 4.553028703231962
Co 3.462290236099503 4.006381731248002 7.775268653478627
Co 7.321437265305982 5.846671669200107 5.886713016258685
Co 5.283849906995783 6.544083243080883 11.102369360262566
Co 4.152943276582874 8.508763441167204 7.0334577525727
Co 7.288628792778501 4.940039593678541 8.254313152531191
Co 6.364225121036077 7.554428886224759 4.411897001841922
Co 7.5955985826742705 8.596272956768207 8.142334618283941
Co 4.512148589046075 6.593970696920053 3.320265770388271
Co 10.026059950946268 5.18433440069921 3.4599331240296425
