23
Energy = -127.71797432 eV
Co 5.145651935299471 8.513483129040504 7.216206343323176
Co 6.667580422086107 7.250428341610648 8.409742915381317
Co 6.5303778839549205 6.803945354626944 6.056926972281281
Co 8.398760601312237 6.020330638360445 7.498763472976682
Co 2.8043807987903837 7.6711446661805995 7.500368409453288
Co 5.697421038772677 8.78301574014425 4.989879959364084
Co 7.373043655061793 7.644680336095899 3.8762746721601613
Co 8.77013405188604 6.4310892762081036 5.258156832677708
Co 3.952242406337698 7.302333648610104 5.630248886364602
Co 6.390083675888364 4.938221277942964 7.943195894982653
Co 4.562439961958158 6.338552615016262 7.79827309240101
Co 8.158604003985017 3.5791235568185615 7.969137434694187
Co 5.203310065332737 6.811659868458071 3.756878356160888
Co 7.719262211383117 4.4208712415593725 5.954486596302115
Co 7.14644508966047 5.328525098623425 3.918390563915095
Co 6.4678105698026345 6.252966525771266 2.009723329494328
Co 5.127560758846487 4.9076656608654 5.608200302271268
Co 2.8687645778732316 5.428167669707623 6.4849506641262975
Co 4.241042620543525 3.9854933043222314 7.651668591249476
Co 6.107455557975761 2.948480104185323 6.764059563319157
Co 3.2661168698154377 5.522531807484895 4.212429135583861
Co 5.0833255021071855 4.564791417851943 3.1545754386279503
Co 6.357772104105568 3.1624684152293536 4.477078997374234
