27
Energy = -152.42196816 eV
Co 9.711812623522553 7.2320872765951 10.443955582530815
Co 10.211371857015894 6.714072408930053 8.088176021558155
Co 9.286247319266323 8.084949119211734 6.436139530382412
Co 8.545693373037585 8.210906768549819 8.703474952819873
Co 10.123881852828223 6.093424246014424 5.555097260645744
Co 8.401291774264104 5.848033741156328 6.979768371418632
Co 7.455658672181794 9.489363667790855 7.11179066044755
Co 7.074225399800228 7.532822989435419 5.623012121180664
Co 8.279493934346204 5.880713947124515 9.338970140850058
Co 6.266006151069451 9.006038944822805 9.23554084394344
Co 7.370868667538452 7.583929268681588 10.684691755893365
Co 6.5321637921520415 7.062259239316111 7.926267720848391
Co 7.952195367896049 5.673753261601758 4.543261433500834
Co 5.258255076873118 9.072302083636837 6.951045380426984
Co 7.976365794015439 3.842539469701706 6.032087680159019
Co 5.0707556242900615 7.909091389153519 10.964921655044252
Co 9.118620644252458 7.671801720173072 4.174923475008366
Co 4.431521799863347 7.626465821684466 8.74996973025716
Co 5.8034946623340575 6.028955604972403 9.91574340935998
Co 6.771455721830093 4.549886013401281 8.136507080207213
Co 7.78107375651463 9.573706671628974 4.852906585741878
Co 4.736810298673707 6.992325846495101 6.265727643064728
Co 6.141036592901188 5.149101568850413 5.978285965633758
Co 4.640150176481144 5.359266179283179 7.904961900657242
Co 5.593509862146966 6.447202218723957 4.113466692521248
Co 5.468414803208323 8.863414804804963 4.665681902067477
Co 7.071307163784138 7.933092079881986 3.1918409293324204
