27
Energy = -149.82953839 eV
Co 9.99121628860767 9.803796879256113 5.879462298758078
Co 10.338029956795115 5.956352640661216 6.310667819547021
Co 5.269241743389698 8.517778929943253 8.689349697255409
Co 10.77150963552931 8.124097832171005 7.390597929612931
Co 9.067215109674382 6.3127786557307575 4.334675861209787
Co 6.395009863085056 4.164099545848213 7.36242779180687
Co 6.965901615010732 7.374572258421754 4.910290780257381
Co 7.5530527193248 8.018501442620451 9.68613425917972
Co 5.623655807295568 7.027662423289476 10.481938667950601
Co 9.050685635115522 6.732357320401669 8.205879801083583
Co 6.668620818451612 5.997469071289599 8.656193863808125
Co 7.027770751168503 7.9036722488849565 7.29101447255252
Co 5.01651514123702 4.570939870775258 9.242731028529574
Co 5.640583450946554 6.118293129828759 6.340363060802322
Co 4.123043390631693 4.464956295253149 7.159827107031082
Co 6.412336911555691 10.134526713749123 7.459014272956882
Co 4.314906875433118 6.507455872917636 8.193905936785356
Co 8.99225539551777 7.779650753602595 6.000530918414775
Co 5.060837564571925 8.48207588770451 6.18604313955908
Co 9.863305454117192 8.321479968178313 9.66819187576624
Co 8.746245933116732 9.33892609847329 7.9154398328412
Co 5.976477334112084 9.393333937512123 10.802716215814861
Co 11.039105403561017 7.7699406778565265 4.818576615841473
Co 7.449354188134225 9.52544772795297 5.559106211726107
Co 7.970410601436385 5.632085751076665 6.359037804185239
Co 6.4351056780742 7.995100103322436 12.386797048492593
Co 9.106407567605169 8.782840618096323 3.906832613377107
