29
Energy = -162.62541955 eV
Co 2.457059893864685 5.7434444831001255 6.271705603796535
Co 8.884256526207537 4.33464850244185 5.005332327963301
Co 7.1726906589970385 6.881092692791722 2.2732928165633917
Co 5.268737491028027 8.589535000469013 6.476485726465391
Co 2.9153596120374203 5.473221746805898 3.837766377069977
Co 4.900644582007521 8.40183602175292 8.760197246615867
Co 6.567068155585027 4.286368639448906 4.944926245272785
Co 8.012611249731606 5.7469373216131086 6.6725755055975675
Co 5.799991378775276 4.5689652524949675 7.277956903552337
Co 6.015119213140232 8.006539507310464 3.99940592319159
Co 5.190908544777186 5.7770712012970655 3.4431055657915604
Co 6.668810163752953 7.196108225145103 7.919712154017585
Co 3.5206380731950087 4.169383780446748 7.5768036511987145
Co 3.830278246589573 7.189444542017386 4.984395631231117
Co 7.917594932855652 6.399887662173305 4.386145645766312
Co 5.74101230213323 5.316854939716398 1.366791864501033
Co 9.271112656496088 4.244333799682765 7.661155493825725
Co 4.287679319967581 4.625751464305058 5.39698436247795
Co 5.925915466188903 6.440858736712093 5.72865564771866
Co 7.301116598338874 4.57019529842367 2.7891782858958547
Co 3.249305942948392 5.565647434882414 9.330225721159078
Co 7.322647933702489 5.0384543003448155 8.86669828466434
Co 5.053544834818038 4.098308128076281 9.401303280742493
Co 7.599628222157582 3.1875050640842373 6.7394198994177765
Co 9.303289876442934 5.470222531157725 2.8910333271512876
Co 4.273925042783574 6.555544199183565 7.487736150260782
Co 5.396183696019727 6.307305456013865 9.661746519859552
Co 7.534913686845059 8.128555596848422 5.904128020212323
Co 4.289655363187438 9.357678135834133 4.616835482593611
