29
Energy = -164.10984353 eV
Co 6.53864180170373 7.017482046837297 3.3514363517154
Co 6.894757924497305 4.731324493630979 3.9154913861742435
Co 4.665776243545947 5.677261939061586 3.578168029956109
Co 4.564430300996821 7.694495104660924 4.802111379189614
Co 8.370689374964636 6.428556763484267 4.783168717867249
Co 6.8089500575636945 8.19102932067562 5.266635715178911
Co 2.8245889030106963 4.265809255411281 3.489409168665109
Co 7.287057481818635 2.4475631200187156 4.026316927165176
Co 5.02851414333662 3.363478279442574 3.698744928607838
Co 2.6969361794250006 6.343022948259034 4.711120928655165
Co 8.987397971674916 4.075807517068947 4.469482447312543
Co 2.783349795541256 8.515988048257269 5.9908323822683975
Co 5.940067302695362 5.89738585915796 5.805144608457858
Co 9.043000390927915 8.627179499924857 5.652895543356021
Co 3.9180442823023878 4.482472046014289 5.478117650029625
Co 4.996007793976523 9.488452593817371 6.23788489682599
Co 6.104243139970024 3.385200298419551 5.795577219146248
Co 3.7796002392887806 6.547217999552158 6.790679589379514
Co 8.239520783140796 2.477753423683612 6.124256100699303
Co 7.320004100482491 9.452121248044028 7.052033636796711
Co 8.026564338814763 4.749255561924113 6.435026896097857
Co 8.127765319404594 7.1165184669071 7.013658675531144
Co 5.825509620757854 7.7345204462236685 7.504738834274872
Co 4.9089416505838495 4.52968639209828 7.604137403178774
Co 3.745848790689487 8.533449402249923 8.062614839887397
Co 6.818040679971265 5.699675727903252 8.34434565575018
Co 6.936136534288268 3.374316265066992 7.9922332179803925
Co 4.61872960749512 6.397005488068768 8.975509674965174
Co 5.691938179403768 4.358946498985049 9.776983261366574
