29
Energy = -163.54542451 eV
Co 9.70671144502541 9.245098239612664 7.40644725018008
Co 9.255869454888224 8.360239194055728 5.354096581877207
Co 8.17203148838038 8.06905734648785 9.131981914964058
Co 9.087560305210564 7.051022698062135 7.311337813628099
Co 10.522593844026721 6.499224012438511 5.561055831826179
Co 8.68802501565047 6.2627710646086046 4.143349171751516
Co 7.495072945794975 8.783145133432932 7.069995021529525
Co 5.315680511186393 8.588937344197824 6.437838199324941
Co 7.096766597033638 7.743533881427552 4.796961250772106
Co 5.950387726496029 7.530801694592615 8.689731132290879
Co 8.73723915021499 5.100910491366891 6.108539043122673
Co 4.969808408990273 6.808515549031446 5.015002532169324
Co 6.728271825498399 5.038002473318644 4.721319826748654
Co 6.691672533174394 6.482078873328312 6.754038030307502
Co 6.0770656803751875 6.431966592319413 3.0755100057490035
Co 3.0952579641639466 8.024884479568541 5.332391434441342
Co 7.670089366971905 5.732189126562057 8.662771427059363
Co 3.8003230647975426 6.486945424539097 9.482091133075542
Co 3.998804432546318 6.9433492127199745 7.303354103809978
Co 6.938827780266142 3.959625505379776 7.098208469254816
Co 4.308199397632962 4.731330532443893 3.990418038012317
Co 5.394856162467784 5.245253868027626 8.577124481614932
Co 7.971564708883564 3.1307607365912458 5.23812186002779
Co 5.618622362554607 3.0394014081099274 5.110780993195464
Co 3.6008780639068765 6.782533979843713 3.2417752092601573
Co 4.868394378105907 4.746336843129835 6.3990602285150935
Co 3.0193364196990307 4.886889951695965 7.7237002162531265
Co 2.8378175999587083 5.739632533674157 5.530537268801055
Co 3.2223005175907664 3.3955909609251873 5.5724906819295486
