25
Energy = -138.99907878 eV
Co 6.914535348629985 5.14992769508999 6.524672214019685
Co 8.347997713701979 4.616238822151394 4.8022983226267595
Co 5.4828074388193855 5.560363201082811 8.459077699623643
Co 5.632454530602302 9.263985131673326 2.7252707831015544
Co 5.991170632562401 3.7943251344955033 4.982810399398489
Co 3.126736422048195 6.7958919073640285 5.686000310664098
Co 7.711089001515278 4.642376890250163 8.70138748580714
Co 5.427655844105534 6.971998599433954 6.318511225435822
Co 5.934856730064626 3.3655104891755423 7.623106446896515
Co 4.408484307556307 5.451854847802767 4.291256516613557
Co 5.32841854509303 8.165459610082516 8.383570442146
Co 6.597949718176273 6.139382393146129 4.352448009024291
Co 6.962072070698405 8.470447534980787 4.339122369030236
Co 9.249722551153118 5.420429163676729 6.884871023621394
Co 6.535122969854155 9.026964038737672 6.567273216485254
Co 9.83701400228479 3.9259111572465035 8.493313643782539
Co 4.451614524426988 4.773027298764262 6.506679854168562
Co 8.091690209338884 7.173499874437113 5.884372042933626
Co 4.136649691864302 8.861608072739452 6.387351094794451
Co 4.693591283470547 7.839552662405844 4.209804914624686
Co 8.257526668668845 3.2852611719589024 6.804513323115446
Co 7.346936072267561 7.023533263639476 8.070707723862004
Co 9.352312552837958 6.25192721146654 8.985134793486075
Co 5.315407567268433 10.086041770609667 4.836948920807636
Co 3.6048580091315223 6.683156463730151 7.918171630071377
