23
Energy = -127.68447808 eV
Co 8.756429845076227 8.824705957076599 6.365127835233773
Co 9.031080798059898 8.344339848088214 8.651372603811017
Co 10.87801566542515 8.48575629342257 7.126317179971862
Co 7.431998678701376 7.328955063476496 5.102214032794063
Co 6.768473417431311 8.714261592297552 7.699880937502683
Co 6.656239853260075 9.55728049345374 5.557938604991191
Co 9.820226310490748 6.821946982968999 5.776747448962507
Co 5.524456734905042 8.129924762301334 4.071045479230171
Co 10.432740086082143 6.499337310044277 8.045783526253597
Co 8.22018288298265 6.711070397638228 7.346780199921997
Co 9.201390057208062 4.609903917607198 7.330494444067321
Co 4.593092849609854 8.505756190026469 6.138617240189739
Co 3.381426947816473 7.365316982656664 4.475946575481623
Co 8.686123219905868 5.683602210964219 9.390738625359509
Co 5.290483917977229 5.9328113905990225 4.720310287332721
Co 5.8757223441318285 6.648410957968666 6.859043690105712
Co 7.381273386928303 5.0949699286355585 5.725995140597512
Co 6.950659052618739 4.775035694915863 8.033883898790206
Co 4.66572886528145 7.877563490344074 8.436158618476439
Co 6.674108976743922 6.920516748901221 9.219664022370678
Co 3.6646377006714137 6.293665372603083 6.437436340701134
Co 5.162267880943516 4.391329833291351 6.585592524009792
Co 4.711972279285417 5.5646146761341715 8.575065491573682
