20
Energy = -108.85303343 eV
Co 7.940730973939738 7.21690156865517 5.333598009388906
Co 5.619169166935129 8.940207217396157 7.99398497128785
Co 8.55116193740934 6.491316918995551 9.20857072969448
Co 4.92245335812947 4.138810490555273 4.9127015896271455
Co 7.10783982424634 7.184821254701016 7.533680185933799
Co 9.310188240345843 7.735675443136081 7.306194688789318
Co 6.602135851620113 5.141325906448191 8.505339582134733
Co 6.436780042751991 5.299013667506779 6.14561284993606
Co 4.807794389813614 6.586835011955788 7.702806063468006
Co 4.682149293627225 4.350720947222428 7.294733502199097
Co 6.117601174724666 6.2927632764356645 4.022103131383626
Co 7.850179848722612 8.79446537767949 8.9224059191532
Co 8.246121748200405 5.044579653814393 4.720608997045433
Co 6.1072481240045144 7.214085585164259 9.60362225952669
Co 4.454468752637805 7.849370771149799 3.982515945865776
Co 6.622681392509396 4.209385984478294 3.407713961317173
Co 4.2034752964131785 6.179438051655943 5.493348540856473
Co 7.546429131928801 9.308031344151182 6.582988205941947
Co 5.711817122141729 8.038338915884273 5.7785692869998835
Co 8.632588571119799 5.456926854235841 7.021915820671701
