28
Energy = -158.39191093 eV
Co 3.152837861093289 7.459359527029217 4.480141453065995
Co 3.218297649924441 7.188946372593186 6.836348270267094
Co 5.235764170457621 7.7648112879145765 5.3413405802380804
Co 7.60242036672215 8.315549228378444 5.065830719222769
Co 3.896869334073638 5.476492104767216 5.315943556313518
Co 2.817601521946642 8.270960953204684 8.769764539065223
Co 6.845962144459684 7.3512399702069064 3.2210798006887558
Co 4.904523548245181 6.274190367728644 3.391398035976089
Co 6.08379786332579 9.605722917877062 6.376771766040008
Co 3.6412502705954393 4.637733811346434 7.505020421694238
Co 5.351417281331999 6.188496578426429 7.1187384729134
Co 4.925775151329231 8.359077734789253 8.004216453097568
Co 6.863889126710546 5.857482000204934 5.142338815607944
Co 4.02371724496703 6.352894966426076 9.025882977722675
Co 5.647256059488203 3.9209749584166205 6.322433865492157
Co 7.150048648586893 5.002279969075943 2.959916887244962
Co 5.198394605254606 4.082088807911482 3.961164957434265
Co 7.133022197693455 7.7703297334102 7.253727738037773
Co 3.6424437809168047 3.2278692331572842 5.4825023730169775
Co 8.838624214562683 6.27273698050047 3.941118193758979
Co 5.769367230758478 4.410139392070547 8.604319387672874
Co 6.362322414183765 6.645757306292639 9.182124688409422
Co 8.999807690982966 6.909524023450729 6.221075420199935
Co 7.5963516704790734 5.431310880239195 7.500756145373364
Co 7.323181167215892 3.4099056904295835 4.741850814679965
Co 9.18433616117055 4.018998760139071 3.470681944993434
Co 7.657090113861957 3.198036856948951 7.119025554065999
Co 8.972159733677605 4.635618811080712 5.683015391722005
