27
Energy = -152.78341356 eV
Co 4.0224096330877845 7.206167046706558 8.956701075172509
Co 6.320935544086274 7.140780388202241 8.946071666714944
Co 8.75786771117343 7.069922377682424 8.912838000114295
Co 11.054487875968366 7.011222755224629 8.86623484259244
Co 5.072421996230444 7.442052093876832 6.881241226414975
Co 7.516409389441741 7.375637207102227 6.839571883059509
Co 9.961588193601923 7.3057714046805255 6.812094641132032
Co 6.306932782243616 7.673981098297816 4.789098402079946
Co 8.678329806367705 7.610449972405104 4.7543456319327175
Co 5.215073801062894 9.166415608525067 8.444638719726832
Co 5.105369139639408 5.374533827291822 7.956997080769763
Co 7.590983972934896 9.191474599432942 8.453483585630828
Co 7.478426615582107 5.210263506414972 7.942928934503516
Co 9.958451255636954 9.029879067016115 8.377983638226148
Co 9.856459685191405 5.244092290594615 7.889381088595455
Co 6.363188042819105 9.483082329250518 6.396350926469779
Co 6.252010971998966 5.519572605749256 5.887255258193152
Co 8.769243477685887 9.413206120510498 6.359369651185887
Co 8.658463866850369 5.455161017132776 5.852388725202697
Co 7.534730789846713 9.569650577507652 4.30564448156323
Co 7.4344513917222335 5.895369200587791 3.8344492196467916
Co 6.482289157479013 11.18618812719329 7.959462082295561
Co 6.254575529712373 3.474868176426808 6.970498339514669
Co 8.807106572932298 11.117051776616185 7.923269903839988
Co 8.580787373423334 3.4123011468393325 6.937301081223629
Co 7.618329487834588 11.37689487529478 5.940803412500053
Co 7.39727764011979 3.7317783986443662 4.961240692414529
