23
Energy = -126.25948953 eV
Co 5.626996447916031 4.9305164363296745 8.314795727194943
Co 4.798586617031166 6.376716017060931 6.635656525170274
Co 5.134863797439009 8.55952681201537 7.022649472450114
Co 4.863417218999683 3.1048806973552536 5.053993942123552
Co 5.418648009126154 4.664962173929978 3.43727864365147
Co 6.795378168937075 7.773319675443309 5.611509794065668
Co 9.127879016840664 6.2431031299621305 8.151597879181846
Co 7.475880675903839 5.572264438251753 9.560634970961901
Co 5.121938454287523 6.807940115137723 4.245369212870298
Co 8.807622602277872 7.5757158206120465 4.305916792925872
Co 7.332163153771144 5.932328963877541 3.879045957193371
Co 6.29378198444764 4.823746029362885 5.730393279256753
Co 5.100582086713261 9.080237821769014 4.750814546618336
Co 2.52100476830997 3.230020784901326 5.312908700816515
Co 5.98185398250797 2.9395678594936063 7.1721490377358235
Co 3.4892115764192715 5.246729604168655 4.8749165709411635
Co 7.76116159305719 4.4311853924173406 7.550239390849389
Co 6.824090335196979 8.161280483028628 3.312208504032045
Co 3.450184985058709 3.4356738566464666 3.2651462271530844
Co 6.856358034971816 6.879621840170367 7.799282850098805
Co 3.9613692629010786 4.140509110221231 6.879813923161087
Co 8.372095411667217 6.074170690663509 6.0266933631157675
Co 3.3807350214190737 7.693483338808065 5.49230974104461
