25
Energy = -140.09369151 eV
Co 2.256621253343884 5.909077863019651 3.4185041633330697
Co 4.540194791281439 6.105426627018421 3.4233618161163055
Co 5.866822998300909 3.9771398846454624 2.570369529463835
Co 3.588712005172356 3.931284118529729 3.295511423775242
Co 4.389411892457412 1.9707567348726434 2.670488358777274
Co 7.696741390189241 3.943244629496323 4.395083999892431
Co 5.5326398074968965 8.089479267861497 4.14212446542026
Co 6.882933381397669 5.985375099545974 3.5750324662502866
Co 8.871510951725226 5.8531294618827605 4.8828465862891095
Co 3.308057825842153 7.4666730025470365 4.909458314029525
Co 5.47070480012319 4.322011001694609 4.777172520443255
Co 6.136352254280761 2.1531193688885386 4.054398585715246
Co 7.327557281063894 7.43533020885783 5.3751154865642565
Co 4.091181646850051 2.5433549808655074 5.13140078305133
Co 5.229315812179482 6.395977520929885 5.823086578005317
Co 3.199413316828715 5.110344573257707 5.358881665485121
Co 4.789021313024292 8.548988765054698 6.460607537872618
Co 6.383763482847338 2.841310513174787 6.283691071905436
Co 7.182052662653303 5.152812465539531 6.4332173254259235
Co 4.55357300032481 4.123168298527848 6.980129522244474
Co 6.65606895416315 7.562912344782628 7.510661882853214
Co 3.4349849799024406 6.726015283709257 7.230459266694411
Co 5.36864031443507 5.877936854176171 8.222365283469065
Co 4.6665050527232355 8.030121731690755 8.705494970995803
Co 6.528254275653041 3.8960448436907082 8.321571840187627
