22
Energy = -120.92802581 eV
Co 4.266996841188308 7.705546797173724 5.073751306736711
Co 9.638025356500066 7.538352079775386 5.745897158226225
Co 8.07747056114859 6.053202778541797 4.92854557896769
Co 9.464048770755264 5.153728129569871 8.957325217249334
Co 4.784980879329709 6.2208357187087095 9.73982963225703
Co 4.698225584873995 8.476499742184512 9.161658585659936
Co 6.16311231189166 6.932643467101978 3.7538565362629157
Co 8.240940546131801 6.235824041878853 7.314583194370549
Co 6.588424053102598 7.6520089899934485 8.247962077692192
Co 4.272601172731941 6.966651569915976 7.507553400671592
Co 6.017525594557251 6.580230778426015 6.017566120014463
Co 8.163967655113844 8.062731194376092 3.7582878847738286
Co 6.524816655213697 7.472886740825878 10.532562511497991
Co 8.781086270474583 8.642392747901152 7.731376362412892
Co 5.300156604186894 8.916625306053692 6.722200583200966
Co 5.943949300342421 9.124439455180447 4.3815477938294185
Co 5.822897787701876 5.250995373531455 7.881723409888189
Co 10.039494927028285 5.330636216372372 6.268680019409945
Co 10.472122235064024 6.940216874068898 7.899121481855012
Co 8.707779419058436 7.287707636366549 9.541183183575258
Co 7.455147911848745 8.337235711151862 5.88072442031286
Co 7.256893637520518 5.513268922959474 9.556344617559676
