28
Energy = -155.1511324 eV
Co 7.536836471512423 9.865589420118434 4.908335829914328
Co 3.2451735604316947 5.222746814944719 7.932619978306631
Co 4.015699367877966 3.0448762687044946 7.43214381482802
Co 4.614523100163625 4.096747694269813 9.383724501346851
Co 7.099003852620445 4.51922440531607 5.174877671938994
Co 7.680924711224782 11.9682532805915 6.09207076756135
Co 8.928229923847772 6.252245491545506 5.508331988677458
Co 6.094176035329963 5.57834551825219 8.391834073860627
Co 7.963854451856812 2.7133220286224895 6.374637013477793
Co 6.172650930667503 8.103212873500864 8.355332117940057
Co 5.765304344151635 8.658410345006333 6.073450187322459
Co 5.048085274453075 4.800970588056415 6.358783098273673
Co 6.863299921338624 10.22864290867935 7.404295199435951
Co 10.331061371702603 8.348002724480898 5.592417261438032
Co 4.407224588820366 6.58853651392958 9.449462829590098
Co 9.921750426601381 6.971357444385312 7.482674697463967
Co 9.49274067303523 10.461670470513745 5.9384082064638415
Co 5.655382256259222 10.923104768539506 5.5518461335847835
Co 8.231341623899697 8.348556644863907 6.549824538324038
Co 4.528600873475535 6.999570410969812 7.152956765947375
Co 8.005646241623229 6.755153046705484 8.594949636305788
Co 6.716460244554281 6.5179621308383275 6.3045110862402645
Co 6.305556074784528 3.304862193274264 7.822202735642106
Co 5.746001668585787 2.6608866416333887 5.697230800572168
Co 8.254810019833906 4.84815371864283 7.232834625394481
Co 8.871659281087972 11.176398253285717 8.000534541300997
Co 10.475975099061573 9.300458709692405 7.673240763733632
Co 8.467564898982396 9.018640232233306 8.776292230600683
