29
Energy = -162.93966174 eV
Co 9.55235661214409 4.77443545622661 7.098107031718137
Co 10.470500547697153 3.85819795143549 5.22797998359483
Co 8.5944828593829 5.871815835164762 8.901832236044338
Co 9.056437829922716 7.274511317773467 6.995470339780946
Co 7.631109414585184 3.7083598102862605 7.85023052758427
Co 6.591916717099825 9.790830467253105 8.429001516803758
Co 9.220856443146044 5.735452596544134 5.0123035061207535
Co 6.944839667892956 7.43699619124943 8.579380150887863
Co 7.156201479470244 8.487530082189771 6.573322906510785
Co 6.102061077813171 5.207512830699267 8.788144793005383
Co 7.409302003783158 5.773865534786933 6.802592736785031
Co 5.632979860897051 10.052815183729848 6.230963196631699
Co 9.009560126122114 3.629147434993764 3.571200839835339
Co 6.699260134570443 9.207931772543668 4.28537873997393
Co 5.237014272855644 6.510005908544684 7.001954243569051
Co 7.368628597079361 7.095324797390688 4.757518889885811
Co 3.5552712993738838 6.4391373324888725 8.477476860335509
Co 4.810518033577402 8.5953962149681 7.8787752876514645
Co 4.0060334628883885 4.220270144360251 8.48211170526481
Co 2.637463279088856 8.541779804857915 8.260571137254914
Co 5.557651153501902 4.043963802871364 6.778337858380345
Co 7.704427280529262 3.882501667130327 5.438481618766806
Co 5.044091763783653 7.977875313539736 5.207949881139304
Co 7.394400103531648 5.257611740711463 3.464842338191315
Co 3.493910409469398 5.196465210908713 6.364944403784311
Co 3.1279479610399417 7.455699941008835 6.334080056812452
Co 5.728841697422987 7.093358151014398 3.15784132966554
Co 5.565935197093291 5.4407531285133715 4.9096483152363835
Co 3.6138213751714567 6.408313497648941 4.269365443319987
