28
Energy = -157.55775313 eV
Co 7.939555056517182 4.244090212924198 3.6359717524482362
Co 8.966716934186973 3.4900800697087284 5.722337688389672
Co 6.681397083446988 3.6599818854595934 5.460940455939884
Co 3.9025771386550066 4.343985936728246 8.973642090877687
Co 7.367092639864204 3.1940217867177316 7.597235589611988
Co 9.18475647511262 5.660997173204701 4.870130102486126
Co 5.0101662094518105 3.334523722487064 7.198310561244152
Co 4.413514958154909 3.7226478946977632 4.820084494121889
Co 5.949325140090876 5.418040400131311 3.8640157511346804
Co 7.9739661195010605 6.478831331854921 2.9390679845206633
Co 4.259132054021779 4.661522295400985 2.4923910391326367
Co 7.837928970934367 5.304867181712056 6.744535180416626
Co 5.34327100821407 5.506184124105669 6.2121074238497185
Co 5.812419792806814 3.0060339107732736 9.374857174814409
Co 6.196150728186522 5.825843307565755 1.6007553706031772
Co 3.1779319789636244 4.784678608917231 6.703100986358304
Co 4.526067561649923 6.9733254083264 2.658955163238627
Co 6.1217660755774315 5.07293048471805 8.441844659741282
Co 3.5059127605700255 5.758543175748893 4.406844822180367
Co 2.624115955876176 8.123200282928337 8.232123583496728
Co 2.885972472311303 7.096153834560951 6.247487716432898
Co 6.363109417352403 7.311167560251048 7.2992862536443806
Co 6.421767394125993 8.077597593300212 3.337108916226995
Co 4.190489345092592 6.464341860124683 8.090340729842275
Co 7.31035809486643 6.971661297982089 5.178878724025592
Co 4.876409145689919 7.596023983041463 5.044068322426891
Co 6.496528615502288 9.085515120412863 5.666675919648526
Co 4.503708663912883 8.675317346851179 7.029009333781752
