21
Energy = -115.29534232 eV
Co 3.1312850127221985 4.618301057458367 5.767151799478048
Co 3.3190561559680414 6.6574375082850805 6.876634451052174
Co 3.664876854699066 4.550963465363776 7.986375281236171
Co 4.884526943750665 8.222914668820279 7.82780451799587
Co 4.991111241058413 6.029060775029842 5.241411770588277
Co 4.611035750241346 3.9385301094983225 4.138408272107484
Co 4.348974089666759 8.31008225617547 5.604560453094436
Co 3.612438450624786 6.661681774759788 9.087054597337083
Co 5.790458436154625 5.671578897856836 3.0499789399958743
Co 5.8970555302701815 7.846807650318913 3.9696193650137745
Co 5.903608613549537 2.1630094294174467 4.976018668167838
Co 5.298905791350345 3.915555397075682 6.40018851066141
Co 5.431760497193794 5.9947230478453575 7.739676503007269
Co 7.689858038687725 6.3416073928649865 4.275812660300303
Co 8.008647935904674 8.56392121979638 4.701558926611338
Co 6.5221637238070125 7.627713341831251 6.240392239228704
Co 6.95698828094338 4.098711965754021 4.364144904294523
Co 7.235630891235629 5.334681395788234 6.457034935033698
Co 7.581856939703218 3.049946915417759 6.299438510613536
Co 8.86013593931019 6.959504535033313 6.145502060810653
Co 9.0603244296546 4.69508958556065 5.269563661629281
