28
Energy = -158.41401341 eV
Co 6.236281375870783 4.628230114455024 0.7936677054231577
Co 3.9601855983281276 4.236706903923942 1.0964789301644893
Co 2.6341910438710214 6.134456263300934 0.9586496863949588
Co 2.9906122091692535 1.8431642182268417 1.6065270296959562
Co 5.342025190615779 2.3745062169296354 1.9108936478734397
Co 4.87713927504355 6.360441545395236 1.6909401428655904
Co 1.7374785154339483 3.857443037825935 2.105293364395153
Co 7.002192437764076 6.2911394742247335 2.7221423483385414
Co 5.82197258976966 4.4235775902096055 2.9657515495400806
Co 3.670944554862592 3.278695724805553 3.183729369810888
Co 4.1140638072096065 1.0456864307437117 3.7329840978952857
Co 2.9427053307987405 5.607382913443636 3.0983027557150704
Co 3.399409341144303 7.771460112797668 2.895521572280361
Co 1.8327533611627247 1.9869857458402083 3.8495574678608317
Co 5.746022653532452 2.6422181910954965 4.474595824682787
Co 5.133988754622297 6.719966378194216 4.039934362150898
Co 3.492222204658221 2.5795522460107003 5.435598162595345
Co 3.0018012431724963 6.526737297951126 5.258290346570884
Co 1.3974285351941105 2.5163818788997028 6.32755194994377
Co 1.8683551569625554 4.2467983301508205 4.67127222164642
Co 2.6669497917775566 0.5350483842684859 5.846937259007334
Co 4.3453358107759525 4.713495867926243 4.885897034724492
Co 5.002545510430584 1.0278018290075706 6.137260369576929
Co 6.5960039751937725 5.046253457734515 5.100310222202301
Co 4.956832533331966 6.036432983675543 6.589050492650823
Co 3.3672474237311163 2.012072857317201 7.600373620334056
Co 2.9968935180031058 4.461071747801554 6.78677029945089
Co 5.293079307783312 3.5229533080583404 6.662379216421725
