29
Energy = -163.75468225 eV
Co 11.81349694063827 8.129431451096476 8.519215440320485
Co 8.668386471447146 7.742610756005529 11.12894570449347
Co 10.187928212773038 5.839713440375646 7.457911138198529
Co 8.518067786577621 9.250677898182445 9.378070424116045
Co 7.058739801463823 4.909577959545939 5.297932816456828
Co 9.860687095507075 7.268872310863856 9.221502640725804
Co 10.118740960987287 8.146276454496485 6.951409641519634
Co 8.984232032291946 8.769727770488418 4.958116619466253
Co 6.099990640790601 5.8023436240484205 8.547099446292936
Co 5.894932006168864 6.675794216619892 6.311863287788151
Co 8.531578692513646 9.828984036731821 7.091421369838351
Co 5.09920744516739 8.31010176871321 4.317545545478052
Co 4.011490481985274 5.67635740007436 7.5182141851796755
Co 8.035164056238234 5.111833407532702 7.418068591174018
Co 10.515679969918164 10.070277394828109 8.346744508372778
Co 6.406868386514852 9.45187431185752 8.080100285991751
Co 7.195300579564203 7.1401726132693915 4.169760263497127
Co 10.656208273064426 9.04464766207799 10.383519445555544
Co 4.7962165010084705 7.702660955331214 8.338040889007377
Co 3.655891033704581 7.028704173656363 5.693140288604453
Co 4.688228388824177 4.558124506259748 5.669096342234929
Co 6.882743075195547 8.8102957567042 5.8257910672146895
Co 7.783098929121269 7.556356023025652 7.79808438078795
Co 6.095674662386331 3.865262622246278 7.264253345266846
Co 4.638667278544516 8.981998137393044 6.479304495035657
Co 8.723820754312097 6.633093027447881 5.777130409027149
Co 6.657240691983546 7.819047926355125 9.862341452147113
Co 5.184784743949656 6.051013818867385 4.06554202901649
Co 8.087779233867833 5.941218837141807 9.694650240153159
