27
Energy = -151.72065152 eV
Co 6.728987570513376 4.833112902835747 8.258259644612552
Co 4.920581914730883 3.354217452396851 7.628969216442672
Co 5.565979704115726 2.1024677759046173 5.432272805922928
Co 6.895891473768804 3.7917224673331322 6.243494318195136
Co 3.427816912287907 2.464865583817826 6.191197879683011
Co 6.848662811263646 7.13174955088256 8.104068429891194
Co 9.001027470812014 3.9750296981751334 5.3880058407903295
Co 8.337316425401411 5.798904783859019 6.671159617414306
Co 4.610399348829244 5.7017266544230845 7.85942200863478
Co 2.8332132820055533 4.697585182505401 6.90593547091872
Co 7.22184832133104 3.079588104562872 4.0090605797025045
Co 5.086561400354496 3.4645095317912102 3.432413840186427
Co 6.106298163063004 6.192406276098627 6.076021659273406
Co 4.658127314651754 4.290872983525271 5.493545036191097
Co 8.821438827647867 7.928289823584853 7.2358115609766305
Co 7.571776818224013 5.3638998325582365 4.308622170073416
Co 4.711094594522893 7.97731959178548 7.093106508785771
Co 2.5936964890949787 7.013300489236501 7.4758575896685
Co 6.6535783551389045 4.731010608726878 2.293142991770715
Co 5.215189326018386 5.8114558069422095 3.782710296294472
Co 6.786791392613902 8.909754317946934 6.620370101666227
Co 3.6994735352357315 6.431867620770518 5.560089809052583
Co 7.8163078755765625 7.567266902753426 5.098579967218527
Co 3.014357780729501 8.604161528710133 5.698192800845353
Co 5.450173460299033 8.035976024218435 4.687237628626202
Co 4.886390151130657 9.948066477788208 5.809990179819853
Co 6.880578531365353 7.14243127759379 2.9860212980691796
