22
Energy = -121.46446728 eV
Co 6.602302971314384 3.7934457099207175 5.7666739794053035
Co 7.289994615231019 5.197104081236467 4.031544167769041
Co 7.508112954867676 7.050829230643049 5.335915802510308
Co 8.146856447164199 8.173123767991932 9.929237984985042
Co 6.641189744901311 9.25787787888305 8.552575084705774
Co 9.299958895286379 8.421122046735608 5.845588568751081
Co 9.40712524907479 6.370961310354871 4.259301279890515
Co 7.0106980511891726 6.216223250092297 9.226288465003083
Co 3.8033454699387956 6.771030476844814 6.727725748946917
Co 5.456674531801769 4.973894952102431 7.65205932958495
Co 8.410715887599604 7.541574366929615 7.7957662641683845
Co 5.5148772167898406 5.7992331771578955 5.483315352310267
Co 7.101963551281717 9.17428636080196 6.273879862907708
Co 6.070366407514869 7.223516118477889 7.353218359454315
Co 7.681702779925039 5.31574713330768 7.0569979080935425
Co 4.495848333338985 6.745378692024963 8.999221782910716
Co 5.849086262206149 7.995089037419333 10.244858661182498
Co 8.77370293374111 9.789764170495399 7.827032315866365
Co 9.79390043986549 6.210907726197921 6.464987359792399
Co 5.16966472012848 8.18085417300035 5.440271336692003
Co 4.508875459090568 8.801242532734832 7.713338760391654
Co 8.9163398628599 4.348146208822094 5.372505795367525
