29
Energy = -164.23567053 eV
Co 11.503753875207014 5.335405870060408 6.635460617561763
Co 11.331973325079806 6.384329652123577 8.738683614607089
Co 4.6438631740397325 8.376281678804467 8.584620153981279
Co 5.713803100633542 6.488132142702174 6.812255135705876
Co 9.107226693791793 7.144866877908025 9.216767257673629
Co 8.04918173482787 7.013647834241197 6.9378002220178825
Co 6.846199078546828 7.573161420251882 9.01777108944606
Co 3.786467351875391 5.094316612260034 6.01853725221707
Co 9.476344967327577 5.598358987900913 5.491779063124019
Co 10.455443330256518 7.348974155748808 6.828615046635629
Co 7.246288340709626 5.368843402273809 8.643110921868272
Co 7.343283794911536 6.102565053149803 4.662156030603265
Co 8.666686578469257 9.068078902596982 7.92311980274278
Co 3.3150505559756107 6.8290759650894906 7.510181318652798
Co 4.951645683049147 6.0233347153159045 9.02872541850528
Co 4.912616606987949 6.613019868802596 4.560433592730147
Co 4.394572987786357 8.351968121837388 6.119307973809818
Co 6.620190524438547 8.189254917926547 5.133440032613174
Co 6.409958284307107 9.00116990731775 7.249259925317323
Co 8.009377470891168 9.982956673869298 5.851627200640956
Co 10.84794969882321 8.688813249749156 8.625597536275711
Co 3.240214986250189 4.636076048469394 8.23519261652786
Co 2.7285950600705395 7.012074082053949 5.2541280163047155
Co 9.001174169998736 7.996692009267642 5.040954094704244
Co 5.40636041253356 4.232781613814331 7.51523790706921
Co 9.507026444648616 5.238213257229607 7.865737082014009
Co 10.2655142297927 9.573184005096103 6.332323016885253
Co 7.566199037213368 4.64272266639062 6.508713867112943
Co 5.766331490112489 4.428863035871265 5.070531199974584
