28
Energy = -157.73312633 eV
Co 2.9220542642379876 6.308445838982979 7.949197180270411
Co 6.41655718632817 7.59320993239835 5.0146786856078585
Co 10.293771471659355 7.202903830334081 8.021635831281147
Co 7.722997254618987 7.548515250263862 11.231744764925567
Co 3.8480125266823397 8.33997418126612 7.950097566633827
Co 8.43134765772142 7.694936828243682 6.5535442571635105
Co 8.244891068693134 6.042608974675425 4.87930184110375
Co 10.563357683668597 8.269721532045024 5.721326773976176
Co 5.196105112457989 8.030647629372195 9.776558194240398
Co 5.57829210630101 10.117845815944444 8.232240380209259
Co 6.124682189396833 6.07688386229055 10.601910558805974
Co 6.991467843453856 9.365064797127674 10.03330374154152
Co 9.04444146515285 10.059951866935666 5.957459603504306
Co 7.327136287491031 7.196785053703025 8.860411502587437
Co 9.056650443801523 6.040758374898796 9.802773290100664
Co 7.8891713211960255 9.555218497399345 7.971310235748281
Co 5.964512771615288 8.153730040673064 7.202680580215243
Co 5.083931607369267 6.125160754238336 8.411360910799987
Co 6.657009456633974 5.849612620874477 6.65336399023132
Co 8.74858627351492 5.5234505988390765 7.566982669527069
Co 10.29077055933667 6.028966312672393 5.936604334186485
Co 6.9983029580622516 4.803496754703036 8.89505669963401
Co 6.796844217634129 9.752951950478266 5.809292183460917
Co 10.280966077717967 9.510377797008283 7.799721022125451
Co 9.196568063975384 8.42984497763255 9.660193519438716
Co 4.494742919984588 6.678099464843278 6.1685312183857475
Co 10.225134667908636 6.906574425236211 3.8013082745773987
Co 8.604731728398274 8.366011885173418 4.3441594032552775
