27
Energy = -151.88506587 eV
Co 9.412817068083218 7.229672044048745 6.507822961287286
Co 8.592312955049827 4.487912639204185 9.431175595159937
Co 8.54997310725093 6.716134699886482 8.583588410714118
Co 6.772769452435821 5.743727096657121 9.756349999223362
Co 7.281783653374656 8.054400579768483 6.96671118173998
Co 7.778029722178757 6.24965514673476 5.323277337788157
Co 8.707368766205182 4.955162155005519 7.167959530083964
Co 7.998433629270126 8.49399387384874 4.774979206233351
Co 4.831124083457203 7.399856166465066 7.252289670466758
Co 6.55685423225198 5.906258461884073 7.479699805159018
Co 4.645256342754307 5.472539562587294 8.802426017638162
Co 6.683299796417578 3.7795861546366214 8.298110819154969
Co 5.725770242696239 8.34541264463385 5.22757252694197
Co 5.685301379941213 2.3163543594719758 6.612567540426281
Co 6.923972527251924 4.032023684787425 5.902027643835578
Co 5.354624972687064 5.975307593559552 5.275229300697807
Co 6.34517455015095 9.25065109072318 3.192160418534131
Co 6.817845831876106 4.6398148822862675 3.6402656277885876
Co 4.471873753791359 7.854461232609494 3.2454779641037406
Co 2.9821400179939324 6.0223517183749165 7.168730020419037
Co 3.4180198898491208 7.359221729642853 5.316887289860782
Co 4.666884138332994 4.306523758705761 6.894935586250903
Co 6.649261368025895 6.976892866765639 3.438807017496988
Co 5.032417440868678 3.5877381548134366 4.603390934441797
Co 4.627833790941018 5.542330020914332 3.077175658266049
Co 3.2237941377600348 5.044888106001112 4.988522522129528
Co 2.5473176499311974 6.539384076810306 3.3541139149847994
