20
Energy = -109.46594934 eV
Co 5.0891808768619535 9.335504143249308 6.806224508498565
Co 5.353905415025519 4.683964697584103 3.197576111268645
Co 4.5207049997692 8.077382423767297 5.059169401650141
Co 5.965872156273747 6.206454276022564 4.877782826749342
Co 4.451168821742263 4.943952377798228 6.406306172724223
Co 3.7047087825247087 5.848407484615133 4.375888499631323
Co 6.793806214385324 5.192934384123404 7.069288998848962
Co 5.164846883491828 7.098151760401353 7.104274768446082
Co 5.072138843282637 5.5071800161438365 8.634923918128406
Co 7.242230438050411 7.349852708597916 8.167104461155981
Co 7.687124031954976 4.954216813514534 3.775395234287455
Co 6.204800437780731 3.8414383387132043 5.174188994789346
Co 3.0086586988709945 6.883076194835054 6.294970651261481
Co 9.049955834363713 8.045411116829882 6.895789912023531
Co 8.44551529181187 4.155435751921365 5.804872511903471
Co 7.306141004521145 5.409009905447496 9.30248493691953
Co 6.8997111578472765 8.294208563379021 6.0200890286586315
Co 8.956336006785088 5.823639682361186 7.6208408088607955
Co 3.960785541074144 3.557927145601676 4.60200371117092
Co 8.236416916069388 6.418968247473859 5.48563529858818
