26
Energy = -145.52215213 eV
Co 7.800865700678999 9.30306878896936 4.983492716335557
Co 5.200282768090299 3.4991625311748975 4.8888164322457754
Co 5.72865802958286 5.925944853390821 10.297391417398211
Co 8.117746563620992 8.091137418029843 3.107041330867057
Co 5.218880497311297 5.522016829580787 3.5924119669106305
Co 7.331181049623674 4.5838067693568805 4.670314402888834
Co 5.727188903396317 7.937600755101071 6.740048834363833
Co 7.815578043682955 5.537373269549262 6.741321066220968
Co 5.585674810349072 9.165191206522305 4.610390185274103
Co 4.31466703738453 7.281221237152405 4.870713018896005
Co 3.1611377607380167 6.514116228299154 6.639292252258951
Co 8.95732036371789 6.369019191844235 4.750399966358032
Co 5.817556192276297 7.706576070542824 2.826930989398086
Co 4.015947636642781 4.212517897987914 7.202567328292598
Co 5.487107696753649 5.563173648283305 6.146748182575267
Co 7.481030542036063 5.916817174910259 2.777621477692367
Co 6.370287139485565 3.7380403577938304 2.8141656831133686
Co 8.123434495557772 7.834117547067595 6.633744033347671
Co 6.808026783249285 7.084534628684406 4.8043327331235295
Co 6.2156359977773 4.6656752268818344 8.361765917189093
Co 4.286062664782396 4.297490552142598 9.578692087792207
Co 6.990516666709126 6.908615464456046 8.4737828271962
Co 4.6777313918940076 6.410381501221021 8.340314167058526
Co 3.391657780895601 4.931980757205937 4.993289333273079
Co 6.709846181504664 3.3274339849121586 6.573130105317468
Co 5.188419447493731 2.5872706144899005 8.263737943768119
