26
Energy = -142.80291028 eV
Co 4.786399146453067 8.731522822613181 5.290215908373792
Co 6.219071858631237 9.527334471534587 6.9241243200604226
Co 6.969270353178372 7.912537051169974 5.483810970178865
Co 9.177045460060068 7.0620561220603815 5.760099952358984
Co 6.080760110683775 7.431540221468082 7.667957249945185
Co 4.685834943619831 6.55252811610666 6.07873343195729
Co 5.463594112108293 7.029608546841615 3.820785277800821
Co 3.2453277877901168 7.157964932906022 4.256120020084164
Co 8.171354833172213 8.281554932145365 7.578120613426344
Co 9.713645717909264 6.677757562490495 7.997938610405017
Co 7.437917771927428 5.841793129836505 4.55091161852968
Co 5.184440319675651 6.343137262190776 9.455564064815583
Co 7.493066890209868 6.366527692806988 9.122580470923335
Co 3.7808395186600103 4.7061293226153245 9.754955143725892
Co 2.0016251439071584 5.451942128040155 3.3588795479415983
Co 9.315643480576455 4.759026505336055 5.329306804362207
Co 8.00193653208357 5.5193302852991675 7.053031908505552
Co 6.2745376695527915 5.178768032963571 2.686490776193695
Co 3.615961097584977 5.2689350615202635 7.687439346731114
Co 5.866480381543266 4.948563752253207 7.705038959839507
Co 4.18168486105078 5.021109322842777 3.691454966504624
Co 7.998533273802595 3.78102230129423 3.6514479280810606
Co 7.082450327197691 3.849075198356141 5.79879709602377
Co 2.7193642388822123 5.270943026836387 5.548720576152792
Co 5.776935464373467 3.2528788045995394 3.896689170336124
Co 4.7381172217049174 4.058251910211464 5.832623783082154
