20
Energy = -109.44217298 eV
Co 6.195248462042057 8.297655352766311 3.5687183822761734
Co 6.008355163708182 5.98085444125646 4.017937722191631
Co 7.99742629038001 7.25001911270521 4.525253036437233
Co 5.839892135477634 4.330994318186247 6.009060208553375
Co 4.654941765800401 7.525975706584884 5.116523073053425
Co 6.614543452707345 8.816857127106656 5.7855837084018615
Co 3.993434063120945 5.210057825505413 4.874476669866006
Co 7.900996435997509 4.918072305026718 5.081631466173986
Co 9.888724796878396 5.98853108491378 4.910576413629969
Co 6.5060016089970425 6.565592242476939 6.235373162735212
Co 8.194849322039595 4.175863088849287 7.249119247896627
Co 8.791568493499737 6.366830810600836 6.799670629527835
Co 4.319197225723794 5.923739586532873 6.99568141006702
Co 6.465311246505015 9.7666556090059 7.908334164104417
Co 4.948855393855249 8.202671940883878 7.388506556913963
Co 6.432060854918 5.2328102912244505 8.158928153690828
Co 7.21426333049839 7.681404320786182 8.190340396133664
Co 8.466913019364778 5.942777830357416 8.991138899349405
Co 4.340482700206816 4.870944585394922 8.947136539034972
Co 5.224769193409337 6.949527374965339 9.243845115092766
