27
Energy = -152.1400609 eV
Co 8.59072176583762 3.243169333207157 6.258001081986622
Co 6.989765087942229 4.1345284067130565 7.581817586126892
Co 7.228739818678297 6.495720174430145 7.176476798579977
Co 9.109438971918712 5.464523439983003 6.367071821720734
Co 8.919233182181983 4.709859670087063 4.143025668140017
Co 5.7696467098900115 5.640868690336087 8.884475194782766
Co 6.881705472612905 4.797090625776544 5.328378319802468
Co 6.025523637121897 2.6667817310983626 5.9978543630577015
Co 5.5125016680083245 7.801462907693049 8.12705000731736
Co 4.690384158779807 3.852971865067631 7.617910083048505
Co 7.956160504392636 6.9683312819904435 4.934052821946601
Co 3.498587455356705 6.301404115730756 8.348667252925091
Co 7.607005177966596 2.784060106853255 4.237552691545465
Co 5.966800555761604 7.945572605997569 5.715737690553821
Co 2.6876182612560022 4.765751162157684 6.825965677885955
Co 4.963284287906393 5.958867874148752 6.620372750849126
Co 7.942685217385767 3.829251984240341 2.227401133476327
Co 3.677639604078247 8.004920650524218 6.624684104776293
Co 5.796584500221758 3.910125574825505 3.3914914455210985
Co 4.398135879782498 4.149776028562155 5.242667431510283
Co 6.445614483317625 8.024791952368592 3.4434613885908534
Co 1.7020121789218199 6.925131380563838 6.982059882003529
Co 7.142209316109695 5.789247660776363 3.0651312454327755
Co 4.148970895042301 8.289705971066335 4.31208890598243
Co 5.152164912360178 6.206667128850673 4.170500629487043
Co 1.9328520862195766 8.333997767926702 5.087454839526729
Co 2.997492662658095 6.302837895768657 5.113276239300916
