22
Energy = -122.54011436 eV
Co 6.44935428339712 3.3600301380006337 6.495750421023755
Co 7.428809968820071 4.379127399143307 4.392324320465479
Co 7.440852203994704 4.171434716578173 8.568224621255906
Co 5.433553577726386 5.186227319409337 5.377369632796106
Co 7.727096468762545 5.208457960738818 6.461228294961078
Co 9.20622935866448 5.995684611009598 4.79396101316066
Co 5.480370587642105 5.0749672695773045 7.799504656061479
Co 7.062711708991764 6.7127379504883615 4.4168306009317675
Co 3.809010847711569 6.551367778083029 6.691178766915515
Co 6.134765840002177 5.658338480305256 9.991500481957862
Co 6.052840009031177 7.043355735201943 6.5623131168723745
Co 7.552900139096801 6.532721087756701 8.483071861937324
Co 8.761896976357612 8.355380774804607 4.415413446494418
Co 8.50139362385031 7.50293162889846 6.478373001402459
Co 5.144783650065682 7.331882205783431 8.640942844421446
Co 4.725964927790211 7.493517579558143 4.736978220304926
Co 6.68075787007844 8.90519745128067 5.394722274551767
Co 6.929047172033385 8.063390103916648 10.00758506170095
Co 8.572619260447967 9.748296919697022 6.533782993723972
Co 4.557463811287732 8.788046822447788 6.698315145489886
Co 8.868665135618713 8.49326578167716 8.59636651369724
Co 6.760336443977376 8.95216753377618 7.824593980488925
