24
Energy = -182.54257989 eV
Co 4.105298835458643 5.258174964933918 7.39703441326157
Co 3.321074369930325 3.794456356779292 6.263865540056243
Co 3.691196596498185 4.00622566914799 3.877325095751733
Co 7.526846539992615 7.24030758639588 7.326717039103369
Co 2.8367350987867677 7.324489127512295 7.305162275806852
Co 6.39496351804277 5.530719347479909 7.844843651176468
Co 4.791177083728514 1.9530315639442493 5.1126592710935315
Co 6.402067295330603 9.276836039063063 6.115361337634739
Co 5.637599665444938 6.876515667312812 5.773439403385757
Co 3.4636574527195916 7.75792396909555 3.5612912047032146
Co 5.573839477617725 3.062365810606711 7.604520084460627
Co 6.303365742322467 3.5031006332211745 3.257679324639328
Co 4.853299620494302 5.709595262826992 3.374255977434497
Co 8.459028237226745 3.917200100981154 3.9075483171525014
Co 5.64801210278174 8.179265525609623 3.620546095206038
Co 3.320117673910575 6.113115795804891 5.252513275620273
Co 7.133921559086237 5.9590754721662185 3.8248977810993563
Co 3.961222156087525 8.425564455775016 5.627142898885395
Co 7.273573791086513 2.827441856409543 5.634391823870742
Co 7.88996825728093 5.157061181083913 5.9773580020898835
Co 5.606048219411747 4.340090769578644 5.478065226762006
Co 4.912571934157737 7.722010887132476 7.993394435950812
Co 7.730034580713985 3.491348236281412 7.705400758575091
Co 7.919382074049717 7.453022973679786 5.012991820797854
