25
Energy = -139.49172627 eV
Co 5.809855772038786 7.324976771196888 3.3064564319104717
Co 3.9314556636143494 5.556339114394391 3.7470633822890056
Co 3.809075652937979 7.678579444051487 4.386336633425768
Co 6.26739391869652 5.076256821994773 3.86127836509754
Co 6.147215302714415 8.718245572386895 5.109619159333753
Co 7.746472849076473 6.821019342556968 4.6301959766784755
Co 5.516368994574187 6.4754925227834095 5.64000064649615
Co 4.583364598151923 4.286648074668133 5.5603561899385285
Co 8.85248602263012 4.719383075899834 4.837383158418539
Co 9.741721075336638 6.840189657102396 5.724630649156576
Co 4.222551410970631 8.444518131658596 6.524120211290167
Co 6.910598304070276 4.102205221415578 5.7727109860630765
Co 5.67588517063374 3.032670564412706 7.2920930678101525
Co 8.746647442334362 2.7982769117290514 6.231624370058618
Co 7.801156006364815 6.101861814843623 6.904182649142951
Co 3.107936198227663 6.045820090402926 6.076295554470087
Co 5.653254387921624 5.2730066366564055 7.776872502863718
Co 8.004803066933691 8.468458226988043 6.502708916757405
Co 6.1593765650003025 7.595314165548587 7.563287067297211
Co 9.606352707271965 4.772005813452117 7.026440431491953
Co 3.55999882914447 4.378469051462589 7.588552189885862
Co 7.687232373571105 3.974528805083424 8.027241796178707
Co 3.8781988183044915 6.813730537139094 8.095154547704427
Co 6.098432350602864 9.842311800391833 7.181080094328963
Co 4.5897200118348085 8.967245324738172 8.741868514869937
