26
Energy = -145.7197885 eV
Co 7.894697451659959 2.7944680340585086 7.666413736650386
Co 8.054014568179793 4.9489965553473425 6.913803928432147
Co 5.657175676609921 5.650092774497058 10.052123422273606
Co 6.400694435311985 3.384415993173772 5.998694327535777
Co 8.669592603306954 3.3135465668499964 5.415802575874837
Co 6.238902614486598 4.188301082335168 8.311930229595536
Co 4.267797191704122 3.8983957454541946 6.759080238034035
Co 5.999806392354418 5.747099626076965 5.939205211658006
Co 4.455389497735084 5.7449354751586865 8.14329678077152
Co 6.739045756465979 6.558388998202977 8.174419035758625
Co 8.964588714491855 5.609264055738663 4.8979947830784205
Co 7.08442349241123 4.469642997460033 4.074398941956174
Co 4.727969449318725 4.353348280068057 4.441133497850719
Co 6.836135431237209 8.844068770520046 7.709073472867992
Co 7.157278309563124 6.849702582041347 4.1273669402803295
Co 5.1649407260799185 7.800567970895235 9.226955779301008
Co 7.919493960863446 7.2777829058980625 6.277426844211112
Co 2.5512325205680852 4.134034966585808 5.143508958355937
Co 5.017141354783229 7.74003673425741 6.885780907731849
Co 3.5836151795241724 5.9913856213836745 5.903341885519831
Co 5.454816521897024 5.891673911503402 2.8454201419092713
Co 6.430815506530593 8.783871570944736 5.344998913965296
Co 3.2167274324376534 5.899477260620318 3.5810145599732723
Co 6.162558613660248 8.44605649862931 2.8780570125443368
Co 4.716270478969162 7.4682742565272635 4.49169219150456
Co 4.118639333867846 7.695933979790454 2.280828896384364
