25
Energy = -139.80118045 eV
Co 5.4183755344286775 4.780373665149475 6.534490708076706
Co 6.102733630215559 2.506913075515842 6.941243408312085
Co 6.431287555900264 8.21095268103955 7.095120321948084
Co 7.5341517851491675 4.2261210783970276 7.573535711068131
Co 6.775957905362665 9.6744671996431 5.159088626958052
Co 4.6475625666836855 2.912442427187366 5.14547950928821
Co 3.209889281357528 5.150885164051458 5.82828744238154
Co 6.83147251798488 3.77022060215386 4.936114761842492
Co 3.7416393560424024 5.309317096856845 8.291507455669711
Co 4.299129067419475 6.997509405627565 6.842414589098725
Co 4.626886320869029 9.02870611046198 5.789345183100237
Co 4.861145622311645 5.021165231490066 4.159049222494021
Co 5.226253042135098 8.977813669327958 3.5884592910036583
Co 5.556340776094332 3.9568072541194614 8.779996831594405
Co 5.323959298172057 6.847896770893587 2.753008476235041
Co 6.165840782500419 6.196809160966058 8.218287840303587
Co 5.9458322118163744 6.968358035742417 5.104517442064607
Co 7.402835085302272 7.974054113335588 3.5977117997545314
Co 3.823401960077229 3.226100432087243 7.301362306587442
Co 7.8074696827487005 5.6927145167807245 5.873627132943778
Co 7.149139590563936 5.583637505742209 3.5179437586873417
Co 3.694207185824344 7.045500213771485 4.557656542617175
Co 8.318789923676809 7.997645883865029 5.7666665865277364
Co 9.134283791917287 6.510850591836134 4.167248618224632
Co 8.283112076513051 6.802637705258619 7.814168960395988
