20
Energy = -110.14101595 eV
Co 3.138076402275022 6.462230838193572 6.765881150758992
Co 4.57677349011573 4.529138053815159 6.646802899083562
Co 5.884990966979478 4.405425100148659 4.570412599231794
Co 6.7241091993655715 3.0791377294972744 6.46787882809835
Co 8.260582097898139 4.346806136160759 5.110544911253206
Co 8.478506653804748 4.3430737555259835 7.528087128540612
Co 6.219221337489442 4.386962744028227 8.478048497285036
Co 6.7260799931222515 5.330739220573107 6.471795573954196
Co 7.154253332546294 6.510305321798808 4.451967247019638
Co 5.062465398756083 6.472000342621365 7.960253389044145
Co 4.843840568794458 6.484491403116094 5.284609111358958
Co 4.536451686228868 8.420231833460113 6.665437248456635
Co 5.844479033951781 8.585571798787008 4.589533289328098
Co 6.702694499141635 7.656476082755987 6.48320241204088
Co 8.219811407853207 8.688324474262238 5.137486966300645
Co 6.168364082609982 8.573170943021784 8.495559064457405
Co 6.643523667290462 9.90893802274002 6.498605411433073
Co 8.429111728747575 8.673889793741084 7.555386973314709
Co 7.469833507931983 6.493754351825282 8.407297356105193
Co 8.753467727374465 6.517484305512876 6.305241545065901
