24
Energy = -133.72131166 eV
Co 3.1366841811152564 8.486552539705812 4.923089483320202
Co 9.40965282366853 7.621709536405723 5.291682933403791
Co 9.148194976506494 3.8794890437323586 8.45195990674416
Co 9.898854267027463 9.667364735542478 6.200214499133263
Co 8.21628193142309 9.443955783268361 7.86599165231088
Co 7.6795435826502665 9.303720877610727 5.631270688287093
Co 6.403597717567375 9.216490633481941 9.57939073014415
Co 6.9062814145262434 7.39975233901334 4.467012705123281
Co 7.686229646802481 7.203356402333675 6.7636006599150615
Co 5.977092778872281 7.008755422801104 10.33602853191431
Co 9.84216626173457 7.827968449721864 7.616881302676934
Co 4.634147497145782 6.921506976738145 4.179044210764475
Co 4.266508935633692 7.415698140933118 6.562397435407482
Co 7.879786490878134 7.483942758501438 9.138415944717835
Co 8.178678809536724 5.596497040379749 4.968915533033406
Co 9.660440436587136 5.989045570282959 9.186227924712338
Co 9.504865568450413 5.594676420550415 6.929924376049427
Co 4.450434716555979 8.04240434525699 8.904621333456967
Co 7.405127653356243 4.735353052543586 7.1903141995338755
Co 5.995944400933721 8.778107610227169 7.359818345758892
Co 7.466845003027021 5.221402522552386 9.429740436722295
Co 5.8619203759748455 6.393866603558395 8.113632576016489
Co 5.839147253051013 5.821342404875139 5.804511326848207
Co 5.3368624714649515 8.990868820203811 5.116767378971384
