28
Energy = -158.58674001 eV
Co 6.334373885796249 8.48679699227785 8.486993701112045
Co 5.122134218172968 6.495477756027315 8.492290068032062
Co 8.577071302419066 8.286705610324775 8.462441952959935
Co 6.191467575163801 4.42897561935841 8.422445317158083
Co 9.688933247244185 6.3422112950026275 8.489287470770238
Co 8.444602309048252 4.482143099301958 8.409083968671183
Co 7.540444155950844 8.948803650892788 6.295984432404586
Co 5.617263404942898 7.6635319263476 6.435551240681108
Co 9.375014938456262 7.520533175232866 6.305351851419036
Co 5.534368650171012 5.366821523032223 6.400855565550617
Co 9.31218714798624 5.266279669365145 6.27451444128994
Co 7.380800310003033 3.9793676723419673 6.221569539793855
Co 6.163105307697783 8.442808478982972 4.3233949567816135
Co 8.472084549662188 8.286267930743554 4.231127740518919
Co 4.708980620205608 6.574335326036829 4.465605790720502
Co 6.043860651929198 4.620120413436227 4.2676482630302
Co 8.359757088152062 4.644083347727036 4.171172475230751
Co 7.252606570349585 6.405515275545421 9.687275857536676
Co 7.537236530027336 6.4302602094987025 7.4712448968569385
Co 7.494020043221519 6.475243904103279 5.152724474511959
Co 6.6706299635638535 6.527859382475026 3.047229202918423
Co 5.488692279108396 9.957813379685078 6.7234684424082
Co 3.9291524232634716 8.735862843500678 5.389254289902419
Co 3.9565009837560736 8.525982482718714 7.7891326920317745
Co 3.4805889462368347 6.580451851984152 6.49877784714661
Co 3.8227716376944896 4.554794766116024 7.720007428240378
Co 3.7817086554867396 4.442365317985536 5.318018251182853
Co 5.265465054839487 3.077491608279985 6.592745397689765
