25
Energy = -192.58678197 eV
Co 8.765234934454032 3.136309526819674 8.072466115621086
Co 9.003294078720872 5.118312637595808 6.224300468707644
Co 4.760356087117385 9.897674788460538 4.702067706179951
Co 8.197522476306967 6.8398755041234605 4.202881634635432
Co 4.136146439328633 7.282413966148363 2.977267600624858
Co 6.447775154322416 5.184122582908465 5.324069309297779
Co 6.65101228549058 8.478805953774142 2.6274854975256714
Co 5.470440376025902 8.993899983554085 7.0431939657767915
Co 4.980382316883943 6.336225479847776 6.932340339787414
Co 4.447933107712138 4.5595651257829175 8.982697077315418
Co 7.641136204983949 2.926908000564279 6.0340659831886425
Co 7.429033824254344 9.231620676306251 5.474121880388196
Co 6.067501032496428 2.728031326202075 8.233276818082105
Co 4.859302189126445 3.613979511484799 6.385188264587565
Co 3.3166800512075354 2.695841570304008 8.200844108352642
Co 7.565074513353003 9.099078126614826 8.183410100237177
Co 6.319455508051795 5.985840708175211 2.803680257160301
Co 3.0107471375755774 5.1199046883218875 6.933845268963623
Co 7.052262508035699 4.846024041216254 7.867641614044031
Co 8.520930323751628 4.603319611485422 3.986816653225008
Co 7.593086380598609 7.152721570148381 6.654236242899347
Co 3.4781620530741555 7.62421523315373 5.715458821919784
Co 6.0202131006021515 6.877711014750948 8.768144301663654
Co 5.733674965470394 7.725127164804038 4.713538817869744
Co 4.079547795488388 5.4893760518847925 4.5038659963794
