20
Energy = -109.53901586 eV
Co 5.12171926933381 5.582710997815885 3.186113037617993
Co 6.930429508760319 7.119440022550659 3.440760708258877
Co 4.834047106960342 7.542856425471243 4.3622065945185176
Co 6.92763831522496 5.048943990434187 4.529273041652596
Co 3.350538993916003 5.662126721036871 4.70735439041184
Co 8.816148513137549 6.4446767093577595 4.902411844367757
Co 6.8909777818155495 3.222748888960575 6.039270447098111
Co 4.911739113853774 4.00409913122966 5.021038477733681
Co 6.758092056717791 7.101428114768657 5.746179059124226
Co 8.905466107650534 3.9984120072400415 4.961103240986495
Co 4.234010211781897 6.84012501881317 6.493607687384503
Co 8.185978762662469 5.143966368281268 6.711478653453041
Co 3.596880912944661 4.616560828430993 6.842034855476445
Co 5.333542146481023 8.919812369452552 6.2101563918985505
Co 8.407302267570351 7.273464250097339 7.391961127647699
Co 5.848240519058567 5.130939735108841 6.937500303297259
Co 6.1595094403035215 7.49814665729955 7.977971433305555
Co 4.1236307595435155 8.327655129212289 8.21617463071156
Co 4.570070084759562 5.965306386779354 8.681570032992358
Co 7.211450044648816 5.673992164784122 8.759245959188908
