25
Energy = -139.42222479 eV
Co 7.950206533422172 5.941931435774875 3.4825468596181866
Co 9.076654768846812 7.8679630081618965 4.063251196969113
Co 5.640766954892194 6.114763272080945 3.1283094168830625
Co 6.741781712490312 7.632271198781899 4.566948689701875
Co 4.260335838679521 4.691449175436705 4.378273192495804
Co 2.7578210981212097 5.593308066458581 6.054791275585525
Co 6.476623172908624 5.314133229902436 5.140890298094967
Co 4.53448548636512 6.860264449702601 5.118973349208473
Co 10.359545595094044 7.962286864327472 5.976832800434773
Co 8.121360057289758 8.862486006087186 5.968888873513234
Co 8.578057772991732 6.339585814535526 5.823238320022657
Co 4.750580119428765 4.674683933201218 6.6371563285230355
Co 5.470080596449008 8.788954682772301 6.222693185893943
Co 10.311830115375612 5.998183745348716 7.2524115048747735
Co 6.985597225570446 9.346115739052497 7.947537902742469
Co 7.023546591600058 4.450152539122501 7.21363671848403
Co 4.187573271818838 6.91950029069741 7.381290292635272
Co 3.3665795517910744 4.995200405049522 8.415728080583024
Co 6.670253868080935 7.027737619130979 7.114807853850128
Co 5.2441329706390665 3.511922886032385 8.535841970910624
Co 5.672309559777031 5.705664763385829 8.802051103122126
Co 8.351662738607455 5.649721415789528 8.52198993178513
Co 8.911727009950754 7.763860229613489 7.829145769480324
Co 5.1647353621535 8.371670505825321 8.783380460437382
Co 7.179997417384472 7.404434113456614 9.427630013878757
