24
Energy = -132.66299998 eV
Co 3.9480974335969563 6.116118884285237 9.48348600366084
Co 8.823237106016428 6.566172466863543 5.949865440959402
Co 9.577295398973542 7.463118471702506 3.96105625058395
Co 5.202743037060118 5.0476759703627 7.826369807956087
Co 8.110952882985957 9.266437132642508 3.8335800670457227
Co 6.756931791634081 4.434328525780593 9.486283878992785
Co 8.150277772938306 8.81156695119737 6.071260065545353
Co 10.16002904447772 9.381500321124866 5.106759805659564
Co 8.270508615425506 6.200379413246442 9.881102727974037
Co 4.035167642854377 9.125370991074885 6.22089819341562
Co 4.32858051218372 7.268654729970837 7.470027696894471
Co 7.807878899089416 5.427238047912062 7.736536102428507
Co 9.94568939622224 6.467552261332489 8.02241850626259
Co 10.955887090760621 7.346133176473886 5.9145893422407365
Co 5.672440013924225 5.6944596907542016 10.997962875509407
Co 7.20004355655047 7.194049996495034 4.327631837599615
Co 4.675975043396761 7.195542726055483 5.083910514845177
Co 6.017627298475699 8.869176454724217 7.484413028909321
Co 4.577812759252631 3.9854894386187656 9.86382789119445
Co 6.0285129799109844 9.040075519514335 5.116970000566062
Co 10.082960183758015 8.7597983612941 7.440171108019005
Co 6.121391497922565 6.798908456405821 9.027935776837168
Co 8.10010370478243 7.790658417888352 8.19554233392183
Co 6.427396793698914 6.831451658309323 6.487456432228831
