25
Energy = -139.92660201 eV
Co 7.363482532046752 8.99633235040487 7.2936429155896
Co 8.472806215476584 4.648373399279707 5.720073683065328
Co 8.327124626138756 6.833935112240406 6.605264114912677
Co 4.166374187815799 6.6932997104391285 8.94483932562524
Co 6.386102467006489 5.490272900553164 6.308369655125529
Co 5.0572612327410384 5.971894787062527 4.431988128236632
Co 3.1099280458120724 4.704483252876013 8.047601602570847
Co 8.031002410831201 8.563698424465858 4.868036444144354
Co 7.835030885647603 5.138758625394121 8.11203278600995
Co 6.37950660160519 7.0343010862170505 8.26888286295538
Co 8.521747148134192 10.453065706242583 5.986422161700569
Co 6.045743914038606 7.790959334447464 5.798270625405343
Co 4.546332042298082 4.106827860633293 6.100785681918125
Co 9.648733994754334 6.874060722826895 4.801194662823159
Co 8.612615609637505 7.5615731359083975 8.71105905437983
Co 5.428438311169907 4.798083217648293 8.366455154982887
Co 6.463510468197768 3.9981027453065465 4.557430367474086
Co 6.6547990367937695 3.2911674607341665 6.943223828626006
Co 5.981768715511275 7.907180361076482 3.520722698321977
Co 4.780250953364921 8.547621150843144 7.5140690736430615
Co 7.4713844402715495 6.245857988101735 4.260655246870924
Co 4.45062459866904 2.789103584807155 7.920258691783395
Co 4.107421001956861 6.393347602468468 6.695538237812049
Co 3.940784245996752 7.985461177440431 5.069068536242222
Co 9.702737708341468 8.667749696839168 6.639625854038047
