26
Energy = -145.51222594 eV
Co 7.330330064297648 7.444395201181686 6.771630153576924
Co 9.046898010219305 5.819819754404177 6.7553640182423536
Co 8.178953369886038 6.465619116487375 4.704091336611398
Co 5.024783977458888 8.438949829625926 6.408177481100692
Co 5.373028247219939 6.934830113068276 8.107534709453077
Co 8.420904448631656 6.298870506490993 2.395037472058805
Co 6.9765400788946135 5.287373386363545 7.597371144449598
Co 7.77585418739968 4.299393052520306 5.571217007907431
Co 8.462323362384486 3.542740904126651 7.602869021802134
Co 6.574877292752865 8.41339349535888 4.713634253400631
Co 3.2789558163625543 5.992537420538762 8.820325160491798
Co 3.62185814787376 8.30913365162906 8.463932973970232
Co 5.914932085267662 6.150860727165556 5.476262424930529
Co 6.201828386994881 3.103469628216129 7.0622561898948994
Co 3.29255784657651 6.953436517948363 6.702498975375922
Co 6.3891256578384015 6.964192474836295 3.039514107985977
Co 4.281811756380344 7.357778477078462 4.414410447202187
Co 4.660239788504875 4.809562629201275 7.3014579490015965
Co 5.533113224068202 3.727475654942294 4.951751214983973
Co 7.088330950171361 4.757218172395336 3.321849140636838
Co 2.3446544070163897 4.756331938480274 7.090388590464691
Co 3.5986468216941407 5.206347675847218 5.147945747426163
Co 4.789100055478643 5.263142516322906 3.146258437219493
Co 3.5611275897863672 3.289007503908679 3.8170711191775086
Co 3.6768400903525205 3.0231454328282923 6.160333927939844
Co 5.594999388714318 3.171054049092709 2.660273324804793
