20
Energy = -108.01446546 eV
Co 3.7654453180863916 8.271480028024003 7.872247878924767
Co 9.67939923330919 6.342363869303691 4.6038597509939345
Co 7.837888671225388 7.555776873739853 5.336042749583493
Co 4.439286411787359 9.937855240604334 6.351154830148147
Co 10.197347029662467 4.110580775470594 7.7079392789934875
Co 7.979812535147417 4.062442241842986 7.234196607278226
Co 5.3663866912279525 9.630610397811974 8.571783239862105
Co 6.998496937552876 6.187562603637318 7.227136145911349
Co 3.940733398037223 7.779627472694784 5.607420054886347
Co 5.595089141934426 7.1446344155873005 8.833381655532024
Co 9.29471452013288 6.039916240088072 6.797427109328437
Co 5.785239956714084 6.500033522842681 5.066687632375508
Co 4.447353102204965 6.031220426210306 7.155300146724193
Co 5.759534858464857 4.348898914039411 6.152801214821137
Co 6.002460088139554 8.313844386607329 6.852855988115914
Co 7.79344643851544 5.1293966423318915 5.149686777343699
Co 5.939444751801735 8.850457350684172 4.677013098913441
Co 3.7972905206629872 5.34734283689209 5.127818746260995
Co 9.834929004303584 4.113325783905927 5.5461544671245715
Co 5.847438907960239 4.604367494552142 8.430830143749372
