26
Energy = -145.25977863 eV
Co 7.342927998295724 7.933583606943452 10.339680253417923
Co 8.97570425372551 5.365833827334956 7.53680697902458
Co 4.564351806274796 6.525944511012249 6.929195185453166
Co 3.658020494976578 7.575695684156116 8.78908177259556
Co 5.991128499353584 7.549558889610329 8.57257680896648
Co 5.543279899776209 9.545910503229045 9.738386740425696
Co 9.633946689447813 8.197579671599792 4.42710678804267
Co 8.413113175060738 7.620331928914652 8.043556892935682
Co 8.208753236655578 6.821222935378165 5.702397736434543
Co 8.179070781023633 4.573132512579717 5.437091004899445
Co 6.4609207109277556 5.925395677896641 11.334204084737566
Co 10.320951427221079 6.9677657799322334 6.483766916381159
Co 7.118067969536048 9.6211722711686 8.047383484501264
Co 9.88440557310749 5.88247514314459 4.377299847399777
Co 7.335659367126349 8.428736705166775 4.2456284573474905
Co 6.245732255936226 8.027773504397349 6.2631676790345105
Co 6.5049473865094685 10.236943573551263 5.887073301130736
Co 5.198020355859889 5.5517924979399 9.284426995623502
Co 10.540864651919918 4.604980083213996 6.084266970246824
Co 8.538605028443355 9.154615486869499 6.2242365962010515
Co 6.647363631709593 5.578773078424173 7.194486569225098
Co 4.770004351770788 9.269356751479611 7.567371496438233
Co 7.5668297793783355 5.824681600243047 9.354733489502907
Co 6.044087145107795 6.04135622675045 5.015874072201572
Co 7.7691476068265315 6.229811188277676 3.4788586829618393
Co 5.003152225960733 7.486391088028115 10.684274461667181
