25
Energy = -139.95449064 eV
Co 5.029367306857942 4.353471711810072 1.5067605395536345
Co 4.656082916216855 6.5063749954114805 2.2828931275704982
Co 6.532437671466101 5.355259142087101 3.090111860149855
Co 2.558048253107473 5.766390863966274 2.7725621022787816
Co 5.979275854064839 2.9732510761785296 3.105858051955104
Co 5.897378789668949 7.477265837765944 4.0803626514396765
Co 4.062085739560564 2.2856307783828527 4.140938021743634
Co 7.269428814776512 3.937042956427528 4.790237323370862
Co 2.235470381929836 3.5273244598236353 3.276161366437599
Co 4.307768276547702 4.538954515496655 3.6646127201418492
Co 7.145839359656637 8.34334305673767 5.819721138696599
Co 3.666761014810138 6.760251705342662 4.545100936462191
Co 7.818389628426921 6.307229613410063 4.938328970467848
Co 2.397116943987305 4.783362025453812 5.151499948966554
Co 5.607833897910476 5.563992879289465 5.3643076737244
Co 4.212001837341782 3.649108625895269 5.99816266160538
Co 5.977966076536756 2.216151418857791 5.48832237034987
Co 5.018811401643823 7.601158595656622 6.34091915690353
Co 2.78752598406457 6.585673760132268 6.613991158374688
Co 4.6127260126449565 5.56930525830284 7.559041356188103
Co 8.526844812089644 4.713394754915876 6.51880862915608
Co 6.95021131591821 6.394669568848446 7.108686407951429
Co 2.619739685629967 4.402163099338307 7.490998757120235
Co 4.62712796798516 3.2620587130512 8.203546541080302
Co 6.406595823885227 4.030006354145211 7.05090229503964
