23
Energy = -175.63201003 eV
Co 8.680880787921014 4.052553152751502 10.013703025697072
Co 5.809686800425608 4.406434982235784 9.857436739087575
Co 7.392215215476301 10.380427648333022 5.578150566940012
Co 3.755931860543072 9.009027983137043 9.369095468727691
Co 5.562412277952866 9.86086125148594 7.564450321900647
Co 7.474437514369609 8.493263687966333 7.045731643661135
Co 4.95742788282232 4.985763857542241 7.432403073605975
Co 6.333393742841917 6.800714024635503 5.707809800697917
Co 5.390679417957223 9.081407685048035 5.337588540475697
Co 7.141837820995276 3.305893702284833 8.30521066878363
Co 6.978571228630884 6.130009877241223 8.15748652362069
Co 9.048035518533323 5.316083284519994 7.919839988143254
Co 6.23419389238255 8.47305461171553 9.594253282348806
Co 7.825247958080172 8.333399536457527 4.270657067171923
Co 4.906986017446218 6.576459537848356 9.768146813398651
Co 7.443305273198556 5.549309358381453 3.7488454954132338
Co 8.7691870917415 6.445424763579224 5.946147067748335
Co 4.6274416983022295 7.536755553663856 7.5216480139163275
Co 9.121903056441084 4.235012847433726 5.17794844525073
Co 9.627008425798193 8.67937598858566 5.8469144595231
Co 6.966377590777294 4.34031997501635 6.1935749129795
Co 7.613428042199566 6.188522186069155 10.318677617947865
Co 9.479191731913899 6.69338776444443 3.6211169651062693
