28
Energy = -158.28339917 eV
Co 5.756851523708844 8.609626767299202 8.82960938197148
Co 4.802361580995591 6.4798031557905515 8.992284468140952
Co 5.065976466636339 7.5285390193793384 6.897342026612524
Co 7.036051957296368 6.806276308776441 8.199977038782578
Co 7.0785466205191225 8.808542375308928 6.89520356933138
Co 3.6005237018626484 4.554409787194879 9.25087652019532
Co 3.389009115266242 5.818885133659152 7.211619280042886
Co 4.013706253908651 6.722225042374492 4.958294605872791
Co 5.855319116510423 8.300192923591249 4.762068508959192
Co 7.251188950005491 6.687358750748641 5.818650653896292
Co 8.214063784475295 8.525559446727422 4.809065213324442
Co 5.870709199992129 4.519144475361873 8.522797413583383
Co 5.440650661567115 5.208790109763902 6.2102951557576525
Co 4.107753773105495 3.566999831058669 7.2699973860265334
Co 3.379579413808514 4.437319830061442 5.17740226136846
Co 4.583382572803822 7.620010400180236 2.8861509763953133
Co 7.734318218147396 4.787445332668136 7.160922238190639
Co 7.002305935147064 7.941977234173113 2.7894450675340625
Co 9.025529910117024 7.572735415736072 6.979129054867856
Co 4.204214578131361 2.220814663656251 5.361100165896144
Co 4.076141883391944 5.224441262042774 3.071202892276561
Co 6.115648162492161 6.058720327647057 3.7961646079708657
Co 6.273316767288459 3.022921231836256 6.353785142219286
Co 8.463396631191662 6.423341135035515 3.797768969321395
Co 9.435389151225523 5.630763520649501 5.770682917411916
Co 3.4123545712720342 2.9957666466444244 3.3183521791637802
Co 5.468623800400477 3.7281890892119227 4.214732684301822
Co 7.599473846667675 4.446073198979951 4.863093753474455
