23
Energy = -127.01947572 eV
Co 10.382525181438117 5.716578674144382 4.968007491264654
Co 4.677794510623747 6.772130857388956 5.748855733875802
Co 3.9729754505052997 6.628562506297535 9.342050536905738
Co 7.326665559510713 4.6285897906198565 8.165035749233764
Co 7.555349178423261 9.567374745845912 5.632241629174687
Co 6.39874662834929 4.909745545743973 5.958786487059421
Co 5.411171188540056 4.743621371106942 9.581054479760951
Co 4.20718255800713 4.559061329959019 5.3816378442390995
Co 8.832607683284092 8.648409924412661 7.358275606082455
Co 6.751456970030684 7.496816785916061 5.02627124113287
Co 9.108660334034004 7.683089641598542 5.282132502996989
Co 8.932647138915724 4.555964384602206 6.403835767830835
Co 3.4553364630836145 5.621926117003733 7.375266114000458
Co 5.1133999030538915 10.194720873210384 7.433650246302662
Co 5.692713386459691 6.287035370034395 7.904844448443419
Co 4.17723229071644 8.122681960358696 7.596156291874198
Co 5.768119393008594 5.758667313809518 3.8720801340033857
Co 6.520127523115389 8.447968172035427 7.295810661337912
Co 5.018954433722418 3.930596922227184 7.530936558120093
Co 5.115917088160373 9.150999907629869 5.47837415688293
Co 10.160911455898303 6.528108153606988 7.044048218286649
Co 8.119787070656235 5.624461710233518 4.535355911432709
Co 7.896994756471238 6.534943105219328 6.947639886348659
