28
Energy = -158.15379306 eV
Co 3.566249820278178 4.989347172505007 0.8595291239388104
Co 5.832756091975792 5.294545939755036 1.503009198102028
Co 5.3858223206092015 3.179041941364914 0.5141367056831508
Co 4.541222290145394 7.111574420619128 1.268963834361383
Co 4.128536458721112 3.436429762961035 2.408838611074862
Co 3.581767930107143 5.952330140729668 3.002159989617432
Co 4.992873395882124 1.3805385811844733 2.1944048881809093
Co 5.5869758690491995 4.721441537103073 3.8191985298775117
Co 2.01997937171286 4.206005621449761 2.8458455298039644
Co 6.718428519974459 3.2292384952299846 2.400398640870359
Co 7.669749092466652 5.3913640640777345 3.125218537373894
Co 5.75049594977144 6.948236634195915 3.3487976019110692
Co 5.418753381228764 2.332840625240657 4.218562913218586
Co 3.052892305552236 1.7837079615772944 3.7787663357581724
Co 1.2715460926869335 3.233601008325506 5.003028811333492
Co 3.5197154711613514 3.8573263585840176 4.762159772957025
Co 7.408572386348146 3.662865552201348 4.765656152988855
Co 1.8816255041301497 1.0995543559027035 5.65873040253261
Co 1.976304875389102 5.582403269343546 4.764497324874975
Co 6.8287063535723584 5.920563055171853 5.324388752379858
Co 4.350791512397142 6.246341414781862 5.2435153442084665
Co 2.5241347737659825 6.960526824923986 6.531704828622706
Co 4.007918165625485 1.922487935275545 6.052687124418908
Co 5.451979718666024 4.016800049232688 6.141775589771242
Co 1.004454536071489 4.936390332616382 6.711649331998756
Co 2.1570175939557603 2.898148581268383 7.118659392947993
Co 3.328218519022511 4.895568232107432 6.944797132581959
Co 4.346491025268112 3.114759457806527 7.992898924147196
