24
Energy = -133.04606258 eV
Co 10.276086078108419 9.954248112380965 4.897900790532549
Co 8.30979255549616 5.5470727426371695 8.829562621333936
Co 7.347246649178694 7.465062912263371 9.840074383510082
Co 9.777773472772392 7.893318865108225 5.748542945625183
Co 4.992773659834961 4.92578489687798 6.766343751290618
Co 8.432272107234448 8.921458844914625 4.0274510434459305
Co 5.394433111447675 8.532513507446998 9.106147606909522
Co 6.034531845979692 4.783098502599889 9.097543445602698
Co 7.30631018682323 5.383764149975281 10.891458562573922
Co 6.215466669391461 9.003333818921359 7.024987292504803
Co 3.896133610260592 8.679224646918037 7.2783906626404455
Co 8.531938408061626 7.7928574834788344 7.808470937723214
Co 10.409915620346686 8.081683867314188 3.4855257385215306
Co 5.305424838649484 6.548890001191281 10.371963428263097
Co 8.451329277917138 9.69796303539613 6.4311542649864455
Co 7.1314280090490065 4.178187086765554 7.127439731406284
Co 8.596732837499715 5.817668733483298 6.3820537913600806
Co 7.547193717968723 9.62037338328692 8.782985478664388
Co 8.837608007688397 6.446821111755979 4.163762893237864
Co 4.263781890473495 6.619059357081826 8.2712470276813
Co 6.5316814990738745 6.5878697849964745 7.699705291736862
Co 7.339437861131178 7.6316180123136546 5.553116141944443
Co 5.032382303903791 7.147888171398204 6.002319602056611
Co 6.623469780966262 5.469903962666596 5.135535062842082
