25
Energy = -139.42823481 eV
Co 5.593310235864019 5.307426755555137 2.8829589541957614
Co 3.5395711936656875 5.6295499263214115 3.8965607095384285
Co 4.881417967731604 7.518314939200116 3.534976002234247
Co 7.248657767039825 6.761790230635574 3.8834534778672265
Co 8.517891560461848 8.122023486902558 5.4181341515698875
Co 5.1885303250721755 3.690626710414098 4.553985016853703
Co 4.3925889710149235 9.516375198349719 5.030517617616216
Co 7.352181400405334 4.528864414475549 4.575391961727979
Co 9.209386479048824 5.89978349156016 4.990489443802794
Co 3.7711801314683813 7.463289055994847 5.609889987992888
Co 5.412386277871573 5.881070299036109 5.129288437109877
Co 6.1822811621303435 8.207499675791047 5.420678257545102
Co 6.948152364140048 2.527029333507697 5.7856928113951955
Co 7.642224200353525 6.332474771542845 6.615751155479653
Co 6.101406311526178 4.379501912758 6.791561952852673
Co 5.32570346711729 6.616114418557879 7.32285650398602
Co 7.267199331269548 8.554168490844685 7.432104381904539
Co 8.538133075145739 4.0951998794112265 6.484788835657832
Co 7.0214292632439035 2.7721658060000767 8.14308597235973
Co 4.92053384634876 8.906358979405807 7.333043363595835
Co 5.555634944546547 5.0061933610683464 8.973649205154215
Co 7.7871728952351456 4.861207852486253 8.528803237114108
Co 6.923128522250726 6.949920498618935 9.021841665434927
Co 4.669623488937817 7.362038679098784 9.341846200696947
Co 6.036451361606659 9.137188375960319 9.324827239811544
