26
Energy = -146.29432179 eV
Co 4.637908640979581 6.693888485509163 9.921328055630052
Co 5.925658543148111 4.999183109694062 8.924820713007694
Co 6.199851049841587 7.332613021069286 8.34257812577729
Co 3.633252696717293 5.186891665283803 8.490388191817768
Co 3.931707312206536 7.324281118265946 7.726220943388349
Co 7.76512518925412 5.694844836381078 7.541678974972868
Co 9.076719756228874 4.08662776366496 6.5406007495269645
Co 6.809147687653045 3.6618675402940113 7.043745917918188
Co 4.3426462468911255 3.4970924236642027 7.150191575570822
Co 6.8939351963224045 7.53427474147031 6.054034673617856
Co 5.447690010178995 5.609388840363022 6.774454264189784
Co 5.319963015969655 9.03247953367062 6.9525571309076
Co 3.228369258704557 5.400992342257165 6.097680252385447
Co 4.556214585758108 7.367026027082174 5.402714889099976
Co 6.274103704168981 5.888706249496797 4.41274158330118
Co 5.3526620568223375 3.8054079557077873 5.137755592366551
Co 7.624680779918554 3.8623735408317645 4.802247521746445
Co 4.089976615238381 5.344126052770423 3.8505147422560504
Co 8.530663765125658 5.972606097045263 5.307206142135372
Co 5.933060540880159 9.134408365923065 4.649329525434153
Co 7.487960343662942 7.682673281739139 3.731847420497358
Co 8.194612071148233 5.371511417254997 3.135154053062195
Co 3.1227713537566544 3.431724791273899 5.048216420003137
Co 5.084168512501228 7.5260522204409925 3.1901176161778677
Co 5.91123709711781 4.178531921719929 2.887359538293399
Co 6.429719700127496 6.175037347144335 1.9619834784971906
