22
Energy = -121.15617557 eV
Co 4.97250703487238 5.509519279650272 8.320489199559287
Co 7.714548348552155 6.679903216293957 6.7063982938991655
Co 4.733707528379803 5.408247428856757 4.1893114451478874
Co 6.148209578479717 3.4078194541658138 4.912203886199368
Co 4.83706655762298 7.313021635697719 9.657976395812199
Co 5.8340337938604065 3.1961967529305433 7.203363256504126
Co 5.650130910287952 7.626025213700585 7.431420852248221
Co 8.027430793749025 4.204212074494679 5.969607856451393
Co 8.131614217046753 3.7163325268979537 3.6276536337452763
Co 7.264370659112625 4.795470573099799 8.12592660874429
Co 3.854359363467085 6.441570470390941 6.186135637398192
Co 6.139465861597802 4.366866221604094 2.662970612829132
Co 4.127250962045952 8.776220440480193 6.034351868786649
Co 5.978027120227073 5.322654332831886 6.24913616148046
Co 4.033631834252861 4.087641794460334 6.030252967380261
Co 3.375761330947113 7.670787969157217 8.009199713438736
Co 7.41352783120289 5.78691457781062 4.348204192276947
Co 7.85970072476019 5.634430421062323 2.139100963847913
Co 3.79594675011991 7.523381007623049 4.055238247819784
Co 7.062132748299209 6.848032000053376 9.029766148455908
Co 5.904971649114886 6.833638730392141 2.8327288317647286
Co 5.855199297947018 7.486875060234679 5.0728265254634595
