21
Energy = -116.72454249 eV
Co 8.293854809732952 7.799903769320885 4.801331986915263
Co 4.323466913132502 5.955027492700768 6.651682371995058
Co 4.577264385572964 8.316346439211136 5.906061007506166
Co 5.918570710487632 4.6082159902034485 5.343589176174277
Co 7.747415626160708 3.7983456484251628 4.300782451640547
Co 7.3195404465904605 6.789743991589188 9.299414814107017
Co 6.693677493995155 5.422463869799802 7.575186840728993
Co 4.93766939680764 5.932785433558939 8.952684494263032
Co 7.638819579918646 9.040529544108121 8.576972655080956
Co 8.33830207401848 5.480051579835313 5.686642040366216
Co 8.339127836313184 7.408335421494836 7.2348509874895415
Co 4.722341435286848 6.509662972136761 4.293498679923074
Co 5.7628761066250505 7.864871031652365 7.937902780626089
Co 6.109577936661318 8.474265385215077 4.034715973704322
Co 3.4774567531834735 7.540426708682711 7.960087134541441
Co 5.029172152110471 3.907835907765695 7.391631905508443
Co 8.921999458516906 5.315023630739679 7.941040704113808
Co 7.020593957290689 6.052281037602382 3.740904705783022
Co 7.528595588725005 3.4848425162303105 6.649617388133962
Co 6.409126585910048 6.949559702988812 5.764490691290305
Co 6.872717411903117 9.142427851758843 6.240312999891103
