26
Energy = -146.05722524 eV
Co 8.545622362140344 8.43643161571828 5.726228104418671
Co 8.70011823653592 6.258359777107102 4.710664151468081
Co 8.411954833790231 5.310967322282028 6.764748087671559
Co 7.338077821939207 8.047679787270779 3.8410056885026056
Co 8.323516339588478 7.438036820398003 7.740124291698594
Co 6.144273757402926 9.132460577900702 5.700270985678937
Co 6.749154710398905 6.9582828512102965 5.920477804578413
Co 6.798924486044558 5.797717630516295 8.426662432248811
Co 6.633644043799898 5.691688619460656 3.885954521257536
Co 7.697364537972499 3.8692260745467713 4.8997360568808315
Co 6.0406928009383165 8.006074910803868 7.874023158117041
Co 5.1427906984388745 7.493577492155931 4.006799698057655
Co 7.623413264840107 3.1431527495815774 7.229580254775204
Co 6.172218223555799 4.752228570827669 6.415456763341041
Co 5.5235406028968494 3.6984143762940422 3.8344575203348525
Co 4.320619967895573 7.690899329283638 6.205145613948744
Co 5.6861196675758405 3.7686695410776405 8.43161199602472
Co 4.426035916661715 5.472511518433205 5.1255197116389315
Co 4.590897647212187 6.040369443762383 7.746611785447003
Co 5.67909417848219 2.6109325710152533 5.902007718211636
Co 2.8784157972526905 7.139973177114478 4.362574464957001
Co 3.5632715337405685 3.068062182988479 4.816056493005148
Co 4.303136877799287 5.54222849917706 2.8818535502108698
Co 2.601229630564734 5.960372637055584 6.423908014747468
Co 3.9208326073365374 3.9460628154427178 6.904715592299226
Co 2.3821890381033843 4.8928606948332165 4.243485743594177
