26
Energy = -145.88592341 eV
Co 9.2236054489313 7.391858346489191 10.679369199877364
Co 8.415050570802931 5.57077696600377 9.418436840062784
Co 9.965196175984385 7.17178213009203 8.531194355112476
Co 9.626246087513701 5.157445459803303 7.386621144927353
Co 8.359893605443984 8.879752040393186 9.07396683639274
Co 6.977456379148079 7.2735703152200255 9.985170182704397
Co 10.374047100154398 6.937819187559968 6.135874342581315
Co 7.858725763369811 7.053822415907583 7.606392496431622
Co 6.078907782683099 5.13877348011938 9.3683373263517
Co 9.553965617690817 8.913670251352203 6.997238684149796
Co 6.014336444443326 9.211051084921879 8.940404021310115
Co 7.256918393048952 4.766988375281664 7.414600782178346
Co 5.440257120407049 7.0732582906043255 8.25212153168116
Co 8.347007555406991 5.662530261630333 5.5619562706302155
Co 7.189893606891721 9.23412376385384 6.9446904758185966
Co 8.299699655399703 7.966604883493217 5.332495188671087
Co 5.013288324367493 4.948785899601856 7.168329989074505
Co 6.280294063938521 4.613980692674853 5.15537593766745
Co 6.051724330150337 6.804590455012327 5.885697283273885
Co 4.955423895770525 8.899113072959372 6.75844852508854
Co 6.183068205007375 8.805458567231078 4.718257123041587
Co 7.248448578703522 6.63224140906289 3.8003165850051808
Co 3.718149075585178 6.881031003913794 6.658336699610458
Co 4.008679161619239 5.285432532527888 5.088133897942522
Co 5.030001214571118 6.595129472315593 3.60881311601834
Co 3.9329973821355457 8.131181106502272 4.788949588728606
