26
Energy = -145.30200567 eV
Co 7.042624939277532 7.668821250476715 3.674824058071427
Co 5.692046041130837 4.043588186704264 2.8333510581276564
Co 7.403973416698493 5.583661950945254 2.8188941912955032
Co 9.068711371520994 6.999272818238665 4.595522810804579
Co 7.21982387086655 7.331496865429999 5.918667333754105
Co 5.700240087532647 5.799291164220527 4.409374099473267
Co 7.698232362947255 3.2124379363627398 3.662225083707605
Co 5.1253529698218925 8.119451021804016 5.035466104561621
Co 3.816096144560142 4.323525733526789 4.238538448556227
Co 4.417417439876342 10.111542654862811 6.000279493257117
Co 5.98306509611673 8.893460855873808 7.099735932980621
Co 8.094132608237622 5.037295538185613 4.89554973551759
Co 3.4349941481255395 6.341269290374611 5.298317649188299
Co 8.751388750598819 5.9083092882432435 7.0036468580331
Co 3.30237551671527 8.326821831201215 6.67985976125831
Co 5.926609547827021 3.456284220257919 5.064403100407776
Co 7.877471151587219 3.179349655969518 6.341041601646036
Co 1.5409380453420563 6.965103224542405 6.374728683694777
Co 6.563869234217265 5.102207559459257 6.701653414569533
Co 4.239149182549169 4.459032532627783 6.486696290869211
Co 4.99632197715303 6.834539307157644 7.044669568093224
Co 6.986724990191497 6.7930500529317035 8.290452639722714
Co 3.0351910130235913 5.913104657195745 7.7241124795718585
Co 5.891088653164822 3.062894072313564 7.569169290203234
Co 5.2701162448837655 5.083579941266497 8.631571985408009
Co 7.7629372948043995 4.291500488597732 8.448140425996034
