20
Energy = -108.99459558 eV
Co 5.254389779700932 6.71015350690543 9.896749535170553
Co 4.824285317564617 8.338135032342201 8.261248603606534
Co 7.879625413656022 7.095061656080549 6.066336996523439
Co 6.039764165179146 4.052955945021696 3.5386824050542787
Co 6.271005248260896 5.178571151589361 6.616794648721563
Co 6.761901031500811 7.088641838724094 8.161752772374399
Co 5.269168807573718 6.409820142108163 2.8619936642935575
Co 6.36308625228886 8.184291969861226 4.268816665427616
Co 5.267181485696427 7.359721022327032 6.136982555343371
Co 8.201542987882055 9.128761659577743 5.171539280482431
Co 7.297686762852183 3.21563746780616 7.37607181143067
Co 4.0473006715370685 7.61221296044743 4.256896555391692
Co 5.5848054621274965 3.2631325956185018 5.598131792154851
Co 4.555409899376832 5.989973006873044 7.922086771815478
Co 7.775705799934391 4.028413028890395 5.262091937266822
Co 6.5616012816792315 4.931414959639235 8.909241007020237
Co 6.896075411531351 5.969055331537169 4.374545688407737
Co 8.423709774726573 5.22976457626668 7.3923238884871045
Co 4.655851663367242 5.388371934403673 4.8755361838941225
Co 6.647034901237048 9.041902681762574 6.815417764734725
