27
Energy = -152.60065811 eV
Co 8.220251251124274 8.6101822173882 6.635742357587799
Co 7.4147554551705035 8.8877605465863 4.193344672411664
Co 6.2067682418639425 9.95380692219253 5.95874947011737
Co 5.015691875732323 8.770814284844151 4.193667325299902
Co 4.198518549461618 8.43592879908847 6.645087122521853
Co 6.250401794527138 8.451510053241277 8.025141899774217
Co 6.243620488987171 7.735681598741187 5.7301209013259005
Co 8.524346105961612 7.7095300773200925 8.89292462763958
Co 8.34325162235917 6.764927210084425 4.958781308540988
Co 9.703956360573157 6.356827295117338 6.96536468145786
Co 9.961411550229572 5.190938619026314 4.9242403877112935
Co 7.49679222896731 6.500063014092852 7.32518184141645
Co 6.214512886539602 6.627425866847176 3.668703322620255
Co 6.373831137313282 6.46017645281302 9.362206777269531
Co 5.134576996585799 6.426911216657817 7.36376877712248
Co 4.281345901092798 6.475229415189645 5.110990767019966
Co 4.0461945470373655 7.511500709030883 8.986714298454965
Co 2.8968505961305246 6.358778726423053 7.274232704634129
Co 4.220863569347169 5.087129310707287 8.862222735239063
Co 4.348399971989242 4.448790126475453 6.386612505758173
Co 6.369832183579245 4.403877762467939 7.87579764706434
Co 5.228083202164176 4.410390255593511 3.9573694972308178
Co 6.3531895528492175 5.363582972236313 5.632384734550582
Co 8.520388545743357 5.2365069885461315 8.849627056089403
Co 8.396149330050374 4.4343081267867035 6.494435678777989
Co 7.817759744007729 4.475271755402553 4.191897350383352
Co 6.416218537436459 3.134681569918049 5.722922349738515
