21
Energy = -115.28638169 eV
Co 8.512451609611029 5.4615017907261265 4.586504548579421
Co 8.940664034517182 8.536609026621498 6.699949113836354
Co 9.05692224709366 7.7483131539735535 4.601595902372531
Co 5.381722680045602 7.544118079619752 4.621659185410334
Co 8.726240280943584 7.437011527315563 8.688630720185325
Co 4.890720796031275 9.055722876377873 6.317823009788671
Co 3.122197358035728 6.262648846055256 7.850645126442548
Co 5.63017963910655 3.4438456694014783 6.589435073784932
Co 5.023711118269209 4.917422848812854 8.242432379619048
Co 6.963102855643792 3.697730686245735 8.48808640078365
Co 7.177852402771947 5.938686334904246 8.024932933734881
Co 6.787872693227921 8.386404921576577 7.6117766731268155
Co 4.031502255654962 5.744023546804731 3.9681370829243976
Co 7.003142332941492 9.162621582680941 5.404932082261507
Co 3.2930782596908994 7.236396946035258 5.628389327964207
Co 7.714374141903441 4.359512441411631 6.397080098334283
Co 5.17064337124095 6.824199138577191 6.898960848016955
Co 7.3044611835019975 6.942252979927833 5.837240493105755
Co 9.302844477653352 6.230937954163673 6.741393480809838
Co 3.8302908913636786 4.995389419366594 6.135398830640228
Co 5.971814213657526 5.197376707864838 5.04946354841113
