27
Energy = -150.8394703 eV
Co 7.317106387319923 6.681082774608273 7.048052899911744
Co 7.5872970679217255 4.962967737999203 5.460900010616627
Co 3.737406059957489 7.811457224103872 5.616760541410589
Co 6.256487492312803 6.782015721202742 2.5288218473489272
Co 4.742395379054285 8.234624828386954 3.5771736874845272
Co 8.716488669080386 5.898273317833104 8.794520403168363
Co 5.692427181388394 5.774452509566076 8.678560481504306
Co 9.153279116483509 8.025067816224022 7.777082402873033
Co 8.184971651760195 8.322201283046676 5.536091060069344
Co 7.859126519981144 8.186877545960046 11.340638257296275
Co 6.295774060042339 6.359179094845733 10.959393370020289
Co 7.091857858708117 7.624312701457969 9.242638166853444
Co 6.214830086915376 6.994147877854747 4.898780460193348
Co 8.370795777313942 9.561580864748821 9.420069093739837
Co 6.17244116562953 4.86118771193581 3.7163708009923835
Co 7.0711731406757 9.164546539344709 7.41774035496877
Co 9.667866575266427 7.739519937158229 10.04435031464564
Co 4.214350173278168 5.947266254839806 4.395919542076859
Co 5.335941224075078 5.359451218111555 6.378745127577569
Co 8.25587727098577 6.570996940144178 3.865816283444147
Co 5.2433261721014945 7.671265880607495 7.302989780350696
Co 5.766475716382463 9.206843855397489 5.501043106648727
Co 9.38633339495443 6.378339476117963 6.0026460031693185
Co 7.083795760939682 8.711141959896485 3.485947099571241
Co 7.265993854654458 4.376402190246736 7.663660117694831
Co 8.545756634012907 5.954241680158931 11.111683318564511
Co 7.163556036255033 4.449966508203861 9.995898163611114
