29
Energy = -162.71181428 eV
Co 5.678531167998969 3.6525309345164523 3.1431143307439693
Co 5.940547551690455 5.160359886053936 5.004833984724755
Co 6.350609292981362 7.681028347957271 7.397863440088725
Co 6.010084080612985 2.8686084291105964 5.426817227348331
Co 4.808860965721709 2.074141867133711 7.507062117945083
Co 4.916468601964959 3.9455307955050696 8.988874288283819
Co 8.256001838032187 6.526962732896577 7.021635980330088
Co 6.93279589379203 5.657485127793188 2.760999918839471
Co 7.15390850173206 7.903828630274818 3.252761365807664
Co 3.8116201540377395 5.177675129765526 10.478988013688651
Co 6.785606901817322 2.9856437612863496 7.670096487432843
Co 4.652927663938445 5.753175165815124 2.3518967566824753
Co 7.9045633721013635 4.310077847727665 6.135493262185647
Co 3.8898776163665976 6.484244454262212 4.476759967037169
Co 7.8131067642370935 3.8296221688738505 3.9303476023951345
Co 4.339858470952026 4.098364741190271 6.659534672248847
Co 4.849022759309191 8.01397541413102 3.012271826403881
Co 4.999544705558321 6.429943620249025 9.005869460350077
Co 3.113370379603871 5.29141639151665 8.231939110175679
Co 7.9958739231657425 6.25892696133234 4.745396525637566
Co 3.5944112074155283 3.7846976989773258 2.058258540853422
Co 6.296955434507689 5.246777999854183 7.5624870826599
Co 7.974303364865075 8.36771655155428 5.614836270402978
Co 5.868558302967927 7.596755253334599 5.1416781631633715
Co 2.3783538419952173 5.36960297368551 3.2143843170062842
Co 2.4989613934935813 5.318384031941311 5.86052297883771
Co 6.105730647039189 7.219004449811392 1.2781786410909093
Co 4.422960735673318 6.5105907036569475 6.7245650105252395
Co 3.7943041348481885 4.022696678136395 4.402904276407492
