26
Energy = -198.7902252 eV
Co 5.700243716686986 7.4923062264096645 11.569005090221058
Co 6.678107514612867 9.220287888412196 5.3073496349587135
Co 7.445312766824952 8.419017249230414 9.69216598672921
Co 9.1329555135541 8.895092430916561 6.500960305438143
Co 5.9414016322215275 6.092666690992482 2.729863460524701
Co 4.831254907508003 8.022889342257269 9.526084884472787
Co 7.885772607065758 7.085297863294035 2.2213630758441325
Co 7.436611065642126 7.063482534270372 6.1851136946494405
Co 5.07085695395375 5.407861243837656 5.658757252420538
Co 4.998087761040341 5.396238857933595 9.993032108452725
Co 9.050228942922757 7.150079693565886 4.2546361414896525
Co 8.664863030491233 4.882980696490421 8.610614216637467
Co 7.587938360867881 6.2443832226943785 10.70428953549093
Co 6.552275269524374 6.351852517697776 8.210858055199106
Co 5.358680721550235 7.507838535769268 4.438138536165758
Co 8.36878541825216 9.47358286369044 3.7452113296631575
Co 6.736639192266342 9.083396047702124 7.7898419442762386
Co 6.735273209406971 3.9057946501115763 9.506660267963266
Co 6.278447665537339 8.96599258262165 2.6607095438867736
Co 3.686072043865497 5.856302951633876 8.142944173276492
Co 4.886806370631703 7.934217402261979 7.038441062398134
Co 9.47639297578612 6.003115460627227 6.625265130787008
Co 5.261554325932998 4.033643354539101 7.708527194625727
Co 7.391314289038507 5.323420771022522 4.379597906824791
Co 8.953727049191407 7.329718024010265 8.101655394085434
Co 7.411767255038186 4.41043764172142 6.783704059295769
