22
Energy = -121.67261671 eV
Co 8.156672079069923 7.394524653420126 5.884955727826591
Co 7.252497102299314 6.80255283001253 3.576902103634152
Co 6.9078176478099 9.289394574908982 5.655650716281277
Co 6.4579099887275975 7.590406713277522 7.58707225052924
Co 7.822348912653283 5.209570113549584 5.270400935591732
Co 5.683365437797272 8.837399142151538 3.7688401712613575
Co 7.839895524720391 5.746590216103422 7.639222921202468
Co 4.88452831501305 9.07621059977414 6.6023731702550945
Co 4.855882862279715 6.841005365715272 3.129878731150213
Co 5.850513957462199 7.153539382926173 5.323470166298289
Co 3.736093652095207 7.989324673470023 4.93512849413816
Co 5.819142492570601 4.951024655633333 4.112932920681679
Co 5.827881213602492 5.1216094509828425 6.5987957877516985
Co 7.552636791006196 3.5256354598129893 7.076928737477919
Co 4.270773945840623 6.90025740348014 7.196029516058816
Co 5.400389753409481 3.361968215722282 8.024517732104707
Co 3.8712058700651846 5.635821703230728 5.21848073951019
Co 5.675116308935046 5.680331907664392 8.821872953593218
Co 4.7050670897383515 3.2705177177526545 5.771872651374041
Co 6.853966482889317 3.064383121036334 4.935084630262399
Co 3.588388238730931 4.694144494208454 7.3504122996682435
Co 6.168685829255624 1.6780040617602916 6.687836490571115
