25
Energy = -140.37860235 eV
Co 5.761382233088058 4.266434652726014 3.6373811426160634
Co 4.34120852983556 6.123686337588489 3.829596900088205
Co 6.713423285982247 6.3528830784704855 4.337352946381239
Co 4.279913125940686 3.062167595774517 4.999973010463649
Co 7.5897320161964785 8.440945232100889 5.197427185754555
Co 2.900622538466017 4.888785689178868 5.204814517208881
Co 8.06992682846186 4.412855352738493 4.191082576701474
Co 8.975306533996708 6.500497170594787 4.949444133075652
Co 5.262226647878712 8.241295145977308 4.5638084227070514
Co 5.201209310527475 5.0836148459667525 5.760185064146866
Co 6.163393697270794 10.25405105688007 5.3379766984565205
Co 6.638825764038045 3.116962853435945 5.598800025182885
Co 8.420774681111684 7.324871444309596 7.068091696183226
Co 4.6333296018270005 9.062793879798132 6.6449103131465455
Co 6.101409499070924 7.212267407244444 6.517434302744425
Co 8.879133305733063 3.3490723558845885 6.0428755864202754
Co 4.977823234521245 3.2721897545573846 7.235337678039101
Co 3.7357542322562085 6.986896427996092 5.972417676741098
Co 7.636492358707738 5.273015711238914 6.383204340313246
Co 6.866622822007248 9.233225629109775 7.312706504983697
Co 3.5595331127362515 5.1742443770695825 7.460084909764961
Co 7.271049751123525 3.5094012752697044 7.828747704633722
Co 4.488430387055609 7.2927197303485665 8.21324014121301
Co 6.803215026706579 7.366216133898443 8.81615599175318
Co 5.877931858580176 5.34757724496235 8.045620914400816
