25
Energy = -140.54957124 eV
Co 5.578529859657267 7.400475175654796 2.4366890272999333
Co 4.5413969504221035 5.975342258697392 3.830154047963185
Co 5.8373111333842065 4.0459663961881365 3.7221811843880808
Co 6.9548365015476055 8.420498504637756 3.9505538363329316
Co 4.7132057502175275 8.248924885577656 4.498101423207116
Co 6.9621396635290385 6.112355249752654 3.8017702439639316
Co 6.904803969366742 4.607565508239605 5.707766114069447
Co 4.462720950096597 4.3924885257970745 5.610506263532017
Co 5.747176972912719 6.690994362782186 5.881172109951363
Co 5.889888564100322 2.5778801003157064 5.802612845696283
Co 8.079897754490469 7.231802830061325 5.659049918371434
Co 8.07976034344349 8.13331617731245 7.774675871057078
Co 8.948508971753935 5.263828149941243 4.9194186438578
Co 6.505085974698517 8.919726742589342 6.22871144926323
Co 6.617664767946832 3.612293288304295 7.845258860860653
Co 3.4094882814646263 6.561111590964756 5.886919196185623
Co 7.450033886302233 5.922697577720102 7.662837760481976
Co 4.3881672846422175 3.048668682341732 7.47044256645918
Co 8.759633223059762 4.110325807884576 6.986935485810436
Co 4.180657787958982 8.571864675320773 6.722952229632798
Co 9.636505229493434 6.242047441484227 7.010092816334183
Co 2.8106604396893258 4.872765777975513 7.320317711586458
Co 5.041346642391465 5.315484899209499 7.709477366328082
Co 5.784236439244395 7.5806503211859 8.087140465854956
Co 3.5149705635096926 6.939552975385349 8.272890466835625
