28
Energy = -158.88633831 eV
Co 5.4565043041968035 5.723576295332432 2.3095069417620007
Co 7.563459335101532 5.523018133525827 3.279115718925096
Co 6.444391536708165 7.563061514844892 3.4203057531766863
Co 8.403768503676204 7.316762035018365 4.801983651864137
Co 9.423981613556935 5.07411240624127 4.539438219890677
Co 5.845610986016739 4.029564067880576 4.013872777120147
Co 3.608420860118709 7.028233415371961 2.9603792142461622
Co 7.953357152950053 3.309930972977308 4.806083152194264
Co 3.564131381383293 4.714679293225099 3.3384968512564632
Co 9.28625586545261 6.08242876418247 6.634364986412159
Co 4.998562363390012 6.12893623493165 4.584308614795131
Co 4.548949504573027 8.49342900018043 4.457821382489348
Co 6.345554023397036 7.708890879480657 5.818097770146607
Co 7.27258692865554 5.4256121482361825 5.589813641452689
Co 8.116923163439587 8.036242589229051 7.16515335670819
Co 8.294537642895754 3.9529620670740693 7.0533063935412565
Co 2.729732628740657 6.152338337790248 5.047127905221569
Co 3.967570645073676 7.54114189906569 6.498728189798042
Co 7.372673308864575 6.019371598211516 7.98481948877461
Co 6.074093975924083 3.3909694972153464 6.285341499963679
Co 5.292849681746034 5.555467139254784 6.939639274976499
Co 5.706721523769699 7.6646785775939446 8.099758551356194
Co 3.8880298985371056 4.211671478738967 5.624592765529177
Co 6.422392198479371 4.012469411397364 8.53842102209649
Co 3.0231265923767374 5.646527416819117 7.487523319094805
Co 4.802281176246463 5.730751151572057 9.134691673194737
Co 3.4333215120191407 7.54968743467688 8.737651262502752
Co 4.249885258995514 3.62075780170964 7.898154485579047
