21
Energy = -114.52908705 eV
Co 6.512838940745047 8.840648982946458 5.221517445260584
Co 9.178412255506966 5.581137244399631 7.10556407408399
Co 6.274445518248755 3.8061336796451886 7.591187275383737
Co 7.494507925065909 8.507648447875981 7.26855606477729
Co 8.504581567217562 3.3624509988574944 7.224542431922225
Co 5.232369190849184 7.665805144563033 6.788347517276991
Co 3.1801205355016022 8.603815775602087 6.4335364387999805
Co 4.9841075471235525 6.548988598658258 2.8895134164918077
Co 3.253004471506453 6.424184783395282 6.896470669564251
Co 9.74419943122974 7.95465724586704 7.075103654916457
Co 5.00830087679167 5.124659539684329 6.1835844702337015
Co 8.2680369633087 7.1053673032208 5.563470641443649
Co 5.562473861912594 4.554267802134345 3.982564519230804
Co 7.902114071964254 4.753375132375934 8.929076010351158
Co 4.3323690834052435 8.046394663650636 4.613819899341862
Co 3.580974682201363 5.839035705233005 4.584309014568671
Co 6.958777699520809 6.212857204963544 7.414403360208587
Co 6.232221250456385 6.594814680345386 4.77158103093676
Co 8.618869298135467 7.0945135947661 8.790811141116409
Co 4.9548293220129045 5.647879113336256 8.416705851640993
Co 7.336258813690051 4.642224920498644 5.673267060582309
