26
Energy = -145.95589107 eV
Co 9.602666081695668 3.7939475748759155 6.734516644875497
Co 6.191576264802329 8.259197841396757 7.798675933538755
Co 7.395676274794942 4.25717881788742 7.2773060423966145
Co 8.174100791757485 4.772443286270985 5.178426268402804
Co 8.169997805700614 9.283373431714061 4.355363914267298
Co 8.11608417374729 9.04989400714724 6.642006120637834
Co 9.224081308307372 5.408654877427633 8.304322164168093
Co 4.3764140027398435 7.8055574012090965 11.379067319457407
Co 7.800488365637105 6.604599476886502 6.813129514191774
Co 6.655784061904392 7.8741737774045895 3.1037620718754795
Co 8.09376681875151 9.28867808049765 8.90960856896019
Co 9.931398124349633 6.033628791624157 6.100329935506784
Co 5.95666512693969 5.6189385297693555 5.69678685324056
Co 6.333181224810887 8.044738539650005 5.372366397173865
Co 9.604272131147065 7.759404877684945 7.844249263739638
Co 4.489876823356101 7.159000692618636 6.5702743270026716
Co 6.7326593679376545 5.578133799412819 3.5041602575910953
Co 10.007991636637872 8.304611219153708 5.542465186833875
Co 5.746696362471484 6.274961714455881 10.439533902827922
Co 8.342067441126266 7.0172642703753105 4.471606548291598
Co 7.650954596351242 7.022620938514137 9.221682729091182
Co 5.824625724793902 5.905998942639628 8.095107947197107
Co 4.3423792234547305 7.45632251565289 9.01337034901683
Co 6.06886335098287 8.58398211027206 10.107297128099859
Co 7.316940687856197 4.707136817162784 9.531063555719335
Co 4.8263058764988305 6.857191627094901 4.103610201510967
