27
Energy = -149.9390138 eV
Co 7.608608783759463 6.958089554945665 6.472076344890908
Co 8.648018005827014 5.947460792915634 4.624430316219346
Co 8.812087123561849 5.700734601302246 10.017341976656757
Co 8.224844373617344 2.912645853207027 7.310330622057948
Co 8.004935100669451 3.5862916359185055 9.53201959522467
Co 6.5401607562737745 9.393474881446213 4.526757558285919
Co 8.477289784577755 9.09971717770846 6.957895565664756
Co 3.9049136692251274 8.767126176504737 7.716953773310328
Co 5.506795199540826 6.167432986702472 7.181077129737961
Co 4.952222463774774 10.84598989225115 7.800688316452376
Co 5.937108748341424 8.548572969782821 6.710893918798663
Co 6.8098480313055125 9.669463642039116 8.655239041374003
Co 8.23086233390139 5.207358497342 7.846362519664375
Co 4.68125515914406 9.625178154798498 9.716262522197704
Co 9.521648390741074 4.370262598754746 6.059473338274184
Co 5.615157130092444 7.70955587924669 8.985466798739514
Co 4.5988174970583895 10.08761828277948 5.683750626276147
Co 10.021577437853335 3.997874589740842 8.416717538997311
Co 9.80306784304633 6.601692864249443 6.655756789577173
Co 7.0249044709940955 4.76454291648575 5.823643057739681
Co 7.976143073049255 7.519736179046587 8.712116219547578
Co 6.547668691063779 5.684577760415154 9.396255743904847
Co 6.181740835609927 6.986501594806625 4.771527403435086
Co 6.1728935241446505 3.9749803803271746 7.875759535677617
Co 8.492107035161974 8.220166500262613 4.768043849938847
Co 6.830471168808786 10.705459594319532 6.431086908101971
Co 8.585398879708835 10.489708615320321 5.006825921839165
