27
Energy = -152.57147813 eV
Co 6.929528836559823 10.358105687679403 6.631088552544992
Co 6.929528836559823 3.5009519854402456 6.631088552544992
Co 3.1977439631196463 8.127646765182385 7.755822094932828
Co 10.66131371 5.73141090793726 7.755822094932828
Co 10.66131371 8.127646765182385 7.755822094932828
Co 3.1977439631196463 5.73141090793726 7.755822094932828
Co 10.474496422195017 6.929528836559823 5.700308150546283
Co 3.38456125092463 6.929528836559823 5.700308150546283
Co 6.929528836559823 9.13951416086081 4.549458527714539
Co 6.929528836559823 4.719543512258834 4.549458527714539
Co 4.604169981506832 6.929528836559823 9.445601083548002
Co 9.254887691612812 6.929528836559823 9.445601083548002
Co 9.02944357384854 4.895952033720531 6.030455678356151
Co 9.02944357384854 8.963105639399116 6.030455678356151
Co 4.829614099271104 8.963105639399116 6.030455678356151
Co 4.829614099271104 4.895952033720531 6.030455678356151
Co 5.657278584965842 8.93408320636321 8.304692475904755
Co 8.201779088153804 8.93408320636321 8.304692475904755
Co 8.201779088153804 4.924974466756434 8.304692475904755
Co 5.657278584965842 4.924974466756434 8.304692475904755
Co 8.13870769913235 6.929528836559823 4.8344846667086125
Co 5.720349973987147 6.929528836559823 4.8344846667086125
Co 6.929528836559823 6.929528836559823 8.8756695067469
Co 5.0352847086531165 6.929528836559823 7.23469289473126
Co 8.823772964466531 6.929528836559823 7.23469289473126
Co 6.929528836559823 5.727735598007429 6.533230166543813
Co 6.929528836559823 8.131322075112218 6.533230166543813
