21
Energy = -116.23228668 eV
Co 7.5747533127797695 5.781592105687274 3.2562747953970934
Co 7.8365234651104965 4.378869295044535 5.041330102218092
Co 6.846673435429646 7.233236245809937 4.875346278361488
Co 8.877480318192653 6.36203538478403 5.52276386280563
Co 5.9023727807643995 4.182237368258169 3.6733649763036027
Co 8.467026484001343 4.561688988677031 7.251082413842596
Co 7.98217022197321 8.573306216201502 6.343002788103433
Co 5.263623605586446 6.330570555954349 3.437940916157825
Co 6.730115063569898 3.119403505503625 6.726805914431986
Co 5.837983006618932 5.214805132119525 5.824664931874806
Co 4.868701349029808 3.0145444544792306 5.376610703908976
Co 6.2729543592626635 4.7243592707332605 8.24533082094429
Co 5.7206766007311005 9.0623144498673 5.750269701317048
Co 3.7294589025933096 5.033932412595372 4.8941749491395345
Co 7.321732801846592 6.552726159451531 7.222864580809498
Co 6.143584065703411 8.450268440810047 7.871388091087393
Co 4.419959348646264 7.212560342860179 5.4156445638513055
Co 4.147039537986966 4.370912686969717 7.150408785312856
Co 3.884611616879969 8.61040083070283 7.177054111570868
Co 4.885206712090916 6.557287535979033 7.645821531666875
Co 2.797141912894317 6.264670873396404 6.720006644075286
