27
Energy = -151.81539795 eV
Co 8.68693645288682 5.656434506601158 5.496566539439914
Co 7.011023051805717 4.545969199273153 9.200592582902056
Co 6.7721449967584535 2.6521916969261365 7.828549787758531
Co 7.447895058206983 6.9973798491462 3.8403490605796637
Co 7.976397388044046 3.4882762232997164 5.950290245705048
Co 4.783148285091185 4.400227067151991 9.003357934271156
Co 6.738037386863382 6.936771973959867 6.076372871242924
Co 5.758143022278351 6.582449757983487 8.266227245242368
Co 4.538894592607341 2.9926280727666215 7.196628649911049
Co 4.232049328144879 4.430181378201818 5.25713564941648
Co 3.8469484291376257 5.578465366271204 7.235791108010865
Co 6.096190125636578 4.716405205656935 6.9332259832213445
Co 8.838088321698843 3.8099186297498466 7.997092420591981
Co 6.0163678817016315 8.673971960954905 4.5304936330144
Co 5.868533232478193 2.7426362108526967 5.328566970360752
Co 2.8553927728349087 6.43229509174488 5.247560311300289
Co 6.668727177430037 4.860287374869399 4.568530784747065
Co 3.7166356680171915 8.700028965622861 4.620659112002213
Co 4.976817173407479 6.588894685921095 4.315149737744531
Co 8.070876972951911 5.945501017691684 7.679155901637574
Co 4.552066141165035 7.596020459919466 6.483743085075514
Co 5.165664309121798 3.6949466924644194 3.1688839120027925
Co 3.3710647240088045 5.112543522155883 3.216786809909337
Co 6.202649230126928 5.6415994445172295 2.4133574832319957
Co 3.1524861195909306 7.400433036502051 2.886678542272965
Co 5.3967363310756955 7.884622399249076 2.4153534404686874
Co 4.274171418622504 6.090400981795521 1.3479275708596687
