24
Energy = -134.43624875 eV
Co 9.62412528194929 5.5731993735056475 8.440576268021989
Co 8.516261800774583 7.234903843626599 7.2357570254949986
Co 7.239830151901026 8.91470918776486 5.98531100552909
Co 9.620041823457548 8.902738428689567 8.437116378582433
Co 7.234856110928894 5.558446996502436 5.985173965654221
Co 8.432771390665705 3.966842763464286 7.239878580139564
Co 9.619711504297076 8.907587231859127 6.039748227223735
Co 9.624049973009956 5.569041802964055 6.034659222949763
Co 7.238582507806768 8.911994080008984 8.488772619050673
Co 7.232889517053598 5.560113108621866 8.487719237589335
Co 8.430723841244147 7.233388120194156 4.811014255550552
Co 10.827351375486085 7.233535544198095 7.233106579272002
Co 5.956659512009452 7.23831200148452 7.2342616294920585
Co 8.427035424870345 7.232080392000999 9.665833915080489
Co 6.042446560120428 7.2410398179842534 9.663938780020317
Co 4.847930896827071 8.899869661676712 8.438081850742194
Co 4.851936016317677 5.570204176096906 8.43299828111074
Co 8.428866432492892 10.516352495890645 7.2410727518176685
Co 6.046178665275481 7.241764607135522 4.809437716179023
Co 6.040415748541332 10.506317367246796 7.239137601536684
Co 4.850886522879997 8.9045227333082 6.031981523609672
Co 3.6460022729241026 7.239510372329721 7.229207844391342
Co 4.854979166213608 5.566310135794597 6.036382785750983
Co 6.04483815861858 3.9565866404984424 7.238202497284833
