24
Energy = -134.02746039 eV
Co 4.942839367913504 9.638781059734034 6.657636760468741
Co 5.338672905239238 5.2478630796359615 8.587207926432358
Co 11.257014828401942 6.633776231869775 9.18582154043871
Co 6.370568701348871 7.981187189203916 5.858753748853412
Co 10.179552198953106 7.786861504114824 10.745571323193433
Co 8.19638201477597 6.436400752224212 5.795044844220215
Co 8.332171484654747 10.360644712314974 8.454803035617736
Co 9.20726852168055 9.933561416340142 10.479990383242274
Co 10.252982444722852 8.668564955532636 8.534900330734803
Co 8.602732526734112 8.649843329912619 4.899697587435998
Co 7.2461618649360435 6.335272546691298 8.091321227373859
Co 7.178311341362704 10.215742194022152 6.277097212435993
Co 9.572411666696686 6.468258624811812 7.716515090897786
Co 8.184329820195348 8.045452112544845 9.649144120523612
Co 6.0400994800569645 5.647980000316452 6.25885202619915
Co 9.019262706389705 5.938022329871865 9.849288382079004
Co 9.61385630535347 10.13730402126894 6.49085968776174
Co 4.931171165597423 7.201604236382155 7.56832084377789
Co 5.970004591354249 7.255199649768943 9.818239111593766
Co 8.326095479823945 8.344088740943088 7.1339670459465445
Co 6.180996631919804 11.138363898503307 8.270573123107086
Co 10.458857058904183 7.976879148695464 6.196587259447353
Co 6.838692078313066 9.870199639877713 10.28842534500971
Co 6.304565695312159 8.88967996551746 8.28028778252089
