25
Energy = -139.31926881 eV
Co 8.06428517492 4.342188468834912 3.2193590423674343
Co 5.620312697631562 4.510202002281071 3.1387098600846293
Co 4.5508186501697985 6.56295516114627 3.671426017908039
Co 5.536070263400341 8.410018671356747 4.939761032843462
Co 6.839111625420736 6.403226553287046 3.6881808315597375
Co 8.685473391171744 5.7467658760060285 4.988226567013819
Co 8.93465272326459 3.5301084237393807 5.413485063300785
Co 7.914864187869636 8.175074865929378 4.8436745629590074
Co 6.778803508962192 4.275704490799185 5.08301961514958
Co 4.559360325729409 4.835904020348754 5.285832319904654
Co 3.823929266854735 7.038293968534383 5.7405980138462835
Co 6.410030154818481 6.557085596113403 5.990225264628749
Co 9.953006133340411 5.086253285423285 6.806051651034222
Co 2.9686233160496878 8.85369658495506 6.6628286203940394
Co 5.746977613609708 3.6196773902290587 7.070876899334877
Co 4.956689120448775 8.184729901736253 7.539623147961298
Co 7.757547443717248 4.835314900596582 7.282295162674361
Co 4.780206384201579 5.642093981316014 7.554353086098569
Co 2.9883685847894697 7.0230277413969935 8.059169487558636
Co 7.051660285065718 8.824856678564016 6.856505138425204
Co 8.66700673532141 7.096874774048519 6.835487936593624
Co 6.913004787075555 6.809521218551845 8.365205387560087
Co 6.216771401935294 4.783571526391913 9.104964100280833
Co 6.320042943187865 8.807617131028653 9.218358424749589
Co 4.852936575253275 6.935790081594464 9.532336059978455
