20
Energy = -152.15128668 eV
Co 3.3846089373297397 4.192591718573904 1.6496957686570144
Co 1.2557897890788432 5.966314372169532 2.950756942762582
Co 6.676100308562416 6.723306561741785 4.177088861365137
Co 3.913647259180187 6.835864892366083 2.844355098263221
Co 5.6211495249513534 4.844835269696841 2.831284080449042
Co 3.105934080300063 4.734238071538849 3.993841321205126
Co 7.032680211030349 1.5346575939252811 3.8953897680028287
Co 4.704080606183007 2.6503467999760986 3.6005325161720094
Co 1.980313080552322 7.900047054869355 3.9923486369586194
Co 7.465393428655488 3.858388849859713 3.9653992023645626
Co 5.195920372331717 4.839438429382706 5.263043373619513
Co 5.535505683349199 2.5588183169677343 5.9093985223358
Co 2.061493085866937 6.0910962236544846 5.704390143429233
Co 7.399076053923032 4.937896821057495 6.128463029263089
Co 4.336341964909252 7.052284180570383 5.129265619471003
Co 3.1830032394715966 3.358242618510082 6.158204723750755
Co 5.930148678365911 6.786584332673804 7.008416797804785
Co 7.90471577751531 2.3079459504611024 6.209943843107704
Co 5.877203262682911 3.9513419705214314 7.785639796572146
Co 3.9499211384542554 5.38878645417662 7.315568437138682
