21
Energy = -116.14092023 eV
Co 7.1978338297083475 4.560915809600634 3.715005093283873
Co 5.874351389658396 6.458783891799106 2.903019224259556
Co 5.023896885226871 4.231645100328975 2.2892216924036024
Co 3.4578926771916265 5.85010806263022 3.017244773151179
Co 8.22226242790319 6.572419368481188 3.41172620466307
Co 5.564861838976567 2.7473010904363138 4.186887161103782
Co 8.618471615226992 5.237772157815027 5.432587717007428
Co 4.450226402991983 7.241208852546736 4.7906247361328775
Co 3.353135471058055 3.521675947677528 3.8296072230148934
Co 5.0245780704746945 4.953738130754779 4.4223838821321415
Co 6.797794000951624 6.661636099968999 5.13154472175345
Co 2.9843649864904527 5.466631220207355 5.461146007744002
Co 5.073179245066888 5.741886997127508 6.601556648430946
Co 5.7012306887045145 7.894082931904681 6.954553378724081
Co 4.241835651024558 3.5312576012962813 6.146687459524415
Co 6.672092415481877 3.9692059628206557 5.9964758029391145
Co 7.270017926673564 5.822104073326629 7.308289517721438
Co 3.4333749723653755 7.314031415937179 6.93270440399844
Co 5.634808750556738 4.117177695418881 8.10869925599279
Co 3.417735398214431 5.094611504527426 7.967874642751258
Co 5.350017594891549 6.375768324231867 8.756122692106418
