25
Energy = -140.02338402 eV
Co 3.127694074950776 3.7141515452173772 6.620372701081229
Co 2.695837937253226 4.236314059026799 4.40794267631158
Co 3.0312840300477717 6.065453568008568 6.069879042343471
Co 4.1785746304096305 2.4913359799884636 4.717688602483782
Co 5.45690437756085 3.004150703795083 6.707961157379736
Co 4.651779895405633 5.214200560274784 7.6298437617539
Co 4.0793740395052 5.672878050557981 3.191683628955182
Co 4.792495685640767 4.722254565751542 5.268331823387008
Co 4.543978524011028 7.521724123563186 7.2214476109464
Co 5.4589130907314685 3.77201512889506 3.207392675197569
Co 6.511820954350243 2.3803267660242295 4.689690209238401
Co 5.147986703357711 9.26582761159096 5.719089431506586
Co 7.259920676288655 10.06442239486384 6.062063146539021
Co 6.159985639042813 9.098686677463778 7.821338578525759
Co 6.3303636015516895 6.316400364914428 6.290520791940562
Co 4.6287522015804985 7.190818883785807 4.817855215013439
Co 6.917721170398337 8.091163807373741 4.777213958972534
Co 6.473910765284633 6.800524405434107 8.52473915341014
Co 6.393473936517369 5.891032043446365 3.8167074760102677
Co 6.709591568827583 4.406587848420172 8.147869182463419
Co 7.254089811786583 4.2301437059442355 5.786280492309654
Co 7.868167703657783 7.961254195144246 6.902652709691024
Co 7.831913918907279 4.15308999175908 3.5694552532612396
Co 8.41948362214329 5.724272763037468 7.350913089200702
Co 8.361145821540738 6.168828855620902 5.018527950548374
