27
Energy = -150.55471126 eV
Co 8.690108091076665 5.65174361629133 10.053872308476187
Co 5.844995435261307 8.62379332619553 5.3754491970421645
Co 6.997986506363197 10.664575209067447 5.923514318895508
Co 6.090075745735499 3.286136804745607 4.125486677350223
Co 4.563452100775298 4.940788088401034 3.8507633986559884
Co 6.790019196171946 5.505507611504361 3.9394802572188485
Co 7.639785841627742 6.3545777383714315 6.01742011882698
Co 9.071145121972686 10.633985867877817 7.247115381419214
Co 6.555236418094793 6.6661718968721075 9.71079318086984
Co 7.1814924046417605 9.066831142819446 8.781829200919644
Co 5.951115925235704 7.592675326255017 7.4687534520717325
Co 8.210505662288623 6.873233573808931 8.186687723713506
Co 6.505768934128819 3.0012242005213747 7.693831201241999
Co 5.397985425898105 9.831275493762277 7.354299833097656
Co 9.603721813038128 8.673785114316454 8.347301396956084
Co 7.991749646191512 8.702726593267162 6.511611654104255
Co 8.480343375096298 8.008584816919564 10.35971788251081
Co 7.090993150412479 11.281210058091265 8.132984029827293
Co 7.31742076481118 4.077397932954193 5.851949424204351
Co 7.5981869600979195 7.763657769631753 4.202169885777479
Co 5.423634276603136 7.283710831949533 3.527697127209704
Co 8.34735519781657 4.5487928670318825 7.977225196267585
Co 6.150915690377568 5.293876153933805 7.726370040388775
Co 5.265061582140496 6.262536120689769 5.624595540130178
Co 5.0090671809953236 4.014777789806546 6.053878483220422
Co 6.836256275646036 4.328093823301775 9.707032234984679
Co 8.843569828957284 10.415901266528598 9.577165460678124
