24
Energy = -133.40865316 eV
Co 7.923845732642336 5.09515942286477 4.181326251213185
Co 6.268356030309971 5.390404109516689 8.039008012763778
Co 4.579504164252579 4.669554850927418 2.9642744750747916
Co 4.556160114559558 6.964881896846874 8.529553205407035
Co 5.832009823446277 6.44041078614911 3.975362141340032
Co 6.341630197346313 8.332214256976348 7.742216018606648
Co 3.803471326651042 5.485352158604893 4.951520028500653
Co 6.118437576672809 4.581597034391685 5.7032786829506215
Co 7.8845463628353105 3.088942043814111 5.300787592284973
Co 5.213987253319447 6.756332017834283 6.356029942571478
Co 6.068013067828209 8.609658050032007 5.237900607034142
Co 4.3890606034946815 3.284792663406138 4.9384945672977825
Co 8.095358894717704 8.898175492742965 6.429467737215225
Co 4.165690983213899 4.706561818531423 7.113593370095084
Co 4.140050708983444 8.73810302294648 6.849553500899046
Co 8.196046144787898 5.078591879646864 9.155622896796809
Co 6.356189121288269 3.442886194825282 3.627116268277166
Co 3.8978596536091743 7.796503577708182 4.6974441671342815
Co 8.222697154372133 6.965445506928126 7.927061684270765
Co 6.742695721371957 5.278539465645599 2.217967762171105
Co 8.198468327468696 4.830093583482593 6.79334684802161
Co 7.525080483249828 6.807344311661916 5.695667027468668
Co 6.665223653675673 6.953215022024946 9.66625634509196
Co 2.884713377622359 6.746195261493059 6.752989261146365
