21
Energy = -115.71116312 eV
Co 8.466304017663267 6.059668382137148 9.04438674454665
Co 9.040087833082364 7.3075125086521675 7.11388354592784
Co 7.307660211367165 4.077112535840502 8.130301756040518
Co 8.719304466002797 9.491614926155622 6.875347080190777
Co 7.5468135021977725 3.7527987127261806 5.644822368387529
Co 7.393588873199852 8.231958846426151 8.538107897545023
Co 8.68935333782245 8.176680874181443 4.824401916862007
Co 3.83121020274403 4.817329332484878 5.132756685706538
Co 6.556602491239928 7.518533573733316 3.98675319770037
Co 6.88642219334636 8.359772393904455 6.22250973459423
Co 6.888787716090127 6.26025974442421 7.443731376039263
Co 5.349313805814075 5.390841308279135 8.801325050279464
Co 7.780990854871641 6.060293420233326 5.297773712561423
Co 5.070282134314857 7.695155518983742 7.770255456276494
Co 4.940249634955129 8.969324897483638 5.378950060272456
Co 5.115787890317307 6.685254608675742 5.603877401746452
Co 5.570470219681589 4.44009130443856 6.571770980979991
Co 9.028140395105137 4.990481163900895 6.966908739992941
Co 3.1983633964145826 7.831553502535649 6.353018964680915
Co 3.7018182778386173 5.812729092347972 7.273372539131338
Co 5.994340983700327 5.036400970882759 4.252680181687622
