28
Energy = -154.11408091 eV
Co 4.287506380157575 6.216022296159838 5.142942363082048
Co 9.58010357847442 12.57098945226927 9.225241466436728
Co 8.689831150822611 9.057126317348505 7.839578496588306
Co 5.346463200615186 7.573983240738954 6.666840041849983
Co 7.3845679137350215 7.093068952816689 10.28117121150401
Co 7.260673466231555 4.503834039404816 6.993546087635184
Co 9.389068836689162 7.403578831092343 9.203789092093588
Co 7.298620046249989 6.815171951057903 7.904786426558986
Co 10.092110143854892 9.976901979289758 9.59568944108062
Co 7.97631432333911 9.295934189492778 10.27618441929206
Co 10.053461942169067 10.924555060801065 7.56716784490781
Co 9.472220773528242 13.05160433371653 7.12236652163654
Co 7.97645191669507 11.074585537943392 8.717914081237579
Co 7.300602839317183 8.624863784362557 6.146931621596733
Co 5.480743152403699 4.198899505270254 5.495667768915197
Co 7.707402013941051 4.136361521100219 4.6791236430480065
Co 9.384936795639655 4.900958613905861 6.190348561812084
Co 6.67261627263439 5.078126460062362 9.28115812754639
Co 5.849709058382709 7.83640302135649 4.452751194755737
Co 9.638142333736665 8.161317514511978 11.260529063039511
Co 5.1752138822425175 5.447072600239887 7.420161349111005
Co 8.98307004691896 5.270027306525595 8.442845024284974
Co 8.849523268621441 11.228777640805768 11.034592902321654
Co 9.363011471453916 7.105473755640816 6.764953594096743
Co 5.263519126173065 7.027283003343294 9.157478962801768
Co 6.474822278675006 8.972706825076381 8.478729678528445
Co 7.503530142849941 6.347912878727642 5.464757473147102
Co 6.076777615775344 5.608091055615081 3.8158723507674885
