29
Energy = -164.12870497 eV
Co 5.813694985876384 4.1613190111092555 3.7931775375011436
Co 6.664516005148421 4.093061042580836 6.009082401903229
Co 3.7154521445977022 3.459673312164498 4.727063224322688
Co 4.599999016565686 5.464065390952205 5.513072280777519
Co 9.407278079959115 7.20080157255223 7.464979447085334
Co 6.926311621992441 7.069138833860461 3.624644463092072
Co 3.5497928564904266 3.8999504356271255 7.042795970727117
Co 7.335536568931648 3.975224706308322 8.283448573613784
Co 5.47244853024344 2.71886019475342 7.429905014530993
Co 2.1406229801653143 4.952844536419405 5.581606313074953
Co 8.647190708949081 5.104912332409596 6.667332337952677
Co 9.324766688083447 9.110869695649676 6.164331586158846
Co 5.237880431352008 7.535306795896116 7.422787645569112
Co 3.4176587368490083 8.608236199655822 6.461401836980696
Co 7.436493395367485 6.310199073179368 8.30407450367623
Co 7.324651755438759 8.84515349953471 5.103572408602829
Co 5.423596572761982 5.194951961592975 7.733307952005716
Co 7.422954594899485 8.493872480282592 7.4059885993821295
Co 3.619177009767959 1.7509687732271306 6.300081759028164
Co 5.631755133145886 9.658313533311583 6.470723514292594
Co 3.223392841466128 6.363830142566519 7.159728952688701
Co 2.9915939937352194 6.992529644258343 4.819701836173659
Co 5.099500709444221 7.889993490918166 5.016192193602359
Co 6.853282111077844 6.539766070251587 6.0136866128827355
Co 8.952175766190733 7.054387500927046 5.173870774465978
Co 4.813545783090517 6.191495261502584 3.3113360573886625
Co 5.5808283071228715 2.2008235702617838 5.176062094836538
Co 7.911310651931297 5.108602331346292 4.240790665438164
Co 6.789212639043137 5.349562616669962 2.1538055257162285
