29
Energy = -163.59514722 eV
Co 8.211633892642652 7.183076677140515 9.949145199444313
Co 5.933221801388445 7.132557162894542 9.67078316280693
Co 8.643276598002624 6.931434421346836 7.7043472158684
Co 9.565264843398499 5.221611772405181 8.989352646887678
Co 7.171045250215574 8.651351011419553 8.330873034618758
Co 3.7403609593419542 6.795032433154491 9.048236351024618
Co 7.280206979634976 5.269435491579467 8.986656566916562
Co 8.339521733413873 8.993493561724945 6.328775498664765
Co 4.917661177465066 8.364462320608014 7.78073223812301
Co 6.092194872867733 9.699844061518734 6.183757709782038
Co 8.806162405323763 6.86143401246042 5.304837367033325
Co 9.723590762102997 5.162520555175617 6.679791507348974
Co 5.088437881815386 4.886002892039284 9.71253303230395
Co 6.512378534755685 7.430040514738286 6.220366847217851
Co 9.574093941903671 8.776721758685902 4.4475507266291
Co 5.303011296609922 5.900191597527702 7.673334352184868
Co 7.419872494078723 5.199358875703148 6.46867923694667
Co 3.7334714222588086 9.408668620611527 6.1197924952875065
Co 3.9540585942933926 7.024477744986507 6.110692270976717
Co 7.350334559803392 8.458126652130572 4.174102287300819
Co 5.011120913458959 8.396709675022198 4.534379145972762
Co 8.326146608860263 3.5644786847996053 7.774753478330076
Co 5.9704745446425 3.6709836209933036 7.655166056631767
Co 5.170742432077968 4.959645004424811 5.606303529243239
Co 6.697013527999503 3.2609708231163483 5.481462138018004
Co 6.841689316738524 6.050024043402821 4.202858692371487
Co 5.687880039717816 4.248013768556184 3.502971255103553
Co 4.436119333191649 6.187206576737375 3.8022596911293283
Co 5.9280794212735195 7.470348328243633 2.622923289889451
