23
Energy = -128.35528211 eV
Co 7.682772667852528 9.055910489511161 7.150232993329785
Co 7.475080381099251 8.840487554064849 4.772097325383991
Co 5.838157630856152 8.168844340382618 6.199360096964191
Co 5.885299327784372 7.876343890295832 8.494924267009598
Co 7.572250535335798 6.752632430203404 7.345431026056979
Co 9.168304985939516 7.706236498734557 5.98097541791735
Co 3.7779829283134188 7.9126894988123535 5.0790986376230105
Co 5.61465398875322 7.354299036165475 3.8121306469416028
Co 3.9829501168055046 7.131219986084776 7.341802177803066
Co 7.090205498287837 6.136619850596137 9.586651582878963
Co 7.510022926961723 6.561520977876099 4.9187509801989595
Co 7.710755879939218 4.4820134508424445 8.134270635100334
Co 2.7049802896806336 5.9583437655343765 5.469952752503329
Co 9.053340043397327 5.2931365299390825 6.254653115743894
Co 5.554810174279982 5.512068531767998 8.047440739992924
Co 3.9765992543196305 5.489644362809948 3.6489844342707194
Co 6.202014732747159 4.995154248374901 3.7041634455496424
Co 5.132229103025337 5.963845347294043 5.644446164967083
Co 8.393893975281852 4.44796223762362 4.216719828542475
Co 6.902064025429613 4.382331376946397 5.980981082134005
Co 3.6978218849404216 4.64859652102956 7.050825128536462
Co 4.78782822370285 3.73809722573376 5.197650571032399
Co 5.571349147481143 3.259940324748749 7.448429665933668
