20
Energy = -109.08070002 eV
Co 8.618951963933185 5.671612728698619 7.125411162901128
Co 4.693839122875007 5.649762231601764 7.934016165090322
Co 3.522168839430246 8.18088873616748 4.856651463921214
Co 4.162399828593901 4.401345592721844 5.952690288985154
Co 5.909838306094404 5.046243432979228 4.295374841842729
Co 6.784545067516608 8.770759207246012 5.6194073172486885
Co 8.697550493193136 8.072686259566963 6.821364501244897
Co 6.475876823589267 7.039620381067385 7.465125737182477
Co 9.118036294804396 4.740773520540337 9.15055204014114
Co 6.334536497167783 4.630701350961089 6.587236931645611
Co 5.670585883005409 7.5781226073642385 3.928640999806014
Co 7.056001237268495 9.182183375615901 7.9152309622639
Co 8.082263971649681 4.352701618999459 5.16458589094264
Co 4.7703719126774065 6.518189260394258 5.74141680709393
Co 8.292776062704354 7.091359437874262 8.894120218949938
Co 4.826397317096106 8.61799217449089 6.787725444185609
Co 4.996140341583624 9.756646191221048 4.641840949457632
Co 7.381165488964698 6.545170379341351 5.259146637346054
Co 8.132571917939238 3.4566077663328607 7.485849890118454
Co 6.9128715765131155 5.135522693415345 8.81250069623266
