22
Energy = -121.75691849 eV
Co 6.823435883151538 8.376464649530217 7.654195075985265
Co 8.152641134571185 7.3726680427239675 4.955690156335107
Co 6.989154433133662 3.745153830643459 5.816545813494405
Co 8.572827686341968 5.401064902916135 6.274968190929473
Co 3.9553988342842676 5.315143696158885 6.038148203256068
Co 5.475134945949765 4.7305776178859755 4.247085833269556
Co 8.422258844443453 9.319984171427283 6.145640389104458
Co 5.985593071666088 6.982086828040951 3.79998770325234
Co 3.762445559461892 6.181193559487056 3.8089949991677274
Co 4.382937011645201 7.559493949915196 5.499033613505211
Co 4.758417054237287 9.128407149596999 7.160289440633259
Co 3.568539626812377 5.117708880728025 8.22064984835131
Co 7.929059283643714 3.8738275664231674 7.904504779182145
Co 4.7621694323503325 3.1877561518680424 5.799921736660156
Co 9.01539347581889 7.458509281380613 7.262152403133878
Co 7.746668714326986 5.292861797286423 4.028047050442374
Co 7.260447548116677 6.038646121470351 8.184129077162392
Co 6.311787276977683 6.142117080011838 5.9757102008848735
Co 8.186813894149083 7.8422801298657685 9.298797787986938
Co 5.628955462681348 4.4303362130796256 7.628162680071692
Co 4.929768007787384 6.888110866323925 7.760026374976191
Co 6.3193295905590885 8.771411114670741 5.384166124812532
