22
Energy = -120.72071073 eV
Co 8.545827470809582 4.790673346696442 7.789696536889731
Co 6.382239875462371 8.230937172886627 7.793895374260156
Co 4.8471777922943025 6.577054842542287 8.040854030052854
Co 6.984575533130144 6.24444849555541 8.942161031553818
Co 4.972682473777217 2.795632234916256 6.490427463348947
Co 3.8776553140553967 4.65581990353927 7.052724341897979
Co 6.275810151201089 4.6285660959389885 7.341655792066614
Co 8.200312986910326 6.952430313319936 7.152198861412539
Co 6.126238856738674 6.7314201156115985 5.981121111936335
Co 7.8879408665759065 5.0444842031985395 5.61268040155572
Co 4.364051233441724 8.17906620844579 6.384963738202548
Co 5.605965359152264 4.473806405235449 5.023712274093355
Co 3.4361230527274635 3.8383217528857294 4.9079018332702145
Co 2.7367393649000396 6.693083939335178 7.277505933767589
Co 9.096187039417881 5.772159818124049 3.7582593313291657
Co 9.878076039898097 6.105021278828091 5.860999127829587
Co 3.81644264180607 6.203517598165793 5.2879903108233695
Co 6.788365321663225 5.930034191809298 3.6383782058304694
Co 8.007823057782073 7.497806407394891 4.86978673446374
Co 5.271426190320191 7.619725554745979 4.05459072318033
Co 4.535106123490223 5.466761801357234 3.193327559851777
Co 2.362107542464103 5.363882664057288 3.6897487919494028
