24
Energy = -133.69266881 eV
Co 6.722263070693292 8.482417241810914 3.968265596647631
Co 8.951963972797662 8.52188512327752 4.8845271702679165
Co 6.882670250551482 4.271313139298934 3.6931456215103013
Co 8.034605436204963 6.5217046325067445 4.320521572915513
Co 6.007627455945055 6.429542641630648 3.205611203913085
Co 6.085848630930788 5.50860860266431 5.416535239514813
Co 4.951224241513502 7.68890432549683 5.153583565857664
Co 7.2257204370758785 7.866949119762023 6.192994216255462
Co 9.43131671857251 6.7560891976969994 6.283885000236482
Co 5.260408418021316 2.5936312992921007 4.115922819251691
Co 8.278740031908683 4.767183278430703 5.879544761565855
Co 4.526757111766235 4.760668386433062 3.9328099668853347
Co 6.80012749265819 3.0439002680318104 5.724156639025309
Co 3.3525915765941834 7.679925384007541 7.2534475003973755
Co 7.7850019813338545 6.110892119710488 7.736995516093694
Co 3.6895939846925634 5.83147644201257 5.884446359152591
Co 4.597903934503477 3.718247417883405 6.078804702667618
Co 6.244312651850616 4.384111523034814 7.618949993104829
Co 5.444783502902347 6.665898409799205 7.356341875137367
Co 5.2375747885608614 8.990885121936435 7.040539289319642
Co 6.810655484638941 8.075368794529703 8.580607471101729
Co 4.550498817384555 7.5388189896355895 9.252021675928791
Co 6.130232940978827 5.867645415041667 9.447117322730612
Co 4.023762913540532 5.088931352957384 8.081620292833184
