27
Energy = -149.88703345 eV
Co 8.489936069523498 5.5904012482957555 3.038504393996532
Co 5.216207098160361 9.081801230381778 7.1649034367287125
Co 10.129195613174826 6.078802139717377 4.608441757426929
Co 4.965050759636262 6.840178239475244 6.6262065140990964
Co 7.771986908753356 7.293002783110639 10.395601200875037
Co 5.1552451816160945 9.110900940345118 9.610519560313653
Co 4.115177601522584 7.152005678103846 8.687751874517144
Co 8.363885339316795 6.075872842172306 8.385003873472503
Co 9.622117682561594 3.91120200904051 4.252786898896176
Co 6.374981509824591 4.641574140956711 2.7272569554377997
Co 5.613542380374212 5.764154356772065 4.656856520629913
Co 7.4241594864543 4.298547085205999 4.75680574412544
Co 5.799461099235487 8.104079673177287 4.901257914964555
Co 8.244508947258785 9.611021948990006 10.431401204930031
Co 8.773267289790702 8.390855594913656 8.51287561397362
Co 6.372924839002906 8.930770067702072 11.527620849260092
Co 7.409240428126985 8.364388976559113 6.499705097514272
Co 6.387106757499725 10.966879002240631 10.346187320945706
Co 7.017896765552331 9.950239430380446 8.424812832331847
Co 9.45895708347365 7.225539515874677 6.647140372717639
Co 6.555210679216206 6.8982763373229705 2.905465979825343
Co 5.493429450831585 6.974139755730178 10.59091535706686
Co 9.054785973808766 4.9707262200643045 6.310894912346879
Co 7.835039681575361 6.705873173013662 4.9108699755469765
Co 5.903394803466999 5.368220398032736 8.877697642083369
Co 6.7770864042198635 5.435870727776809 6.780274558119423
Co 6.458254343836047 7.512991996416965 8.447850758309647
