23
Energy = -128.28912293 eV
Co 5.694362278013832 9.007864387385998 4.775645947024234
Co 6.834468582897124 7.478382729084884 3.1774593101520154
Co 6.940480905638768 9.011254871379364 6.9152923325224585
Co 8.195072028890086 8.84731576936643 4.582375027765851
Co 4.870372435361923 7.812153311352871 6.709114341983021
Co 4.778124723742815 6.717091501957476 4.54236499926036
Co 3.39083780925854 5.838523816089806 6.398090033999805
Co 4.439876764660092 4.1745455177299435 4.915306946109732
Co 4.470936234238669 3.7991088269005404 7.2838816630707885
Co 4.789006173228703 6.107316979454382 8.402478960806658
Co 5.63778091384437 5.45233890172265 6.317213378111912
Co 6.653627405266533 5.2088106808473125 4.212439278567022
Co 6.9340021111301215 6.801685688933615 7.721968104504394
Co 5.740561090720998 8.296269101130687 8.954962144497928
Co 6.911631090759756 7.205826004259364 5.406467299304216
Co 8.858807047948066 7.614951440940682 6.645577731490854
Co 8.770600121639605 6.493799901937216 4.330646850063934
Co 8.221641786904513 8.079420764533287 9.036271962896501
Co 8.090974033056645 5.212069905017282 6.248030529931469
Co 8.80166545873295 5.7891978743802275 8.520606500545137
Co 6.877764067231461 6.292928415636128 9.908835739746191
Co 6.7498835436890605 4.499607503320956 8.156223386409817
Co 6.4631020901004765 3.361927502726876 5.982216380550159
