23
Energy = -127.38628129 eV
Co 6.0055264321025525 3.8490014455367154 5.615158114516349
Co 5.4590930191001545 7.945136748401158 8.756939298955663
Co 5.326764841863694 5.815881559786942 4.546694295053028
Co 8.619394276981936 7.780073937531676 5.853428777399459
Co 6.110206264979196 4.938113890295586 7.674185916305264
Co 7.295472382449582 5.792560666951162 5.784131539604807
Co 7.982657894668103 9.883381073106772 5.121774388305821
Co 4.184815667226738 5.013652792619433 6.334022230379979
Co 9.088985682575586 8.622833382738806 8.017674705376319
Co 8.716205369976379 10.36267619028878 9.492280323744946
Co 9.997846526120634 9.631919575493901 6.179506726876234
Co 9.263417140453477 6.789924122115199 9.471491576105802
Co 6.527267882739122 10.155906299240328 8.905396586770554
Co 8.163130021761326 4.8430094409345665 8.896815467550658
Co 7.501102871275389 8.326525749842107 9.848748772259526
Co 8.21023753922759 10.731488744304418 7.265073123450601
Co 6.7683843616784864 8.958720723441942 6.932557384331461
Co 6.5357892960657535 7.91379493357857 4.843152353093169
Co 8.149340407007283 3.9040626944173495 6.833556972284024
Co 5.371327974472859 6.969509598827079 6.610332779724819
Co 6.564323760597496 6.202181088946708 10.019367226925658
Co 7.421211931169743 6.884097232361643 7.966675615119183
Co 9.371113089045158 5.934153739721029 7.179104685594861
