21
Energy = -116.04531774 eV
Co 8.84460022037714 5.397712771465599 8.123903999189553
Co 8.81195120623302 6.238492626411906 5.891014435712404
Co 7.387786689765064 4.523847807589679 6.566092618297539
Co 8.760345407922598 7.120812080601854 3.7670581829743894
Co 6.576846804911138 5.007936580811204 8.75146361890501
Co 7.156466983619619 6.838384764070416 7.414998204843324
Co 7.659244881972201 5.080397288752471 4.248701203680049
Co 5.097670924491035 4.231919437366157 7.124774192509773
Co 5.8396677231055785 3.5909963301917296 4.972746847785245
Co 6.515005711301623 6.94569231363069 3.3612902304385406
Co 4.316503724592646 4.634206333298342 9.257428243317728
Co 7.313817765289279 7.996686687023184 5.357308387944487
Co 5.529693033739177 4.874815104947791 3.1338909460585342
Co 5.786264118904297 6.069117986349689 5.471592362727232
Co 4.903499829395029 6.478393631971518 7.945892417853735
Co 5.0972139064886335 8.296967172927316 4.679863882931987
Co 5.524027451973554 8.522001810766103 6.905551030157764
Co 3.795518108501919 4.753652110341377 5.246974454330705
Co 2.9997118416095634 5.2384017605277995 7.381536566162542
Co 4.01391443193271 6.480201135198533 3.7496653181040527
Co 3.663050733310686 7.049298101967682 6.077808513523014
