22
Energy = -120.20196193 eV
Co 7.543286661827382 3.4804251199360774 6.166796829733347
Co 8.14278721200797 4.50870890643486 3.958056591561423
Co 7.590353286230439 4.808716512081966 8.089789321732967
Co 5.950628343065722 4.303065655416339 4.779150380862622
Co 6.279029789370791 4.28949314051889 2.5277922241306787
Co 5.6357310746974845 5.191360779936912 6.947959157462167
Co 7.774479411352435 5.735941861968786 5.8985000762233835
Co 3.624060146446905 4.865410446422511 5.690356738399688
Co 7.969233172062134 6.239482529653558 9.779990741530488
Co 6.669019469141438 6.2742705799039475 3.5260463920803007
Co 4.308344780571543 5.180936269294853 3.445174055765256
Co 8.990951762350736 7.744535091251494 6.335883055203034
Co 3.6554918004640196 5.896882991488638 7.884505418757577
Co 7.379507360000945 7.160308134516925 7.817455022908898
Co 1.686418791116071 5.587662317645868 6.576723617070971
Co 5.735171578903762 6.056354979281355 9.110114234622387
Co 6.862481456142782 7.95891112873975 5.544709991094589
Co 4.983631578896344 6.646019756803034 5.042458101800548
Co 8.705637852172464 6.937935365820091 4.174838482236258
Co 5.125318616922585 7.58039023631474 7.362008736769081
Co 3.0660416913380275 7.253329974674511 6.088293078500421
Co 4.764086933130728 8.892197910819698 5.509333360534804
