22
Energy = -122.34154215 eV
Co 4.120899922650304 9.696434320554607 7.670839963967003
Co 4.867931783495401 8.257799418509146 9.342678218528302
Co 5.586566387633187 5.103865180122029 6.614622241356649
Co 6.319399312808338 9.118715672231076 7.671553739901409
Co 5.567207840222074 6.0801861956207155 8.782036570691641
Co 4.712430420345766 7.437836425190324 7.139826505021144
Co 7.542547221846587 7.45923870548024 3.7821463076826984
Co 9.414261222295737 7.302562882114711 9.60567052520742
Co 7.172593928481787 6.773348317621528 7.083212792153242
Co 6.219170639081136 3.8887247321590395 8.556243652555814
Co 8.799656722375593 8.4288637454472 7.69728424378885
Co 5.07719342551522 9.220990444775484 5.625395672024624
Co 7.425251358917306 5.470988637538573 5.003616905863656
Co 7.821647266366361 5.5585875752772065 9.146096447397099
Co 9.0880495610907 7.131477413592071 5.515527627149436
Co 9.611396830224017 4.905133197502486 5.603190513145275
Co 7.175735516879539 7.7994325265085696 9.360116020329702
Co 9.564779161680665 9.306075364277362 5.760539634543694
Co 9.466204951710276 6.142975810139917 7.599601489681594
Co 7.842609335360507 4.469400515008724 7.068768188255383
Co 5.708781188592873 7.062057265288028 5.096780877670749
Co 7.370477536072665 8.847196344033081 5.608241243436435
