26
Energy = -145.84613859 eV
Co 5.752855696156002 10.36066470592637 8.865608178976416
Co 8.304863635510493 4.4989954002137456 4.813104417571439
Co 6.897005590227116 8.939870640677514 4.431938839072799
Co 9.532781381587494 7.991062538243167 4.961678309674742
Co 4.5484736570023925 5.759390851642769 6.779015309821968
Co 5.956249103994432 4.701385035611095 4.5850852399270305
Co 5.41393495039266 7.600696328199926 5.615201898283439
Co 6.893229139272632 5.633567586655021 6.359393435104366
Co 7.044247361763933 2.694196881355412 5.232139244970462
Co 4.20483580667211 6.365290067343173 8.997974765088347
Co 6.021865361725221 7.212596217016724 7.922695924012096
Co 8.003128377917676 3.8688797774470673 7.099454470004311
Co 8.0484423035068 10.735612415408763 7.896254730867034
Co 7.558045449810168 6.737540424357513 4.34640110708591
Co 7.732433924210088 7.85035799999104 6.3584664470356715
Co 4.267445170972625 8.568438370588412 7.6035296375857575
Co 5.660528703385308 3.6550670564186896 6.711866747548719
Co 9.49518786349836 8.59381208151363 7.5235806409540515
Co 7.528356310643706 8.749320416773285 8.821546658423078
Co 6.243432213293778 9.582900609195072 6.811843569399823
Co 8.324700996771913 6.485508522196041 8.307210412584764
Co 6.833005480602475 6.668913064778373 10.089705410907735
Co 9.282848901810063 6.079682737254762 6.2358997901289825
Co 6.217683214602264 5.021592518660547 8.591816997608733
Co 5.270181997261932 8.363834917048397 9.776474077556689
Co 8.485367777501217 9.960216297292055 5.8295966811575015
