23
Energy = -127.68659669 eV
Co 8.119465650543905 8.04258993266713 4.276756113930901
Co 8.849902734631286 5.30716688161103 6.909102696470769
Co 6.585398723878004 9.281748152784376 5.8547564426619605
Co 7.869159725865379 7.576097386687321 6.6590883790612745
Co 7.714222270051723 5.942179358050303 5.048395187327157
Co 6.833005258738864 4.217598866686421 6.609197336642344
Co 5.547009360203429 6.850052800230004 9.759849038097956
Co 5.9237251258108525 7.639431914241318 4.444976706231706
Co 5.925272675528051 8.158300832506812 7.900203274283656
Co 7.247563897137806 6.123727084687124 8.335590163382037
Co 6.904317661772883 6.158682968895317 2.9313943845056487
Co 5.708261777466738 6.332213159559779 6.530742382557498
Co 4.40051332848537 8.27214935032538 6.061379737564288
Co 7.571275386159494 2.349182241830531 5.647927636483364
Co 5.304527604512062 4.925804048036224 8.488338113602643
Co 7.355970073325695 3.940368909035701 4.10568329761787
Co 5.356818362179819 5.205039774460173 4.392034225403451
Co 3.9462495141857237 6.882979303710985 3.695414102366997
Co 3.96599416694968 6.77169225812221 7.9771235197472725
Co 3.399069456212175 6.150423839514889 5.729120217087933
Co 4.277591829388196 4.241313944056909 6.620116965810011
Co 5.397463593151167 2.998834349954905 5.100165368902732
Co 3.2973984440671127 4.217947852707854 4.477772029805111
