22
Energy = -120.12048071 eV
Co 8.888895286787076 7.234499413927839 5.5508460179910575
Co 4.221940400415823 4.691748776270846 7.9091857916180155
Co 4.954370899797196 4.613880612164864 5.7975121046969775
Co 3.299202884115601 6.34533549651543 6.373901751991669
Co 5.528055480551821 3.1294172715601127 8.867223113092352
Co 6.721892969024358 10.377809028547949 6.560620779368837
Co 4.861568521958746 10.418318018087755 7.784647903944259
Co 8.47332927173013 9.583023964544756 5.140312058251587
Co 4.88753875439194 6.918852356553789 4.87715565176348
Co 6.294713339497809 8.65912873493766 8.088613683436444
Co 7.193775248833176 3.633754210683853 5.45771783489566
Co 4.509882725242699 8.589872037188211 6.504035283424827
Co 9.931514737412654 6.932208619123279 7.58620749945716
Co 6.692759170223056 4.536075756036227 7.530464487776997
Co 8.871362601811757 5.003085687637961 6.589187200947524
Co 8.546302942893885 8.91069395323434 7.2786572907871765
Co 8.790980275963333 5.156073537531497 4.347969562255356
Co 7.722294218590764 6.733215676145391 7.697258555965049
Co 6.7177911991525585 8.253660132896085 5.770349136486738
Co 5.459848976338021 2.6089482241827353 6.703331901836354
Co 5.4078691659113245 6.586040737426711 7.254715341332118
Co 6.927262404113979 5.906307446571781 5.3441864562722365
