29
Energy = -164.02839946 eV
Co 8.039813384555647 11.242553342378043 8.41603442560022
Co 7.821879973592984 10.721936753652423 5.951913551994245
Co 9.018451484318135 9.39047141187806 7.475358182269544
Co 6.517015135957774 10.116218061749166 9.798510398165703
Co 8.669266689969591 9.453758871049747 9.813718495235925
Co 6.589492446858102 9.700242434437627 7.580846043486855
Co 9.592831345921013 9.253543175531567 5.249574849892531
Co 5.379238057033073 9.65641185219967 5.703420339096958
Co 7.546271892181275 7.442035371592335 6.990697622818536
Co 9.12213415765618 7.379518026118806 8.828223725154833
Co 6.824853589980197 7.889622579210165 9.238943518961323
Co 7.335188088697625 8.655076214904515 5.0234411536379655
Co 9.954311670679605 7.307002227316999 6.682556797399162
Co 9.04231994011035 7.103987054135943 4.544070536298409
Co 5.172543779354406 7.451106604819276 5.178048587018553
Co 9.881822822372287 5.262391678183674 8.084122169747834
Co 6.9463480940861855 6.175214933664556 4.718801257299317
Co 8.603513270379388 5.45657099982061 6.260817482874215
Co 5.961194062545208 5.510705060306056 6.862110117501071
Co 5.153366599106501 7.830967754193766 7.459111235122418
Co 3.6861224637738372 6.2838983326339966 6.515205796852365
Co 7.661061650024411 5.605793342626075 8.625371067597804
Co 4.806801747994056 5.008204805644077 4.8941608637997644
Co 7.98930215512109 3.556032570264797 7.425116918577737
Co 7.036353272177277 3.9328259070701295 5.313001834375083
Co 5.346515875338786 6.114249641158583 9.071190557501634
Co 6.060494188424756 3.829506271641179 8.587317769817538
Co 3.963074283458337 4.541434668253934 7.908733894717418
Co 5.174752557944023 3.2949212402633123 6.432603794897263
