27
Energy = -152.79941181 eV
Co 7.069946221180357 6.343301260341179 3.0358546438871175
Co 7.267532733099978 4.081901700887885 3.53554041206081
Co 5.010660312720679 5.114987213004272 3.205551292289759
Co 8.572030249316837 5.6566012236363425 4.753797803891918
Co 3.0317602664473244 6.349120800366545 3.3682148939696073
Co 5.028181671983874 7.351302397268288 4.058014606650826
Co 5.541720284386899 3.205376724150909 4.849329331510911
Co 6.220999814363334 5.473538810986154 5.145727369166461
Co 7.681610069445896 3.806924107713408 5.9610955591464405
Co 7.187759498742326 7.7422221663464885 4.943105780802605
Co 3.420981567795318 4.196748487619425 4.542826514878076
Co 3.5855448515838355 6.240789429958537 5.6149756285790655
Co 9.506158189542155 4.776175829781138 6.959478116703772
Co 3.0824620425906133 8.366319886296662 4.745756988303058
Co 4.474900524333979 4.319556271460102 6.630255725360763
Co 6.028209232275904 2.650432518494438 7.071950421706148
Co 7.978092408905517 6.4666817116681985 6.862750548833068
Co 5.166169327101685 9.111144647605961 5.654641574586253
Co 7.250902788068015 8.719545500210174 7.050206613658868
Co 8.1313382501435 3.3380224021792917 8.16807752691439
Co 5.591201056083027 7.113972139598004 6.672492763833909
Co 4.259736561516486 6.0732248478053235 8.177742023908097
Co 3.4918043442415323 8.071947504987996 7.02572208059049
Co 6.436784334839531 4.874983521661172 7.795321985380212
Co 8.357539346425478 5.514486262851102 8.92127576422087
Co 6.465941230051499 7.0180770722747745 8.802462566388053
Co 5.2933755549500905 8.932219416554988 8.201961965717484
