29
Energy = -163.70596274 eV
Co 6.969347791499055 6.106784860743465 7.556306558872726
Co 5.903770686876238 6.717667637200583 9.665866914962923
Co 5.095115361770071 5.7252500340770425 6.081424343736663
Co 9.145195087641873 5.311163589955386 7.948750591499075
Co 3.010944060994788 6.317015660200583 6.721503231795079
Co 6.69511047808067 7.721985510833969 5.879147589292701
Co 10.037044235234067 4.356055175627463 6.090383498547014
Co 5.329846161595894 9.556331906333472 6.604356601613376
Co 7.761680913739598 4.135179079333966 6.265692875051826
Co 8.51380315414433 8.41656258369584 4.673395357797675
Co 3.062953276064653 8.735301524336426 6.678260474387133
Co 7.252703063473142 5.7570519344245605 11.192603574979765
Co 4.711666830621054 7.572016197572212 7.693487049737771
Co 4.4190532343477065 5.404302873965418 8.501894944073733
Co 8.288758992984175 6.838793129741547 9.450167275718442
Co 3.6288774043251366 4.036486779945788 6.641302278974142
Co 4.83200806660894 6.011726957786472 3.790111729812612
Co 5.6152298557549285 3.686597906443783 5.137851470652342
Co 6.41147900762279 9.644885616107459 4.529142531114268
Co 8.63326780389569 6.554331234543633 3.3595974654695913
Co 7.728009828151378 9.768937463963187 6.453121158714353
Co 4.44837730228048 7.865156674050053 5.126838490669499
Co 8.873046435115684 6.210648261319091 5.66370642704661
Co 6.515520317121262 7.5514545361194045 3.5060097923176423
Co 7.243255576504291 4.610513139180719 9.230363509892793
Co 6.817047493481243 8.413094392494594 8.257602431468191
Co 6.942072733906876 5.501893297093275 4.5553899762831485
Co 8.81487443745956 7.853796769777536 7.28246081845292
Co 5.810269972292654 3.9065685259238383 7.479675136186532
