22
Energy = -122.37192432 eV
Co 9.236396879315604 6.188733555070215 3.9664070565274554
Co 9.072600132526516 7.852574139431364 7.736179261445815
Co 7.16505501799994 6.890782719724806 8.852474653983345
Co 7.22539420259511 4.752000928625396 9.703052669270082
Co 8.989898396258953 10.000596010792636 6.777265882781803
Co 9.119386471618357 8.105473947998611 5.355785092885958
Co 7.344284599687088 5.5886362528573486 2.6749744291565327
Co 5.24120652079251 7.911558808802267 5.28157332065956
Co 6.9696975888218065 11.243377833547719 6.885779063681169
Co 5.342450634891652 5.718267569973439 6.222113380053269
Co 9.163058632086967 5.680335817231199 8.652650107267663
Co 7.226415537722227 7.436704869293217 4.016567218114135
Co 5.354843399050207 5.993246460739698 3.8868090941114994
Co 5.27755293767939 5.487500159142796 8.577307307318573
Co 5.2264670378109805 7.662003612658197 7.663197223558748
Co 7.200211557270635 7.191842130182089 6.431692569456715
Co 9.19638129646694 5.907980006107945 6.30167531982665
Co 7.283877052940335 4.967306936899514 7.42914270568648
Co 7.31690146068166 5.2599330701741405 4.968688456625698
Co 7.104635492075506 9.425176381980593 5.489816722779896
Co 5.109731152619906 9.807093662237447 6.7004684986507534
Co 7.071084915403667 9.154451149708105 7.858604883485892
