23
Energy = -127.66969811 eV
Co 6.984480627823127 3.5634802876373044 2.8320956837639595
Co 6.9860339012623385 3.074256251424786 5.054878704134507
Co 6.895856157359971 2.863259734451386 7.447402116602868
Co 5.048762385524233 3.9019429949902893 4.078999255448789
Co 4.9712171026637995 3.392009829496212 6.463578011690384
Co 8.360515957712018 4.83366745421637 4.287811320287799
Co 7.717904305956682 4.739885443443708 6.4675165920088675
Co 6.453189671095958 5.734473130759099 3.4313152855699403
Co 4.0625530518172015 6.067158556814486 3.7780702631290266
Co 5.586510480404022 5.606710095938603 5.646903509118255
Co 3.2924402967198403 4.788203720349016 5.634757887341316
Co 3.564837224983824 4.50316283417316 7.914622598369786
Co 2.5144436215876302 6.96032388520994 5.188326028162855
Co 7.577224682943752 6.9448125178163815 5.242077537667485
Co 9.431546173727787 6.215206672164911 6.154952394340519
Co 5.851714351493585 5.021919486781048 7.9437190020891375
Co 7.560727137750413 6.697138959066367 7.695157189377673
Co 4.006338441423398 6.611296214827813 7.044978667760849
Co 3.363653768601247 8.309307596657213 3.5534558595027956
Co 5.48359535738571 7.758104521539944 4.32892894978422
Co 5.975732054531408 7.939989205049927 6.627487032783889
Co 3.9335813212518613 8.632901066621692 5.785218897466512
Co 5.493124057100193 7.137137168108751 8.744712699253114
