22
Energy = -122.02476195 eV
Co 5.532963226224886 5.607499130414346 8.74097792519733
Co 3.5762053275799013 8.182848223494567 6.89245874856288
Co 7.640499957611381 6.512574556551481 7.363547428990456
Co 3.4384629944955245 5.973434390922053 7.713368419681966
Co 7.062049035000248 7.471211434500941 5.265159224602453
Co 4.393777653223222 3.795177030356576 7.805901019488945
Co 4.501807132129304 7.617981675286939 4.840398664125615
Co 6.200724870648484 2.4250927882302125 7.198183071400195
Co 2.5201565336243497 6.652891846007857 5.604838394231132
Co 5.434461390472828 6.85253217150108 6.810971659085007
Co 6.396388219936919 4.665052377113734 6.840764044387928
Co 5.787617734369206 7.446938950238412 2.982860603412981
Co 8.052211650156538 5.321744172382402 5.345287727870551
Co 5.894350894325621 5.607788146628103 4.4493003934604385
Co 4.004133903702882 4.84185703679415 5.775544834011551
Co 4.467194678386722 2.5312342980131075 5.764025959457324
Co 6.555041628652523 3.276824321919539 5.015211825585304
Co 7.841864713799303 6.425465326462564 3.3054512497034563
Co 3.649893436545814 5.822390832082251 3.6210191218962207
Co 7.13258129852046 4.2298580470337965 3.016691846991353
Co 4.676839669571472 3.7171777944539093 3.6956918388046147
Co 5.3914833137666305 5.387765059284732 2.0955591781830103
