25
Energy = -139.38340201 eV
Co 9.065537810392 8.866859734396604 7.9486597232055844
Co 3.3267796045050564 4.760531726004147 5.4677546535607275
Co 6.836396205142069 3.092704502016478 6.68759858564115
Co 4.751043201694157 5.870577213568395 6.832872998988725
Co 9.227280389798606 5.9384268053906855 5.902059070616028
Co 5.614848359023077 4.205638597053764 5.127024080626982
Co 5.754346262236132 7.823498546633677 5.979186204537771
Co 7.9612873445719865 4.225087927705352 4.823211675082861
Co 4.416493761700586 5.347336556471539 9.030845749137404
Co 6.233811053910759 6.640556931372571 8.59332278539336
Co 4.42057022172178 7.905787548463462 7.901359232898301
Co 7.063736587961798 8.727589281807852 4.263624586435699
Co 4.060709613419273 2.593079675154972 5.511254954183944
Co 4.68160577978341 3.624474087226031 7.38284214882868
Co 4.808964355355025 6.230983247185581 4.293465995599187
Co 6.3998730313651215 4.8382773697397266 3.085850849613253
Co 7.254323323756927 6.429860033522561 4.466209083936745
Co 8.156459401625936 7.895092322634654 6.177949416786283
Co 6.081917837520111 7.269104441133017 2.6839734086966764
Co 6.8005422600183225 8.700650524527981 7.936598551155745
Co 6.513724822460991 4.346787652062886 8.685609086929505
Co 8.521315288475815 6.6685817155826745 8.1839471684276
Co 7.154948074060782 5.402294697710494 6.726574304672567
Co 4.713965201607034 8.522517340572827 4.073296848803455
Co 3.380397573298438 7.370337185133209 5.740003457829749
