21
Energy = -116.14413036 eV
Co 5.733423719963187 7.446636079703995 9.950364220718875
Co 5.669594013426214 5.609065236492567 8.543065698732727
Co 7.714572667695375 6.536047345251347 9.116862451435892
Co 6.608952562121526 4.516456440783706 6.581711347997532
Co 5.381147158262364 8.165412953983086 5.518773472969733
Co 5.6058991699097795 9.952630669871358 6.977049237384365
Co 4.841326375492357 7.871691456434191 7.8042646112542675
Co 7.531965126070406 4.229996696571154 8.680813822045064
Co 6.907534085731218 6.911169578827111 6.829549829813267
Co 4.580227889421953 4.294112372086266 4.930674686037477
Co 6.903110071295819 8.720498602399061 8.433092285140464
Co 3.8554113739956373 6.667624248165687 4.513304188277751
Co 6.025406631006156 6.015040969283205 4.559535454216689
Co 8.767023457457334 5.520387027388105 7.231541754897635
Co 9.635744064045383 7.305738820057785 5.55005968915077
Co 8.977661535866556 7.8613325200755435 7.601475205819642
Co 8.252936367484294 5.535929196329735 4.99335963663317
Co 7.571880914085984 9.089032177314182 6.167234343448846
Co 6.76605632011142 3.771515197787101 4.459794212334294
Co 7.6624066262684245 7.691770925897025 4.415126644377083
Co 4.598844930584697 5.93993435477389 6.506214875844992
