22
Energy = -120.95634253 eV
Co 9.283125440635034 6.173246766062652 8.468170021206534
Co 3.3533844155076094 6.078773560773816 7.7078079957520895
Co 3.483832881095324 8.421961840015253 7.811059771012956
Co 5.303060536612175 4.914968923884093 9.188882857046817
Co 6.30936954548988 7.969204093993968 5.329078800919044
Co 4.701087626249334 7.168693325493544 9.266103461832259
Co 8.516734200775096 7.345306054862422 4.815173407821231
Co 5.994044389605641 4.452061812940359 3.6016180048304203
Co 4.517606747235013 5.079799585908295 5.565788587799634
Co 8.19876153803043 8.333883734858398 8.843152799075957
Co 7.749616369638984 7.18708710679589 7.011572080086068
Co 5.559170161145604 6.151064896304975 7.313635063156692
Co 4.152864566132434 7.3586439958377925 5.898280676130591
Co 9.121216279209744 5.454372410613846 6.012503961817736
Co 6.959564255934003 6.470120671249968 9.262475455518212
Co 7.039434157279293 7.44913354138974 3.0737535675612375
Co 5.856034412331384 8.452900769227686 7.69436639694604
Co 7.4657380148334775 4.863616268552472 7.650569126943251
Co 5.16993361321281 6.507234062680853 3.8614858727832777
Co 6.840042375769253 5.569168728233558 5.403581871270842
Co 8.076999780398111 5.432287428519783 3.5269281629918328
Co 9.979066589015448 7.511936625100601 6.77471336200753
