23
Energy = -176.86496795 eV
Co 8.23292276679586 10.285118156493262 5.04804384992087
Co 9.053751470197538 8.431427220677481 6.5220580505196795
Co 3.4781405099781284 6.308217837472971 8.007298942703333
Co 6.206214022292005 5.545490424146969 4.6295600603172575
Co 9.66703777905814 5.3083774562676025 6.682028076383144
Co 4.836887511101422 7.480773616802531 3.806389959649073
Co 6.430662920347848 10.023020598531529 6.773868712670078
Co 9.38403515830997 8.716707028297993 3.718423816353526
Co 8.528524174609542 6.641151901298934 4.86108747345072
Co 7.627588868652404 4.589752226423984 8.234456570863406
Co 5.288628206620544 4.146229268388787 9.062146526909412
Co 7.210328565510846 6.506463656108698 7.034467326864072
Co 7.7077749960742725 6.483469293527973 9.82216685447661
Co 5.243845574279192 7.808602189090559 6.508806478533389
Co 6.842528304080987 8.2764820601902 4.7305449087962765
Co 5.194771841150817 5.074080273360826 6.709837562126346
Co 9.512979322883988 6.896839815914814 8.434748736873608
Co 4.872129273275747 8.84355075137321 8.784614940072865
Co 5.576362369752045 6.537766526163676 8.932925878819335
Co 7.92954591367737 4.109928361527716 5.513351751259959
Co 6.249331896524054 3.0092319415714726 6.59304616369146
Co 7.342574115068651 8.567392279330162 8.321247039201145
Co 3.6093419702555507 6.314367782223488 5.219234860190791
