24
Energy = -132.83629839 eV
Co 4.252616796134065 2.911619340223721 8.755167390688435
Co 9.286846885413114 5.937092521775506 7.854922385019636
Co 7.276862101619299 7.386260402884894 7.629772080358539
Co 5.718217306402106 3.80976358589262 7.252523023051975
Co 7.565323532051856 9.717723826314348 7.39744792798823
Co 6.68204398482699 6.948038558797221 5.070757024422212
Co 7.712960449476071 5.171947554120774 6.133066079605273
Co 8.099436079005965 6.608369530200183 9.771145264163307
Co 5.542251793181028 8.91848987146112 8.651276886461211
Co 7.2243987318816565 5.012998944408897 8.385997879814747
Co 8.979722303082665 7.337322235869242 5.922811500103728
Co 5.550121181639435 8.50114898673767 6.424274133020084
Co 8.557719922773588 6.195824038975045 3.994223060001533
Co 3.8923647525562326 7.514247085620238 7.8040144351887974
Co 4.009014706906816 5.145344597802082 8.451555560671736
Co 5.430331003145601 6.056410365626499 6.856975183784531
Co 5.6270731834463 6.643548466333201 9.204293348766917
Co 5.668308615105644 4.27228287502439 9.812783264538657
Co 9.541061743352639 9.595382735446407 6.1456203576769735
Co 7.626822365707081 8.856435562257673 9.560120370205036
Co 7.313933087363025 7.970680680394032 3.106584698559879
Co 9.374009373184698 8.277621238422281 8.098176407817341
Co 9.377304766038373 8.40273888489298 3.9417314667779513
Co 7.528529347248399 9.110731415407434 5.115396980417154
