38
Energy = -220.8131354 eV
Co 7.799220901204338 9.22877969995069 5.959408271102345
Co 4.894271447808005 8.856063229588184 2.981046694140598
Co 7.169620434489914 8.411541435222281 3.6441836858632937
Co 8.99097215741216 7.373244375862893 5.0112441886498225
Co 5.569928078370765 9.345943198595503 5.134176276234037
Co 7.182849983874351 7.972141049318536 7.970291340788981
Co 5.492440137022279 6.698220021084557 3.4654687973961034
Co 3.81803932754663 7.834010384308113 4.838287773180214
Co 3.2534542123075907 6.963324834210668 2.7836547349565786
Co 9.444601681449193 8.191875678265975 7.151077582488318
Co 7.711879174475651 5.954818303418353 3.6398702297965073
Co 4.889436270214182 8.025428176369868 7.033286296644291
Co 6.681904122451767 7.202067384851315 5.568567241754854
Co 9.337363303868239 4.945843735676797 5.089989435397311
Co 5.380080434714725 8.67917825314428 9.226767093877726
Co 8.47812463619307 6.161119658721037 7.012980810516194
Co 2.4106129129458695 5.917909778693033 4.7504780077506785
Co 6.103552497871566 10.02190023242768 7.298719569755595
Co 6.132008631931534 4.541050364008183 2.5708037305281883
Co 3.988517617710731 4.8502481627967775 3.3531587945678933
Co 7.044491496773799 4.793783217524725 5.624335947247313
Co 9.502125345860767 2.607190587809723 5.223553184748481
Co 2.82458803989337 6.821975440143138 6.853274678166607
Co 5.474737246931404 3.3857263670312725 4.517541492746504
Co 8.719519662811166 3.7336239870112498 7.044281958221069
Co 4.640167734693179 5.6642328261704575 5.562375174899837
Co 5.966779895357068 5.892659056801892 7.559897186492233
Co 6.319456670735298 6.597303371762578 9.794420832736105
Co 3.294882186366969 3.788002988850601 5.515893799309777
Co 1.5313823744481323 4.863739449909979 6.6199682447632116
Co 7.247409789065761 2.402198912028209 5.8541025002122025
Co 7.845559021347881 3.522629780621847 3.858235779692038
Co 4.182291321056219 6.6978784980931 8.908476474030875
Co 5.401641840826677 3.5576098183398 6.90320932467722
Co 7.676666295458054 4.935985743295119 8.86419833969078
Co 3.5771204240662993 4.786892538760784 7.660620043963189
Co 7.015358231212827 2.791295154797368 8.35010785460375
Co 5.396888230113009 4.372508075414188 9.191990399289118
