33
Energy = -187.49973292 eV
Co 4.076435443344575 5.2831794589434535 8.649890265243176
Co 7.973060038158975 7.891701798317594 8.784754679973915
Co 8.208283061100683 5.521980230016573 3.6326281152128668
Co 5.764703474123372 8.677369158731924 9.434253449265086
Co 5.9880801683141875 2.651607450632187 5.984374518726909
Co 4.095300995314061 7.185349005163195 9.986347417692608
Co 6.078842048999657 6.467585386906076 8.92349089844141
Co 6.055329074496975 4.218336108728897 7.75543184034141
Co 9.34230406118827 5.228964371164313 5.66233292877742
Co 7.462648578286207 7.6086414525601 3.1499825015802694
Co 4.602698914648391 4.392268075817188 5.090795169554134
Co 10.08806187721521 5.063813468287104 7.766471863031179
Co 7.890416454111845 5.867330066554392 7.615787293390505
Co 6.7902244814269626 5.598583170211466 1.904811727334276
Co 8.248369689586443 3.611168629643055 7.1967831595662295
Co 2.248090080893255 7.619602920997087 6.344868498709309
Co 9.553939822231722 7.515160736449989 4.465262464828606
Co 5.45850194197175 6.156837574413144 6.493788316204938
Co 3.028766911509515 5.530172523392767 6.59431566113387
Co 7.044903641297476 4.59817013197189 5.524913447913203
Co 2.1991488894420983 4.19807780221519 8.198516733815525
Co 5.758170190655416 8.415319912461902 4.939419646954462
Co 6.2390556671813515 8.29945119462833 7.248164749090465
Co 4.027810032230413 3.3536476947142604 7.057448178152687
Co 3.9998978492296224 7.550185486041639 7.742308975990647
Co 6.278464709958946 3.9007949937819975 3.5189281756211805
Co 7.5940657181187134 7.088250310801822 5.539159127582504
Co 6.507202578754008 10.270563462740357 6.109413399941245
Co 8.414818892217832 9.047237103569415 6.801665352047065
Co 3.9156948922593715 6.986905550712314 4.962014625440705
Co 9.706108453197103 7.1989137597510515 6.8373185084770185
Co 5.826256176208479 6.142979935066027 3.940386558628448
Co 7.972897730150816 9.298403612436848 4.582524289160939
