36
Energy = -207.18233011 eV
Co 5.90493068771383 7.209010614853962 4.750013574814983
Co 2.2705465999616363 7.2798626100670845 3.473688250526342
Co 9.37592768161788 3.119507572883274 5.52154324058443
Co 5.813327030810498 5.2520322592511475 10.442669704370516
Co 3.75044157606432 6.4265559855796095 10.219862664183728
Co 2.589800917503612 5.037817523803175 4.239880357032761
Co 7.185727101809339 5.3683231118996275 5.9407513470326
Co 7.0482846997558894 3.327642140640779 4.935493017156592
Co 7.746600232760181 3.34087063159647 7.168242694007089
Co 4.358133440872811 4.865407094011849 8.674699153351071
Co 3.1796647002349796 4.735918479072228 6.578272875496325
Co 7.423423424022094 8.97704636101631 5.290932827914734
Co 6.280225006009289 9.079909399342197 3.2751522828994784
Co 9.291500832322878 5.040586126577816 6.845835576639254
Co 7.366856446344248 8.642060434446202 9.009198482666855
Co 4.154373318384597 8.601884593533129 4.14998444154719
Co 6.637652066064114 5.264245525863675 3.5228346767831105
Co 7.596321707314664 6.726456843205206 10.178048685162654
Co 8.916467423778334 7.0757852621811 5.775995240334781
Co 5.464698074979424 3.6954653608975216 6.84435224339566
Co 4.763023162174065 8.369245216795324 6.559493433857323
Co 8.87281106128788 6.911873968582858 8.239548597671389
Co 7.031496319014277 5.3315863656939015 8.372331113782867
Co 8.353934170747255 5.750184749662835 2.129884325608793
Co 6.178021380366666 3.3179627798283566 9.067799414677939
Co 8.838017722852616 4.970240970929991 4.335817074693951
Co 3.275308804931149 6.838760612463287 5.471031089876872
Co 8.036330039924925 7.340669552701379 3.670406369306535
Co 8.885086935844981 8.96870337045557 7.161508172010099
Co 5.100950495444766 6.048558031530243 6.8082254213253
Co 3.2901046332556247 6.899080689027333 7.922016771029861
Co 6.192819909855882 7.116691999484593 2.174391792017019
Co 6.948381883886619 7.592134644366327 7.031940535293757
Co 4.836735571189599 4.713573576636577 4.848620257299921
Co 5.524395023411471 7.174196872224521 8.982826411151649
Co 4.29799645596239 6.370465207371312 3.167024422971368
