37
Energy = -214.50509413 eV
Co 6.391068772027324 5.18714758941368 1.571863348696629
Co 4.156978868677706 4.911777147539524 0.944092705272366
Co 5.050017998174516 7.288320426527015 1.1536498069450882
Co 1.8628065968408576 1.1563411085190716 2.3367436723121298
Co 5.094898736367687 3.6109382226485414 2.8946383856260627
Co 5.125552561621245 2.461858284358326 4.97617667299213
Co 6.651235010426091 7.191002263117948 2.9573651634119513
Co 0.6405165915549293 1.4980834529238118 4.3366998456172645
Co 1.6779046956885988 4.856934461544481 1.0139621867039141
Co 6.569052888096352 5.048683333145854 4.1985811612380814
Co 3.4423989168435765 1.265400144420964 6.24073088696802
Co 4.725393354272223 6.022514144221237 2.9933163707362014
Co 7.335744553887297 3.0189051568611545 4.966104086724949
Co 2.8023556958524694 6.769532036700496 1.8769746210053522
Co 2.7711126794573464 4.662489239261728 3.003691961189968
Co 6.4556689763748505 1.588417402344044 3.1908204961274054
Co 3.0988938984021637 2.8901076964181884 1.462302397584942
Co 0.9207415667706043 3.2756319424907687 2.6871161979181273
Co 4.554418479614457 8.259848201268268 3.2788564834923255
Co 2.671125774499237 0.1836137218010831 4.293982159305741
Co 4.234243428147815 1.295865853999477 2.7833676900005337
Co 5.444904423407422 2.561602031357874 1.000978974272429
Co 2.7454161524914387 2.592404102025729 4.224483397413308
Co 4.203026044797562 4.692029865863348 4.880187341361771
Co 8.006755122858491 3.763681060144473 4.656233652705503
Co 2.8621508259174653 6.734813691424829 4.309820923614571
Co 1.881028826844157 4.796056408304341 5.3144197593528055
Co 7.508963715556973 3.5121316207025135 2.64361608616879
Co 5.1990828260643775 6.815595180397869 5.147303970047624
Co 1.3307261326055202 0.3434174513229645 6.2136999932608985
Co 3.552837988873234 3.5868067998495454 6.798857982408127
Co 4.98857154776595 0.22162077632455027 4.733597121737907
Co 0.8060566197648937 5.676168613096647 3.3212452569072366
Co 5.863018776711165 4.347139245620464 6.4204350037558635
Co 5.39090932795751 2.1845893125916787 7.215250783412878
Co 3.5379050405762413 5.964755884943106 6.629421044345608
Co 1.410888099007563 2.6519131618356053 6.217549444694546
