39
Energy = -226.44638763 eV
Co 5.8480460067651805 2.747280754934698 1.0840869248405465
Co 3.4956202809025108 2.6566415155191905 0.047729901577252494
Co 4.273559403605949 5.053887399134206 0.6540397516982038
Co 1.9728066539067266 4.524628959980649 1.2911123248062173
Co 4.394301029674362 1.0481853203659777 1.86531284167781
Co 5.214006327918436 7.092300120859102 2.379074302144236
Co 5.868692570048387 4.744363509253867 2.478041593844834
Co 3.826514740989697 3.3013509454763774 2.12352532097637
Co 1.789220707463117 2.1793789888678847 1.9858237675710226
Co 2.817378701871297 7.090307916863543 1.3733152582648294
Co 1.2365707380834652 5.992709632746981 3.110996184689537
Co 2.039778484774517 3.858935140794203 3.574247011579868
Co 3.192370613306044 1.6380787267207724 3.906377678373042
Co 7.641728464786081 3.180696413910968 2.834622022008228
Co 3.5006754474503405 5.554057251441001 2.7901234280316145
Co 5.843539512686406 8.155747104525638 4.689240812320235
Co 7.82338470915897 3.745764067108197 2.905495310288549
Co 6.921218349201108 0.8201598092837461 2.5064544835977056
Co 5.579140630804949 2.378692657166348 3.3865075837659813
Co 7.188366821261508 6.272037266363293 3.754522584991367
Co 4.335259624998694 3.93604256321033 4.441184592222431
Co 0.9239655177955853 2.1197370568928724 4.672016477459161
Co 5.037098198274168 6.078805386533238 4.485751481642623
Co 5.1507476071453455 0.27966192301000725 4.167405791052205
Co 2.5855362774706894 5.764091734131173 5.1323345490025725
Co 0.59356416523253 4.370531501865537 5.336657467093917
Co 6.6864822743463685 4.16679206022423 4.810981019006267
Co 3.42722988211044 7.649279171307023 3.828033460778933
Co 7.060027188741197 1.8277388748553918 4.983145529178124
Co 2.634223959966915 3.2898916015808566 5.772122227864487
Co 4.837572685853183 2.028098656350572 5.792000950853915
Co 2.6668260587077577 1.046787357411619 6.1718228563857025
Co 4.131655848769408 7.230943270990853 6.230221581183075
Co 6.4490995405591995 6.043365913504787 6.234854996960563
Co 4.419414681358618 4.873001405570574 6.636496167068641
Co 1.0536665546247888 2.6327679682879315 7.213119184084757
Co 2.0974772811588456 4.889660534338199 7.304872333070555
Co 6.207795908055605 3.467029372349608 6.948455868565503
Co 3.71338735253122 2.872435767112016 7.699740000322583
