34
Energy = -194.97772362 eV
Co 9.166181608048174 7.214463577252394 6.867459294144704
Co 9.570637725770506 5.00707788607749 6.283385288026966
Co 8.642290130530245 5.471232239117933 8.360202344898656
Co 8.68633832357025 6.411647475728617 4.548470211705929
Co 7.455700052214469 8.095399175582536 5.616653020237112
Co 8.040318966525007 3.9677694191791284 4.94319856576681
Co 7.667094512223502 3.6146868261224165 7.245307430408651
Co 7.0691349064649005 7.45213480603015 8.023384431532204
Co 7.161659876699647 7.814564888255632 3.317277141240406
Co 7.224287898284447 5.782189959348992 6.351469206078843
Co 6.516474883065112 2.2836620584443135 5.592326117139597
Co 5.492845822575494 6.865212968193747 4.674244222992595
Co 5.308108552854052 8.186369365787844 6.746957809679332
Co 6.374475465395201 5.301493751380026 8.615132152484122
Co 6.992873158333483 5.45420169204807 3.332250383339954
Co 5.746201289534746 9.326750667580944 4.7242360793594775
Co 6.798561019934536 3.0795324203349406 3.2322376086709275
Co 5.44965163345616 6.494450133552498 2.0313828045501
Co 5.373674062091815 3.5156693864646007 7.300264955634024
Co 4.815650934361086 7.049743812013787 8.822740180656295
Co 4.7438864434245325 2.3325151174985863 3.80705446323858
Co 4.709992014959214 8.407717660875996 2.924944802480827
Co 4.686299112558047 5.825625104789863 6.854256551046524
Co 3.1161083336800957 7.962381326481631 7.202244386952775
Co 5.5990509226695195 4.334248014428256 5.018062076584396
Co 4.77054712419903 4.4344492532037325 2.790478348751592
Co 4.2181689103738425 4.66535567842372 9.044886399965247
Co 4.013151279003676 2.3507972257339116 5.925615121052248
Co 3.534742272056302 8.218382259494248 4.933110879107145
Co 3.5044269967997916 6.313858683644092 3.4850890599929807
Co 2.978045852818761 4.171828144316783 6.9268023281349125
Co 2.6066047421081597 6.032017119962993 8.223403421503393
Co 3.2870118739595857 4.222530366495499 4.604441543633257
Co 2.6692752235749637 6.189600549220934 5.6668084159446925
