37
Energy = -213.75293604 eV
Co 5.361118351593235 4.157005071925504 9.146043451525474
Co 5.517763400014448 2.572622830154555 7.2130790118922485
Co 6.925296834421617 4.696030155295009 7.580868143669116
Co 3.512666536852489 3.0272467144076525 8.412175007577137
Co 7.716259323663797 2.4148834117521507 6.749125815493272
Co 6.055327387561141 6.504596168465515 8.998830266272295
Co 5.422825233563153 1.8167108738348223 4.997811669116745
Co 3.8350672782837183 5.882173135781039 8.905242574469897
Co 3.4615000975871686 2.7083946755688237 6.058638833946559
Co 4.511041800297156 4.664850439324899 6.93899921515939
Co 7.687001015508499 2.121906297800187 4.5113349166295675
Co 8.10107190702083 6.678382210498134 7.73543802676319
Co 6.4024453209855405 3.9655757576232773 5.3092370958777835
Co 8.990415087955078 4.2686195346935385 6.536192380419053
Co 5.843250962667332 6.741521112359734 6.724218918366387
Co 2.1786473103018356 4.738657712915225 7.634458381910961
Co 4.5547069841643335 8.175233122290697 7.929253603302139
Co 6.359443353988443 3.3449218626745223 2.9802386602198565
Co 7.8989048247040765 5.993139301615051 5.580014837369619
Co 8.607035489094951 4.206317376460361 4.216757823543681
Co 2.5933947646652964 4.761501846040715 5.381622694900259
Co 4.31645231960779 3.6307065448805087 4.000641341768194
Co 8.150171871865416 8.274831429225294 5.85589800200354
Co 4.65644694429726 5.812638230986864 4.73329103251819
Co 3.1838250871047693 6.6777082144790985 6.813333266211509
Co 4.1238808060834815 8.28501606738939 5.456065287504565
Co 6.909512343710919 5.539725696111735 3.4029400249662354
Co 6.331610137116543 7.588018872286912 4.542812749165793
Co 8.497809222651446 7.187852320524685 3.6567082115267295
Co 2.8156230545809064 5.4480502895653 3.1550130315450375
Co 6.073602398456432 9.188380897195994 6.249693676294301
Co 2.3162146368479073 7.107212903218598 4.6646726649827475
Co 4.964570827330478 5.3584889650119525 2.320731661847268
Co 7.637664012034628 9.379125895449379 3.823371351354362
Co 4.209761691189565 7.5097557519418165 3.1802324769801564
Co 5.339976824301799 9.537865672531856 3.867140661291576
Co 6.362262076380607 7.533088927883394 2.2712520523857793
