33
Energy = -188.21333517 eV
Co 2.274169426853132 9.583925107348824 6.463041705524229
Co 8.299177537807177 4.687166156619978 4.9234813204299765
Co 6.436593458700015 9.869857447937006 7.2405221287757255
Co 8.25834393548708 7.495274655910723 8.60900674254288
Co 10.544539691356393 4.712988403715028 4.552465406346204
Co 4.600872369649357 9.918585897222659 8.675119146293364
Co 3.483087110691357 8.905006238431081 4.743454572529161
Co 4.364724982437596 10.635295244937003 6.294393464049566
Co 8.618602697007669 9.731238051577423 8.071540968681054
Co 5.022751448004586 7.543054386687876 9.103610261915831
Co 8.693529325810957 8.854221176153933 10.502696384664096
Co 9.480532813376225 6.7840525609969 4.846929220750859
Co 4.707115875948214 6.907364211124601 5.13292173540196
Co 4.1425015916495775 8.415335633572312 7.033555018333735
Co 8.308424174739802 6.0709272539160475 6.760719391762781
Co 6.111603276932363 5.1461228512854795 6.144756697849392
Co 7.041539105496566 6.775875217428438 4.765375721902302
Co 7.639766509399447 3.818942256104452 7.229721153371668
Co 6.916976487482412 6.90480157441603 10.399115624394838
Co 9.858447957128778 4.333277370214396 6.743171123629507
Co 6.299163810068951 7.443994874244722 7.0363840418895816
Co 9.293318391253488 6.57748528480818 10.542085716911805
Co 4.27252027784755 6.037897192704055 7.272208799315404
Co 5.791206809359607 9.0167704292992 5.190602235478202
Co 11.286509484589207 6.154936480854734 6.18737808701814
Co 8.02724282572385 8.572462060351596 5.988460769765338
Co 10.040203161239026 8.008331907797828 6.885286221766053
Co 2.4909298460399496 7.190125735705471 6.065307076661252
Co 6.366365934884565 5.6431206967976895 8.490398737641032
Co 6.691019909054063 9.099912898878449 9.4180379307019
Co 10.318384389694629 6.142092151862751 8.302524828477043
Co 8.504069531440258 4.9855226578708685 9.048255835267428
Co 10.440138869675458 8.326762042320704 9.114930296194576
