39
Energy = -225.95918155 eV
Co 4.620409161053443 5.716460641026108 0.8759516583013218
Co 3.3541254406299537 1.6358708891241678 0.6598233488151339
Co 2.886770985692278 4.030243670349535 0.8785470321136244
Co 5.3876712563263185 3.278036211465833 1.4719028951694302
Co 0.6191343034999304 4.811924684857854 1.3662301057471533
Co 2.5014119318987045 6.2478906990022995 2.0073596282931976
Co 1.1957711460268552 2.3497476834383377 1.8420905905433465
Co 6.383156349598607 5.223851478748858 2.754313454900159
Co 5.071790750936014 1.0388990957948014 2.3156523568563183
Co 4.143048715164946 4.699570884237018 2.774303749023913
Co 4.608068580517974 6.992496685737219 3.114388767857877
Co 7.634633663493123 3.290326388332677 3.258492650738733
Co 3.3868824781766302 2.4986467394192124 2.716528191995523
Co 1.8312566511898118 4.199295700180049 3.127122186169669
Co 2.514474170932728 0.4293256019087321 2.552428001802329
Co 2.396524868597022 7.942050044603618 3.829447219423743
Co 5.479818510894477 2.8988355364519016 3.8623262294498173
Co 0.6129967651397149 6.115474283559541 3.7580306341226097
Co 9.103249944821238 3.7425812405965373 3.3747191090445345
Co 6.183264924521505 0.687645558975422 4.38101108496782
Co 3.8448787061968748 1.1665168281827893 4.602909797916913
Co 1.627523785230939 6.9645914315639335 5.911981842717651
Co 3.2979856443446116 3.4485034375765315 5.027045165451203
Co 2.832783673494332 5.83644724515321 4.428292407807488
Co 5.055554141285433 5.281620505312204 4.805868602448226
Co 1.5449743213032368 2.1047030900873875 4.181270070575032
Co 7.347287519284985 4.927030168839482 4.964001683573705
Co 6.434295943537409 7.0977787616127985 4.633962469305024
Co 7.269158996733112 2.396698292855456 5.449799402168787
Co 5.4508726104692995 3.5469340126124886 6.314242561163936
Co 1.1933748563581672 4.482146836582894 5.388465254886627
Co 4.168787323109228 7.390766249841058 5.486628178137641
Co 3.482076491496949 2.7498556024597476 7.149654757761312
Co 5.242811219619294 1.2716763938432734 6.4052714321295845
Co 3.3879510100764434 5.239984856927209 6.670726284435284
Co 9.103249944821238 3.612920918039149 5.310868808656875
Co 5.867753718270161 5.945945644514356 6.8438480453864265
Co 7.453486789733503 4.247953478597552 7.160200899492888
Co 4.836707907319668 4.4079784881374415 8.293519401198406
