34
Energy = -194.91482928 eV
Co 8.483376569786321 5.0795576499677715 5.217760721479591
Co 7.169375115638998 4.962902652355035 8.984998292815789
Co 6.2291291946972285 5.8056190196627595 6.5086054910182645
Co 10.01369967168938 3.6850342332040325 6.352613368116157
Co 4.990735864527202 9.71651888588436 6.161062127964449
Co 9.987349952262674 8.300934330937313 6.613479956797843
Co 4.404980409625907 7.821936410015405 7.702858760808233
Co 8.010643786726458 10.771355368759664 9.349960187569453
Co 4.575153137711974 4.9476163244009985 4.977963772872685
Co 6.316011650075961 7.087650713614861 8.866277025830497
Co 9.665058758099763 4.857715375249008 8.364708195257933
Co 9.702735500093091 10.398348817187966 7.753292846323152
Co 8.354725687506596 6.4348225324988215 7.400403234818156
Co 3.9657329289696466 5.616960710586862 7.0911152366061865
Co 7.382907277924597 8.68777249463164 10.406104741779874
Co 9.823961226442746 9.160889180052724 9.79598935181079
Co 8.23125363308693 8.705944911555267 8.212920353163412
Co 6.4816867558170825 6.2307725629539235 4.19556178150302
Co 10.407335477671868 7.225769120980698 8.600381207811303
Co 8.682047528903054 10.217674547266697 11.445565853956744
Co 4.817246178830037 5.405334776140131 9.139258026448832
Co 6.5643645735672855 3.851481814668 5.188256527127792
Co 8.27472945162593 9.66865099076904 5.818287649484614
Co 6.551664572763087 10.963586252835636 4.9865085556810085
Co 5.533544688063842 3.848291944513679 7.495428519560275
Co 8.285140736616794 7.36100425173965 5.204930150389315
Co 6.565065966182607 8.18432394547014 6.692064770873932
Co 8.515436297462722 6.74274077195412 9.781837681416517
Co 6.921222817005631 10.723070655601056 7.284460081071364
Co 6.427553369937967 8.687145292914842 4.468767173543328
Co 10.356275632783436 5.97428205685051 6.360809513796625
Co 5.838118958613019 9.372592638518631 8.72799454521053
Co 4.7397117942367295 7.315721601966606 5.406180981812934
Co 7.880697619564747 3.8795619240906367 7.11357536244388
