36
Energy = -201.10592244 eV
Co 5.01958142814797 9.258831261294368 10.637245061267379
Co 4.468902511197416 7.401809410631404 9.465442511197827
Co 5.2380642960724035 6.3174716909969195 7.567998824851277
Co 7.368828966234456 6.547103215438976 6.658278417347167
Co 8.05106372668569 4.5876689108551085 8.134785868744395
Co 9.591712080858114 5.940845260763684 7.267177066071376
Co 10.944792335255237 8.620040147325504 9.748369166355468
Co 8.594503746588913 8.244300616658796 10.047237544878763
Co 6.945555908652511 10.256481372652729 10.116622249505205
Co 4.468218800897198 9.564507611939748 8.444141362070226
Co 5.210498451368765 4.303217181934724 6.535449397972395
Co 7.402730887830544 3.9098173549973088 6.115412971606897
Co 9.680197114282269 3.884277270162818 6.3428480454666385
Co 11.024561851438733 5.713986521982237 5.5092236746886245
Co 11.595598249735302 7.106302294250422 7.384933211990071
Co 10.681785232559514 10.519925954415983 8.477417547247388
Co 8.45698485064637 10.128556451699298 8.510760372743684
Co 6.57495049758108 8.296511102304127 8.754202627246146
Co 9.500199053826492 10.258859249234092 10.574452141630076
Co 4.3758461772435515 6.947215677302651 5.2578681229376665
Co 6.391905390556404 10.486411174470609 7.666188561919368
Co 4.078654790871385 4.825412984367243 4.5201804045815965
Co 3.1848368104283664 5.507798133380698 6.536922009176946
Co 6.242801727379507 5.476792923694311 4.84947968804231
Co 7.777641325692453 3.9288259654066517 3.9270750102831893
Co 9.40853084250143 10.26719315780785 6.348632561460192
Co 7.729644024800044 8.831263940798523 6.557611518749183
Co 8.774688372122586 5.605588546239247 4.9871683942186245
Co 5.521885677434862 8.48295278269074 6.612955050817099
Co 11.409245880264393 9.270948008105462 6.70638605587214
Co 3.58214624516113 9.163381475592237 5.817597496308168
Co 3.2560579733853348 7.688110500727025 7.494014739335635
Co 3.1868272205964914 5.668245806810609 8.781808505619237
Co 9.736613851188379 7.77386741054784 5.6870031080963495
Co 9.600189286075341 8.168823953835844 7.95152357644748
Co 10.303568242832027 6.42682568289281 9.384451261708698
