37
Energy = -212.9665394 eV
Co 4.3916287667032385 4.432622436339778 8.030443882224905
Co 3.7408023103682506 2.018797375180493 8.349408428509223
Co 6.04022011418145 2.7169171024627152 0.28711751017809656
Co 2.1665241752702755 3.8187012647878387 0.7173680716430779
Co 5.914547951949018 5.1391018121814875 1.3914911546035102
Co 4.335698612704553 3.4060752231624827 1.5520168063571134
Co 3.5348771516755653 5.711528036468222 1.5203524523703549
Co 4.992992595874611 1.1561039680537883 1.907682723389562
Co 2.5640342387611534 1.7473127895976843 2.079440317165223
Co 1.288088548460263 5.910816191621849 2.490852564634769
Co 6.375534775661424 2.9167038575245865 2.787733437821499
Co 0.5891825452677913 2.993982119608532 2.516847546645004
Co 2.4901811203400013 4.013190173059405 2.9790300853656704
Co 2.7763621117328445 7.792659659041233 2.5662434569229524
Co 5.085963094318041 7.058326438912794 2.990738693074562
Co 4.967468865861381 4.748544734047894 3.4386645690883353
Co 4.218069153401785 2.4696080771939144 3.646585884480177
Co 3.4767619414659117 0.3722009240409362 4.148189639826619
Co 6.890321913418758 5.4693949517255565 4.166091543246557
Co 3.09976604327526 6.068346962179339 3.9684588454028056
Co 5.7912363350447515 1.104153489212249 4.5600854012346055
Co 1.8446870343538857 2.255808725083146 4.471258508720627
Co 1.213912233179036 4.757220708858605 4.824687263525399
Co 6.259625411147949 7.619661596971567 4.859407688058131
Co 1.3514930159349288 7.3017189530566124 4.5998201976713355
Co 5.931179519652219 3.474801738817674 5.241494230861114
Co 3.4315848491838796 4.136828477849191 5.2362654222930525
Co 3.952368598758173 7.813911707843684 5.102457673623779
Co 3.9484651910731703 1.9700948381964294 5.853462798188943
Co 5.088565792299815 5.789922036208952 5.72531019926761
Co 4.487647143255633 8.3388862489522 6.422394838762803
Co 2.16052497402857 0.6679360141025938 6.328616355231394
Co 2.6752513241069047 6.039482396974392 6.279270069658292
Co 5.863994225533905 1.821886904314141 7.021271593240113
Co 2.0346852102652737 3.0933615650875144 6.719111087850941
Co 4.495987048607881 3.87019081595096 7.233590210437711
Co 3.6497738016531542 1.5650560716148463 8.030443882224905
