30
Energy = -170.27246629 eV
Co 2.52076503619155 4.539978833592751 4.313949560496235
Co 3.753642806308662 3.016453663378902 2.7804713717644614
Co 4.033065221129192 5.335057265840313 2.574023374620759
Co 3.2996527932138284 2.3802345765836956 4.931256112075089
Co 3.6184573656441317 4.214259850206116 6.477371370407029
Co 3.7632696628739444 6.5043409616548065 4.5553094124890565
Co 5.57846245254821 8.071119723358324 4.839916226642703
Co 4.053014768009213 7.639994748455408 6.591631250677241
Co 4.808907575281589 4.184524526828511 4.461039787999135
Co 6.913230553904918 3.998583839248355 3.444642925378293
Co 5.548169097512994 2.0522396260168736 4.183172219726448
Co 5.986938205562286 6.125846424558085 3.637202235945345
Co 2.345284030645373 6.073904332624219 6.372309382305026
Co 4.98653429049163 2.1806806458298986 6.484760750166282
Co 5.760126615720834 9.306337337391671 6.813822939985568
Co 4.13237330438413 5.853194367089021 8.114310597622678
Co 7.443035851703731 9.576355840633134 5.183292024798343
Co 6.703858875658056 3.5574611007040424 5.7556881758026455
Co 5.5414714103658875 5.8117627623829184 6.168140589742818
Co 7.359922177349659 7.472720135599173 6.28818239532577
Co 7.783807916202311 7.584163456391973 3.9801993010738945
Co 7.886908941846455 5.452588811028369 4.988880592052017
Co 5.587361878827332 4.041598226602631 7.806741968355668
Co 5.9070837371869676 7.3824799549176605 8.119195692704768
Co 7.88406820199004 9.172366708261695 7.811470392585254
Co 7.578391821620851 5.139096120990437 7.316152218745834
Co 6.4556352995640385 5.5740096151010565 9.316536243910205
Co 9.314506310312469 8.691688455187332 6.1091438664133095
Co 9.437065516443292 6.409987938693125 6.527830002513479
Co 8.29605726118653 7.0485008360671975 8.478869669928748
