38
Energy = -219.72469476 eV
Co 2.631048166882639 7.668922256459174 6.639032228495336
Co 5.477534034554678 5.784298384421763 9.97518034664694
Co 4.110941515598672 6.618216607181457 8.189330881572781
Co 4.765740294710401 8.519093159310486 6.912932791805812
Co 6.689759601578933 9.586425171288871 7.583376416148897
Co 6.37673026951428 7.228614586498489 8.40641266416329
Co 8.469037246281152 8.063559591961132 7.768481219521371
Co 3.764207406625155 8.678736445084164 4.783042680953483
Co 5.944357498734046 9.587481974031922 5.042511357083307
Co 6.000395922231278 3.5216048402991653 10.06511133033935
Co 8.246915878914729 9.440857174850885 5.834147264379875
Co 7.262536221824162 4.960968395048123 8.710341736779293
Co 8.209240245059684 5.909967807889628 6.774181999576929
Co 2.879611502141393 5.186438728578765 6.806382555545214
Co 4.246451908740665 4.318480126601363 8.701061091505345
Co 1.9159720903856319 6.327883091310639 4.934736021320736
Co 4.33916829041569 6.489648020422567 5.401589319739235
Co 5.721970679407852 5.234970475880822 6.98965223023442
Co 6.753665925573726 7.683124494860173 6.113017488208889
Co 6.759915051526981 5.783598898473788 4.788189639889136
Co 9.607430174478216 7.5217776743853815 5.801517051981793
Co 4.1299791641293195 3.287969795688611 6.558153252057422
Co 7.505255243104212 3.7866867849494192 6.010175445765996
Co 3.419100297261707 6.9091815222819095 3.2629292135884493
Co 5.698840705520638 7.70133461664234 3.713777109995973
Co 8.048109445540412 7.704810597840803 4.098041307620925
Co 9.016012538968292 5.5209355615163105 4.560712619526623
Co 3.195325238974852 4.49014503700245 4.472828020703745
Co 5.441201061105525 3.8604280914752205 4.75640949833425
Co 6.108591424908739 3.0353154216552545 7.83560956338176
Co 3.882621061772626 2.0540971947860833 4.616678880360566
Co 5.111394101356231 5.429701161123971 2.993217381650233
Co 7.29591311893814 6.0471934147949895 2.5616197912951537
Co 7.636583431104142 3.8785233735968347 3.631189604698252
Co 6.037470978260498 1.8782879321170531 5.791803595387479
Co 6.295494787257766 3.8138843976471697 1.778525457150669
Co 4.180480300796148 3.3470149009507977 2.669171682731054
Co 6.0178317063482885 2.1061221271957327 3.3701652811141396
