34
Energy = -265.53778911 eV
Co 4.091498720083072 5.869705491565653 3.861020988167601
Co 7.7859515293729675 4.125275572926013 9.299728774663032
Co 9.43121348918569 8.353502920211758 8.911931475669173
Co 4.703601613882334 7.6306389487481345 9.23033395356379
Co 3.600962222252032 3.5926872257970452 4.340551010858732
Co 6.894902656714268 6.846043906606027 6.127446624117857
Co 7.620362824137311 6.586956622144938 9.878385847817013
Co 5.8235508077960665 5.839645917859907 8.316087993698762
Co 12.239595127985343 9.354610398043624 5.133110267294669
Co 8.121211414818811 10.469164831123532 7.54633428783725
Co 3.2641869683006806 7.722632053118655 5.315150611922198
Co 4.897038108463792 7.990700264514761 6.842003382658906
Co 6.542337317898468 5.4345166913532665 4.011625800427173
Co 5.959171419914056 4.5274307931681115 10.481323567795338
Co 5.381516707750588 10.060081306435343 7.69877452253862
Co 9.061816261891678 5.718265080873434 5.421602483000285
Co 3.0689179138196088 6.323592661008204 7.584779262200068
Co 7.218107637183103 4.402623781660903 6.361338008003387
Co 7.8596465102079724 7.906319889955353 4.088635293972173
Co 3.6401359848875567 3.554065329517783 7.01910529434795
Co 8.731647383983177 8.166577671402354 6.4305949991001885
Co 3.580722518408613 4.8156044661538235 9.070249146267003
Co 5.868931112427637 3.4135338013895917 7.982838072387646
Co 6.842719135398473 9.495835762848168 5.79144009273639
Co 5.5844975362655305 3.1329767974557288 5.273633803836818
Co 10.522188781115082 9.474320336337293 6.939829091279939
Co 7.04235819670469 8.33845970476436 8.312231005528053
Co 9.379028950936032 10.141729967815118 4.863035435968088
Co 11.115802390076425 7.11267083607055 6.785629777485087
Co 10.427061987964576 7.837662282195484 4.558607315592392
Co 2.2618788204856872 5.046617905673185 5.69497674625463
Co 4.834588974434462 5.555279193516696 5.8860439906456845
Co 8.73131468546811 6.211466463735695 7.798768415984209
Co 5.473213426905691 7.758384446190382 4.254808843590656
