32
Energy = -183.05544843 eV
Co 8.744718203917511 7.4137717264191085 5.101531519446367
Co 6.95962570614353 8.000457242473063 3.647236000006125
Co 10.297187996238343 6.456517468660347 6.67453521997944
Co 9.53158037617125 5.094259514633688 5.038267136118678
Co 8.493198534540726 7.8472156647435956 7.376383148539254
Co 6.579749321029006 7.984197800536382 6.034095186204347
Co 7.721139350194158 5.769234718869124 3.6848684098557785
Co 5.9344533734941285 6.422325201502836 2.1838817161287865
Co 8.849009119221892 5.667906609139266 8.20519776677454
Co 8.691559913293327 3.8435306012278336 6.81902777934381
Co 7.479797475460675 3.678841075750739 4.801019108247408
Co 7.45899945225934 5.709398509784215 6.097565575453101
Co 4.79738328926394 8.571828321304524 4.438211941097912
Co 6.740340003263616 6.777636956059812 8.431284339422918
Co 5.807980316442346 4.349046495317107 3.254135760162767
Co 4.109466425327149 5.046002900122343 1.806887152928102
Co 5.549699963298275 6.312473383645486 4.568078431566825
Co 6.719938976409216 4.451656979676215 7.9404402920935775
Co 6.291213025261299 8.980177375973247 8.13202570789277
Co 6.654528938704226 2.5465267521509976 6.693071005420703
Co 3.8139184651546727 6.9865280447157145 3.0167290483145255
Co 5.327140261108334 4.159325553237578 5.703184069911668
Co 4.949313856803436 6.1770143090491505 7.017497595328578
Co 3.3461416079426027 6.91245367201067 5.365844330389129
Co 3.651739091973571 4.922530863890084 4.097661106730229
Co 4.419576996415291 8.52201693362379 6.780386787666147
Co 3.1060765556544867 4.807756198425065 6.434653845789767
Co 5.047221122369905 5.326234479998765 9.407304636896068
Co 4.54252092160404 3.631695439370272 7.849524508102421
Co 2.7401402938186905 6.93904512464872 7.643062852398876
Co 4.582259869434525 7.527293917866238 8.941373576604928
Co 2.879950687881234 4.994193492563651 8.802883437341983
