32
Energy = -181.47067452 eV
Co 7.6534200922721105 6.887330314927129 8.77821596297994
Co 9.401284686502546 4.724339806567104 5.118971729729096
Co 6.524023022103155 6.790384117574193 3.308431688731671
Co 7.392135967351365 5.869596192913345 5.368636655621572
Co 4.187416146440059 6.850985984417819 3.322211548539534
Co 7.34005553948041 1.4756617566473484 6.228625766749553
Co 3.2691880412519367 3.3915530078310225 6.740251394475575
Co 5.056681488732746 6.736034107379385 9.011354264949865
Co 2.869576499996103 7.371479542645512 5.213597177497279
Co 7.114431966917118 3.326247782161322 7.518823840724851
Co 5.097212197437453 6.5970487809337985 5.595586552195585
Co 6.15596264070839 7.944828263629622 7.329994700915749
Co 7.855615574553901 4.913378817401844 3.2565598821125783
Co 3.7963080485943954 7.813493327538493 7.29917156990933
Co 5.621615745487441 4.693353616579994 3.8208787989305226
Co 4.715707639754127 8.92618860771311 5.42033675579954
Co 8.605717093111506 5.164456647210462 7.324298548952577
Co 4.94594599841133 3.82033040033755 8.528799319101322
Co 9.21068832132189 2.9952811903419776 6.571987046238286
Co 5.251672897527203 2.0394106882924588 7.097872185455926
Co 6.9494905158379545 8.239283110211634 5.070014667058056
Co 3.1761645062997714 8.977638940541118 3.606374624128115
Co 5.3484429993073785 4.043401157790906 5.976495923401911
Co 5.414281229054262 8.919013843709166 3.2411329675289315
Co 3.665252086274266 4.759822633348088 2.7158498515709533
Co 7.6449435088850555 8.719637246814445 2.9810368808865477
Co 6.286432902885713 5.5456155927489625 7.544687754405948
Co 3.3628327896753683 5.013189603868727 4.941693514727683
Co 1.8435050485066478 5.798569193579463 6.484608869042028
Co 8.417858809146392 7.4668604663644595 6.725341616228868
Co 7.464180663129729 3.433149731050517 5.065730603761547
Co 3.8611468898300028 5.500548726415185 7.394857025030508
