39
Energy = -227.28122742 eV
Co 8.88033889747103 5.135705453171481 5.657002937546465
Co 9.025900821043228 7.432515912722263 5.206397853717829
Co 8.474194616248724 3.4732868316562384 7.307687222050411
Co 8.096768722532241 6.583684452559881 7.241596709014212
Co 7.99669265344505 4.9744497128486636 3.4766809082671624
Co 7.7667940207460155 3.1706015308237823 5.031497269103475
Co 7.58622409956606 5.092570118565112 8.90948990392536
Co 8.030270470830004 7.358867061688582 3.0623308169738412
Co 7.182619917303289 8.557773501551946 6.705484653147868
Co 7.4719780288878015 9.085118015512395 4.506287510650012
Co 6.872857257446673 6.562816044420893 4.935229586941235
Co 6.2280965675165305 2.344752685154049 6.579966616070271
Co 6.655722985354984 4.681615197280947 6.646108107188459
Co 6.4131297346800515 3.125634524442298 8.674469149265146
Co 6.453048110019037 3.5214216342562854 2.419794261180537
Co 5.549371660501548 6.826153177659507 6.913623473119765
Co 6.092173870176211 5.950308626438314 2.6608160520573394
Co 5.726557167700378 8.160814351786096 3.28884567958636
Co 6.071477983053446 1.8890230642968202 4.183165774427986
Co 6.546305812880443 7.2604684755385716 8.925070684940344
Co 4.204290794719217 4.916069411787404 6.311867955209302
Co 5.059037134213726 8.619702161023785 5.42933027543172
Co 5.675171476090768 4.281476700367637 4.414640261668101
Co 3.892173350450746 7.294974197583899 2.240312459683637
Co 4.105772199819776 4.927042183957715 2.452628458244997
Co 5.222931760016821 5.209564210174318 8.629865147748573
Co 4.194078118528898 2.624664282748715 5.528463053190829
Co 4.33976774769009 6.434830551194559 4.441164123853652
Co 4.250886829342651 2.6975734611744957 3.0718465963283785
Co 4.171208672386182 3.173030806622761 7.859119077805768
Co 5.170677032112898 9.030978503443517 7.7368032471131585
Co 4.119252712612902 7.252975536818187 8.852846584201721
Co 3.334604325212528 7.457140358639512 6.631801842936038
Co 2.953932172047506 4.202486851424642 4.362406673507318
Co 2.9986616422931096 8.264980416814659 4.343311196437991
Co 2.877465347246355 5.394780245073244 8.09033619971687
Co 2.212854599420219 6.186586780036687 3.3638321476367623
Co 2.2141388141790155 3.651404200243733 6.574778508376033
Co 2.048632667877738 5.880361784783046 5.687228796058215
