33
Energy = -189.64909385 eV
Co 4.765488901255405 7.199096036584488 9.860212575458208
Co 2.7040893503796974 8.095357863350861 9.081940187340216
Co 6.6438878991293135 6.947396393575173 8.433225773116034
Co 8.550484094534303 6.668261983340515 6.97406959840132
Co 5.344053301303895 5.038114005198338 9.146408377777762
Co 9.107437537536164 4.46059294979304 6.272233604780206
Co 4.6254703249547875 8.002775977144864 7.672912472769362
Co 3.3547931537695286 6.039299309998821 8.340007034815674
Co 7.306101286803062 4.734316424674531 7.774597435424018
Co 6.556594067099932 7.753614221102029 6.197730744775784
Co 6.009461784381079 2.9206691597468737 8.335023684080916
Co 5.298194531214058 5.7970497111661174 6.927528296364779
Co 4.067453679036433 3.8257591477824815 7.518665698107816
Co 10.397848927253397 6.278801466017296 5.611201489302976
Co 7.242106999464982 5.545237470255119 5.423245538902103
Co 2.476206481389284 7.614818003708268 6.802099118442966
Co 6.020628958828157 3.5035823675442295 6.076294288931482
Co 7.873291613349742 3.3401293381486474 4.596531559530992
Co 3.0034669861502317 5.432320502683068 6.007075725443781
Co 9.125888872518244 5.293856134913359 3.9932436951348205
Co 4.281521385345799 7.355414677548929 5.348575707022767
Co 2.1255677844129837 6.9416587789720126 4.469766442116587
Co 8.530913199669135 7.450894195341573 4.719680772937604
Co 4.931163986245114 5.109192376066994 4.54935277116665
Co 6.254381289431395 7.097269614340166 3.853844325351057
Co 5.60645888017298 2.9722450259867 3.815472849571479
Co 4.044958423930217 6.728247218885737 3.0677770187900784
Co 8.124213203625162 6.80144794217518 2.502608856088164
Co 2.7716451304757013 4.801208232298924 3.757006799275925
Co 3.7617237597915123 3.2095464740723374 5.2826784718683095
Co 6.873470007144823 4.9002387418590025 3.089160356690941
Co 5.9084241213965845 6.475349602833828 1.6136789882033904
Co 4.722983890535364 4.568281799966554 2.263958790384186
