39
Energy = -193.28562561 eV
Co 2.4134374990546212 10.232825902826304 11.20568384334903
Co 4.106441724160542 11.139003704288985 12.558137432693727
Co 8.687076618707795 6.895065308649879 9.589917827343294
Co 16.01280872259962 4.71777471999493 6.401148712047414
Co 10.297990032679682 7.700240240789542 7.621279069915196
Co 16.286468302387604 6.8774327083964995 5.53990098547939
Co 14.312540892273583 6.109992375734728 6.098742122606812
Co 4.459234469993468 10.530286622781526 10.356664998975248
Co 10.520476251827807 14.515698767528084 11.690955929402552
Co 7.01091435954149 7.211160195731955 11.033043626374043
Co 12.224231334039809 13.30690144136311 10.9118142303511
Co 12.318599035004569 5.469935601277769 5.4364579060852805
Co 6.437217941457853 11.09853642258526 9.324874131995061
Co 9.104096807825588 13.251070898259973 10.504844881221734
Co 12.262572047721735 8.543282057065344 4.899475695905243
Co 13.118855939888935 12.979523424145135 15.102633087347186
Co 6.8032380573015825 5.642144817017837 9.244906184673864
Co 8.210647110650838 11.273692968920292 10.927592253071104
Co 10.984452551564884 11.715784965913079 14.176178783492233
Co 9.383113457692218 13.273072955892044 13.301082880755738
Co 5.76733462330183 5.357649002251252 11.289554123381363
Co 10.917563242144631 14.016949375903902 15.00527323209903
Co 12.092912785468224 13.457384333469351 13.157256958220607
Co 12.496656880035102 7.3572846217854915 6.780241774038544
Co 7.857909795101477 4.896751329564122 11.15430879949648
Co 14.088759810312698 3.8240341646938383 5.8392344220354735
Co 11.623406338290586 12.103633511285123 16.27116301772014
Co 8.060490015801834 9.471354122437187 9.499146480085455
Co 14.38999770886286 8.45219633214414 5.848498833104261
Co 12.044945852685697 15.183887313867201 4.805953471780316
Co 6.065771817156294 11.825631494332997 11.532483991431926
Co 6.3320965376307345 9.471269736273966 11.104448098519114
Co 2.0409781515222005 11.930733299192921 12.40702768931908
Co 10.52193253227941 11.98521525231505 11.769828107863525
Co 8.153835644964667 7.78390917815544 7.628238342869134
Co 12.329447931192405 13.128923594861504 5.185534936199572
Co 6.372325427908301 8.029313500896698 9.053704848234965
Co 12.755216330988628 10.594112255496656 5.483139018655732
Co 10.577941541455264 6.998693308161235 5.5684595817648725
