30
Energy = -170.51213544 eV
Co 3.2991004212686947 2.410652904471667 4.64485138303474
Co 5.586794695175398 2.23557172704151 3.948031735681707
Co 3.3453914914134555 3.5898878164940937 2.6577960347086704
Co 1.6375048123436176 4.06747966672331 4.271928403083388
Co 5.035562100155825 2.633607513068157 6.232617211088058
Co 3.080427892317712 4.27629706482664 6.058256399029059
Co 6.870734059534447 4.1954730841832975 3.0791768097570813
Co 4.767391953705104 4.294084044219828 4.3447144550770185
Co 2.9820709717920355 5.72328467638122 3.4581706701231996
Co 6.943223018548364 3.6288070276633038 5.313019666673717
Co 6.991903817099274 3.5995070940481075 7.6835683941229185
Co 5.006949279286388 5.3261938361637275 2.2526998586436826
Co 5.175836545123062 4.826630987788712 6.88427991743341
Co 1.922899252416028 6.1996067023965455 5.58421951208969
Co 9.030965125367969 4.101556510902904 6.423637393658709
Co 4.255058029401137 6.457144610366466 5.33761040673952
Co 7.340890804797756 5.680383523333717 6.534142677058425
Co 3.617200933408318 8.363233879566545 6.458029548318142
Co 6.282130965390511 5.763325699835054 8.687214877309263
Co 8.624596709109536 5.280331037396882 8.442769294800556
Co 3.504123118195128 6.26181541977723 7.538546665584656
Co 2.7084263815515204 8.004083744182362 4.338445321489911
Co 6.288267798847291 6.196399927598399 4.170341506509846
Co 4.582702304649191 7.464792397955748 3.107968292634141
Co 8.453780789257646 5.3797297671213355 4.489058342313804
Co 9.5509024313143 6.430002014756719 6.50558782174861
Co 5.6489012448171625 7.3558629224301075 7.07157554036141
Co 5.494589523062716 8.431024836474347 4.965283543241018
Co 7.891287732976929 7.4728513523458755 7.878581271461771
Co 7.666375979221732 7.65980090855181 5.456054702590494
