31
Energy = -176.56804358 eV
Co 8.562895228456783 5.793521110988435 4.0600166635848725
Co 8.308966901586421 3.2847186875052072 4.3057804833076245
Co 6.522122995635225 4.5334951599193225 3.657547845620747
Co 5.772354907107075 2.4538262204036068 4.395071017116133
Co 7.106221833375491 6.805344923684321 2.6002013685331318
Co 6.4384448243819925 6.541417497366648 4.863574108435873
Co 4.87315800515055 6.2884321358038315 2.9909176949667975
Co 7.782703448054484 4.779951704544225 5.963565842729042
Co 7.190112098373582 2.517063598026128 6.2277964344928405
Co 4.196143553201444 4.178350767048485 3.879282736467608
Co 3.2091080286140636 7.789503313834775 3.748572610283325
Co 5.121153404225119 2.271591450867702 7.274190165069861
Co 5.389061333245397 4.221768891247541 5.9127067314578055
Co 7.8132788658342545 8.32271755419486 4.175131881373023
Co 5.472765257515878 8.433016449813579 3.8990307595304037
Co 3.7022454420463196 2.52483912935278 5.536354643418527
Co 6.71338035904644 3.938248487307413 8.020536909862015
Co 8.946200683238104 3.5143840603005305 7.454084784898084
Co 4.123906591437443 6.197486410470671 5.188683815943731
Co 2.922325651072119 4.596901884365324 6.220709121564699
Co 8.281920544164908 7.12791571420075 6.206493864872737
Co 8.226363630160632 5.695887353338092 8.082887862484291
Co 6.4303171144981945 8.555788144040815 6.123443577635568
Co 2.1058487881504506 7.08037887445537 5.881118174616072
Co 4.042552353826774 8.493757111950845 5.801028877466856
Co 4.365488827064745 4.371327217638507 8.002883116649562
Co 6.0383863389239565 6.243974560471271 7.2962173704154205
Co 3.6491207832455763 6.527644726594046 7.510438981773756
Co 7.389960401096634 7.9494046678804295 8.23241160903578
Co 5.061773340080598 8.29940419936518 7.983235150418963
Co 2.6916347602878057 8.620461667453064 7.586467260092012
