39
Energy = -225.86611382 eV
Co 9.335638739410816 7.597637564267546 6.816244738120937
Co 8.133458418532683 7.373770974534649 8.887653253181714
Co 8.875190748910198 5.547183281089334 7.7952690626333645
Co 7.187095470112132 8.435973646321061 7.022673609796108
Co 10.083057031931412 4.130967882727143 6.268352639395947
Co 4.977787058231085 9.482439569000599 7.568702827378576
Co 5.8643945268214175 7.348045576457401 8.616700393967562
Co 8.818197417056139 5.801204744111991 5.374009584198742
Co 6.658162911445787 5.049955678043766 8.566636008681998
Co 7.824574637131766 3.755278368266603 6.771289161730075
Co 7.871348938334944 7.914401160096009 4.873697766226979
Co 6.75075665727755 6.098838715478981 6.49781165906692
Co 5.933110728737606 9.34779077473332 5.284485687474722
Co 8.982944178817512 2.1653343197300083 5.530019862517587
Co 4.811770323719731 5.947483259841649 9.948221216849076
Co 8.995511733216722 3.886742098951024 4.04350215781114
Co 6.78847187887971 4.281966233572632 4.71331143324291
Co 3.5444833024495184 7.6399508615275655 8.409398013457109
Co 4.072882461194709 10.639940578534032 5.7580384133028035
Co 4.410364586724901 5.520123779676816 7.798329365908318
Co 7.737153092530671 1.9990002782231648 3.488253825351064
Co 4.8449886452208935 7.573392944143994 6.353201771131487
Co 2.8101678740449985 8.89508841851572 6.564470076321215
Co 7.221051641424585 3.9157572707321378 2.3319452057017322
Co 5.472654889945087 3.644083679104164 6.836013776979722
Co 7.66208745387269 6.018422547811934 3.3671522539983245
Co 4.747331071101606 5.321380907686979 5.355052803640854
Co 5.770274107674739 7.1654991149057015 4.199539022836977
Co 3.8140128724873215 8.653745565322263 4.473902209857333
Co 6.605881439989798 2.0611588446849582 5.512886949605651
Co 2.7362974332095518 6.474609659283884 6.326549448492135
Co 5.446593968133444 2.7568148081961303 3.558196376228132
Co 5.301742993070165 5.1572042351195515 3.0194675125916293
Co 3.025179707692927 4.115269721021869 6.389079348344913
Co 3.338640332580733 6.3911132611731345 3.878290664309231
Co 1.6638612968726825 7.786749413164878 4.798604335141811
Co 4.173033209059385 2.245289972386696 5.456027341045726
Co 3.4140978987504695 3.952145924948418 4.029162491934777
Co 1.5873473455001368 5.199843388709843 4.809456753642579
