36
Energy = -201.54193002 eV
Co 4.993582603024708 3.4214104042537867 3.2205891897360917
Co 4.803195956507168 4.151109891014335 7.92175370451462
Co 9.737802873662746 8.194077772417888 4.492481794673964
Co 9.255626535061902 8.20305558846333 8.452962488950728
Co 2.4835396340657048 7.6268629462022535 7.280859292499074
Co 5.103404402546937 5.6310034387765455 4.1747743189183195
Co 6.21258694545607 8.822126018150186 6.141593083911875
Co 3.1060643338444778 3.3964463605395863 6.673247964295699
Co 5.7774832422653875 4.513838888683639 9.904602004919528
Co 7.049532123631847 4.479669138040622 4.261568951672048
Co 8.174789953658852 6.279027386984228 8.248904265551655
Co 8.745232324611042 5.280216595021693 6.133654035856208
Co 3.2458236244124796 2.3831883328209216 4.543691432188654
Co 3.5087116715583813 6.523832993563653 2.898154521631121
Co 3.0399558189369413 8.693459631014731 3.5832415144878107
Co 7.005883600946007 8.337860464701464 8.200356296639814
Co 6.5384416918154225 4.882696637802863 6.596691046509958
Co 3.908042307561939 8.39820048698857 5.728554449720946
Co 6.809271363915161 2.2508601607459906 3.780246961078041
Co 3.053814292620859 4.631718053705786 4.46903730315468
Co 7.448265258354693 4.097018035048959 8.490053008939844
Co 5.8855242831231465 6.238283222734398 8.441250956268098
Co 6.746244348096728 6.741120487169945 5.255046633658603
Co 9.633488065899504 4.517342688891064 8.028976064604507
Co 7.5044219722201095 8.623855891176277 4.223516426376011
Co 5.107150380787691 3.505700653202321 5.495839933832048
Co 5.2350255677616495 7.971897877783426 3.8976295347670344
Co 2.400129668345423 6.867168727861161 4.866371051116312
Co 1.2456921614416625 3.5551896566628827 5.471458923383462
Co 9.421713528051743 4.1293318832203605 4.224417152041323
Co 4.285753654463032 6.069623593564747 6.526288483182392
Co 2.0765441669417393 5.459231519784765 6.597522826135539
Co 4.683096663723538 8.112134465807776 7.91969818974745
Co 8.571847834744771 7.752624790936318 6.338007302312963
Co 8.712089035555966 6.272419669044535 4.020056669778156
Co 8.130582422779002 3.5203517249315484 2.5425748181270778
