35
Energy = -200.58234569 eV
Co 3.127906207043142 5.023153587223344 6.157736347142134
Co 4.367514605038498 9.315139691198432 4.409066085228762
Co 3.765105328819485 7.097553152693311 5.007522723311027
Co 4.493561164893272 7.489077283720094 2.895823896445976
Co 8.183208308103902 8.811226321697196 5.128213007467781
Co 8.907654135140877 6.06368341880589 7.931959729684125
Co 6.544047369507224 10.433189666568387 4.795618246818385
Co 8.907636667446504 8.312244176504242 7.250824583606591
Co 8.011653475276466 1.4161001732764003 7.754832190961074
Co 5.166323180087238 6.3474257926847955 6.75235389173753
Co 6.165107322861579 1.2871038088061217 6.189446690639478
Co 7.013429196786301 9.772001456900897 7.077419736809235
Co 8.322664776928642 6.910346870513791 3.787515084497968
Co 6.482515774349671 8.554312752104991 3.3929387444327173
Co 3.0724274568546113 6.865761565030257 7.622019734814265
Co 4.570087278436463 4.657834187190206 4.463115451810138
Co 5.942732241289156 8.315754030973054 5.680935787659206
Co 4.531771018360593 2.9856142173850015 6.195057416154263
Co 9.210415925826092 4.730635527969442 6.017468828066334
Co 9.870411176030377 6.905084557297111 5.614882928926667
Co 6.831976228455725 7.641389532191927 8.009196823652298
Co 7.61887668360019 6.5300829975031425 6.024776812677829
Co 6.052528573369308 6.378687839593644 4.210216308446897
Co 1.6329013373712868 6.833334348933318 5.804064851316661
Co 4.468144759597998 4.543833406548689 8.028757904962971
Co 7.982875612308404 2.7128490275090544 5.889556221681169
Co 4.9152444284633345 6.664578896989004 9.0952696859896
Co 2.805801376350388 8.808661792042843 6.2102408925869845
Co 6.742856772577538 5.263110235270206 8.349904692395707
Co 6.221428550517138 2.9218317114548746 7.886732399072354
Co 6.327611136165837 4.427667592373702 6.093222474268134
Co 6.125155117697571 2.7829683644592462 4.407195175974954
Co 4.663628510634543 8.631520870263667 7.577318795620572
Co 8.501358642683947 3.703478193183919 7.985291548584719
Co 7.717764184182491 4.658338492226846 4.239722918067531
