39
Energy = -226.68151082 eV
Co 7.0288413273174335 1.5958617207585029 4.914004105179282
Co 9.100409715670452 4.505656325189666 6.038859621324692
Co 8.372446522176258 5.032563398612937 3.762254276691197
Co 6.829722909111768 3.1417927610352407 3.0519593282407778
Co 9.450589199922202 6.168637554046676 7.611638936617668
Co 8.256101187877793 4.5224491775897775 8.932583627769814
Co 7.652066107106648 2.9512109874247323 7.241437266747041
Co 7.84036512556813 7.244333479383649 3.1754637372662278
Co 8.503956178005428 6.771446789413249 5.510479740208708
Co 6.386999299165702 5.391680413248406 2.371868729156795
Co 4.959136861081584 2.074473814231817 4.01595117322017
Co 7.028218403272067 3.8468646887705638 5.247075067174138
Co 7.217818614366567 5.499661944254072 7.137750096657941
Co 8.048945814842668 7.067506791958059 9.11946274130167
Co 6.419961167304109 6.069366611079346 4.64214184250466
Co 7.430289232087653 8.134059004562012 7.239846254102426
Co 4.809621432503775 4.36358100925123 3.977670596697246
Co 5.487366103337744 7.553141399608325 2.989302108604081
Co 6.720841569678906 8.37863744892193 4.996305963912119
Co 4.939380500098977 3.600687681073641 1.8305942427526916
Co 4.0161901270731 5.880713824000457 2.4179125994233823
Co 4.597514275445319 9.065346122518648 4.470546923936594
Co 6.259197360711748 5.792970370387605 9.389661826871034
Co 5.394671366738511 2.4050251694750866 6.365780649231298
Co 5.4943458310290225 7.032717398477594 6.63495419542113
Co 4.985006258711719 4.733687995994413 6.315706670509436
Co 4.013308530033264 6.699480271712499 4.830580523889363
Co 5.078379840245504 9.276886528102354 6.757083054475376
Co 5.836630194292344 3.792489438805758 8.332952794460859
Co 3.318025588761262 3.2508532016625242 5.443714487078748
Co 5.50619137419147 7.921056184504102 8.745231853571465
Co 2.5200318292896537 5.0075505419832105 4.061123085446507
Co 2.9656596646611773 7.890081149791184 3.155747751804697
Co 2.6716998914886565 8.907450906803101 5.544180795146725
Co 4.234144170265585 5.726237485321303 8.32068109593361
Co 3.5693368926177853 3.493174138104299 7.7436558855768
Co 2.716407793372356 5.417592974280077 6.432926024543472
Co 3.3547974100000535 7.6334337862758845 7.250486070815328
Co 1.6637282469186798 6.9710182823358355 4.960830921213545
