32
Energy = -182.6289586 eV
Co 8.397221155028307 4.491415310688835 9.435739401902943
Co 6.09776006212261 4.8770327036857575 9.214782842171093
Co 4.973738428648955 2.8437779974272885 9.126406177434541
Co 7.6131667258848195 6.420012895802106 8.370606069298677
Co 7.098629090857156 3.056835617277551 8.183882562004657
Co 5.333599460837084 6.775631883213438 7.813663082093841
Co 8.567335185661689 4.651691081985582 7.126087788697018
Co 4.134590507769286 4.666473409501267 7.885419775660361
Co 6.263538402046261 4.859875612289385 6.7513527285817645
Co 6.769015207453821 8.607218362198994 7.531764641929351
Co 5.135110832919462 2.7812178461919683 6.832769928642936
Co 7.338685103319616 2.966202508033294 5.795090479578822
Co 4.535504420406401 8.661663264012233 6.61695995681984
Co 7.53583945464081 6.8454726057152095 6.1073809897760585
Co 3.2699143042243395 6.4714509038729435 6.671601769260574
Co 8.124696624118663 4.9644414706725 4.802093526040362
Co 5.760890847322862 10.569194052602153 6.5679942850489
Co 7.414026847126997 3.0408826835950444 3.4912965375778504
Co 5.940449304003402 4.82025280608418 3.7874468913301627
Co 5.343420620960359 2.645552103666643 4.527865384939226
Co 5.261362445865545 6.70081068220744 5.342411835496803
Co 4.465855446110915 9.947646221903861 4.65917443192289
Co 4.085013230958237 4.523224588570644 5.489788767919473
Co 2.20882246519926 5.6774635686148684 4.768120485032658
Co 7.867008739304594 5.134172892239548 2.482359408786587
Co 7.134445103188013 6.922730434780708 3.765484399400776
Co 3.775371897369039 3.8476598397716644 3.335329503781613
Co 3.9626137876611014 6.126184152178658 3.3948337118524385
Co 6.4865185922173705 8.809872570257621 5.236371671278238
Co 3.2422022482331956 7.890913998922695 4.789283749362465
Co 5.781122478931126 6.308458092576081 1.9696539922315908
Co 5.18818910670778 8.141755842378071 3.3517185186767393
