39
Energy = -225.27027949 eV
Co 8.112527018830251 9.71628944259177 3.147399721663087
Co 6.018337686829921 10.132621426954897 3.9733957039975767
Co 7.711057047934546 9.313143480082575 5.40139670016994
Co 6.487087855035945 8.057745938209893 2.9396527657479816
Co 5.488599699175732 9.324372791543022 6.154159138991204
Co 8.687040576480676 7.6712693135077 3.984281796462813
Co 4.4806408539419715 8.321635023804262 4.154316062847704
Co 6.356107228846119 7.300312859305729 5.184646673626157
Co 7.061546236714309 8.272479270895614 7.513452359274318
Co 10.62926456279605 7.154972230200052 5.315007059623914
Co 5.084122213605452 6.119310090404036 3.3648404156845975
Co 8.640253787415817 7.213570925645476 6.2981924783529095
Co 7.400456478733823 5.8181464904379245 3.4348451997136826
Co 3.0002990949671022 6.473489685012505 4.335755604853746
Co 4.826652367200823 8.458179359316476 8.347124854541057
Co 3.951798402739248 7.568590210627539 6.330166279570371
Co 9.487452726926872 5.393107652477209 4.533904229990412
Co 5.660845678326882 6.391333800064876 7.508448998720701
Co 4.6995748540453555 5.369217354375777 5.60915744864591
Co 6.5715570930972325 7.215331130520001 9.539680611946508
Co 1.4114549447600546 4.828720327229811 4.689145841051309
Co 8.250637265728253 3.609072743514197 3.7174118632752733
Co 2.4177088288123216 5.820244991892072 6.539098355251085
Co 9.67431283081785 3.2122259060055485 5.538692741562392
Co 3.5290641949654904 6.541324028216064 8.590444146405746
Co 7.437875402624622 5.142862039246477 5.7550124302158165
Co 5.976925760478596 3.999797634386588 4.096136585958628
Co 4.034927553842971 4.335787381981045 7.782204004351369
Co 7.8456740012318384 5.809595323563036 8.13236162832686
Co 9.79694335855011 5.238397056528224 6.8001039072954885
Co 5.590915273537577 5.102848219391045 9.4418481246352
Co 3.556255989373472 4.152843930390137 4.0038938713846814
Co 1.805659373549568 4.494017270184459 8.265671415548727
Co 8.58327489181978 3.480166343342604 7.591429110407127
Co 7.307195521153066 2.7927876696500835 5.717924710073431
Co 6.328634622199437 3.988074907671234 7.527197357406099
Co 4.889078493441498 3.0135186485498107 5.87967237788444
Co 2.5788878925820646 3.5063084199878047 6.113268183870298
Co 3.3378876548189744 4.790184000070178 9.971366506155004
