31
Energy = -175.97682671 eV
Co 8.992781972652834 2.9660227790070204 6.9441908944812125
Co 6.847885787210667 3.7776998201333765 7.620267597594266
Co 8.61383642095456 4.642810730985186 8.868171846542353
Co 4.619715788898195 4.43598715423897 7.845423534563596
Co 7.384093850385791 3.5374791943527866 5.308771680207145
Co 6.517088964805542 5.816671490758137 8.747550397505988
Co 4.40029931286152 6.659045577512259 7.926237740984245
Co 2.5168664783569548 5.443494478792828 8.39480640911509
Co 5.136038734030025 3.725983035856209 5.713825996266367
Co 9.68724076791553 4.085413355263357 4.96931853971018
Co 8.633994429760538 5.210071350916847 6.68519306950328
Co 10.000540673548224 6.352889949325625 5.163815121383918
Co 2.8066165552244566 4.477110059905024 6.341411337790282
Co 8.47750926933728 6.945266245240402 8.22102091040542
Co 6.2202637610589555 5.757211457334429 6.36640231841501
Co 3.4050597497689625 3.588889271269443 4.250922412521365
Co 8.137875167253824 7.440567685241092 5.8568623624947875
Co 2.5135891409083313 6.746762823481231 6.452902052000194
Co 6.41689739835359 7.905146326273226 7.567811519383169
Co 4.1925596151895075 5.867786346970348 4.909700638769834
Co 7.932706936555135 5.546006662993672 4.293217855541725
Co 1.9660652318829315 5.6202482607248525 4.370647934739401
Co 8.329051883572262 9.145631485267872 7.329104178219476
Co 5.818246592185738 4.81854215769818 3.672265579643532
Co 4.588341665779426 7.982493789180063 5.968995660490247
Co 6.221150156244252 7.2217880839185 4.4212394047467924
Co 3.5337676877023356 5.149692373491568 2.6550930387180025
Co 2.9222728178801245 7.766896704082799 4.274999886314446
Co 6.601312054818027 9.207397005301345 5.615766006480078
Co 4.608238266269608 7.1070655019482585 2.8502519296143127
Co 4.864874295011896 9.159401118815008 4.002624941918956
