31
Energy = -175.97861089 eV
Co 9.523053281156459 6.054238330171296 10.167370378848208
Co 9.846384819305241 8.354517892464045 9.955833358218788
Co 8.810342306043154 9.23260193394184 8.018505452109164
Co 9.496010722948267 7.005996913822834 8.064979056236144
Co 9.445244941675863 10.0620745928716 6.063144290421628
Co 9.839143681802692 4.6508619793204025 8.308519505471821
Co 9.088880843597575 7.81622512935526 5.7315021851274315
Co 8.427441832667572 5.498169229177535 6.460237672007273
Co 7.695928762293264 7.780158468205052 9.613393640121101
Co 7.19555022077456 9.754234248190128 6.352042698076496
Co 7.867887472223942 3.5505065121279658 7.657071597783582
Co 8.043279098562413 6.158559492241709 4.244013699111962
Co 7.738814844465859 5.549571495841295 8.821415592005062
Co 7.268491616853893 7.483632702702939 7.179407869756442
Co 5.7699986300182875 4.720597703106459 3.564228657153759
Co 5.5510386267420255 6.893738584841704 8.701244533617693
Co 6.981574898393578 4.022618187687606 5.3870875008789945
Co 6.16626535924784 9.173579063457423 8.455008150401547
Co 5.985320388749938 4.904611457026784 7.411786353195131
Co 5.9855488998604764 6.236416994426338 5.404607808337736
Co 7.061536962972115 8.200913673178293 4.714741734769933
Co 5.127144647901228 8.384636416906831 6.481980884648805
Co 4.041841701986662 6.18320538454389 6.930275981688131
Co 6.092406108697837 6.897268778243116 3.004998258681771
Co 5.80883984454673 2.6606714573687826 6.7773795791077145
Co 4.529552572823955 4.214099277623802 5.590237991106704
Co 4.7343407472547625 8.324840435114263 4.260006402152544
Co 3.940105624772944 6.138354206894929 4.247566586389361
Co 3.740342786797619 8.192175350687396 8.214551299507043
Co 2.9137777913275196 7.709598650963124 5.726326111333375
Co 2.385529205343112 5.292944699303095 5.592154413543182
