31
Energy = -175.47825821 eV
Co 3.9657200626162203 8.61522571291993 5.951033727642086
Co 4.30664892766243 3.172605816279119 4.442594712030626
Co 6.384944538139098 8.30536902670095 5.524576276231662
Co 5.713711244856817 3.746327070082748 2.6924894166641926
Co 8.668019688577512 7.851209781931682 6.0138244181047575
Co 3.0892083805154207 6.785565177017734 7.483763907437792
Co 7.2243322008802195 7.037858619498621 3.78849480816427
Co 6.6779065208471255 5.161293423925464 8.090343621085315
Co 1.8206414130471325 8.34914000601318 6.401110335735921
Co 4.987543180956942 6.711992658698987 8.905871238307979
Co 5.166067077125264 6.518955381024876 6.557639366670435
Co 8.096107524388314 3.759678749702346 6.315027780270633
Co 7.453834130016564 5.9240156755731475 5.813457943176064
Co 5.069088736932767 1.1118696250182678 5.036085534776611
Co 5.849704250514464 6.040308184208521 2.2360708652995585
Co 5.786517618903853 4.003810291567802 6.338701064811588
Co 2.842913433587059 6.820735911890441 4.998986427658646
Co 7.487967402810463 4.567076891441854 1.5930936176151378
Co 3.633133588374181 5.3334211965255065 3.31473798537315
Co 5.577724765842178 5.3214549429677795 4.441644784557145
Co 7.744593884506712 4.611819044901009 3.875704147364203
Co 4.811118587665741 7.441938361101349 3.9684886990670942
Co 8.86891242239194 5.809235090340534 7.55777674375399
Co 6.461470871746957 1.8743046597275057 6.698522618848023
Co 3.528276433913047 4.86205802848045 5.843149335636686
Co 4.235255398200772 4.66878760755364 8.025200425709565
Co 5.24911454710628 8.706261923043096 7.763516704830095
Co 7.1888548106825985 7.4076140081245985 7.753658983542901
Co 4.133259411997388 2.5106980973456055 6.676975312844996
Co 6.727455699810918 2.688877213701965 4.594625899460552
Co 7.374249861154958 9.582644778139219 7.074270768810074
