36
Energy = -197.90061237 eV
Co 10.430156425243787 4.470773958089976 5.499596684323828
Co 5.975874131202834 3.5457857115022824 5.119263364826163
Co 4.388300524385255 4.871112270353912 6.09530174572194
Co 3.9663378859304435 6.801916962067605 4.980468960339611
Co 5.929033678459514 6.974640522376284 5.999783669508632
Co 5.898601166470238 9.204380357123695 6.453632875947433
Co 7.97510857917568 9.303340296221997 5.546495981530855
Co 10.080254273926649 6.869482454826565 5.425733831645412
Co 8.877801132273296 5.962414379581389 7.1681467681268245
Co 4.576174321085245 2.6092842814045505 6.807301305519314
Co 3.2279987275362565 4.488683329119208 8.106498713729305
Co 2.61644827028181 6.368440638820519 6.842849473814233
Co 3.8905142980184 8.279846532294187 7.181785191709521
Co 4.312882578993012 10.747382538037407 7.187237061393992
Co 6.327895114088673 11.526691714297726 7.85591021597893
Co 9.811309505101898 10.493311728654474 8.173740751534794
Co 9.38765761911035 8.286566072928798 7.269121833506502
Co 11.379512009494661 5.50289980583946 7.173553624237332
Co 10.239925488833538 9.222194484479983 5.3198988324142045
Co 11.591329296143094 7.778467323946744 6.884879827993213
Co 6.94082910660339 2.65524035434651 6.947261246748655
Co 10.358321915681762 6.890017810940489 8.828482576388305
Co 5.429314295057818 3.9525652357994336 8.299342147085042
Co 6.755057446080794 5.023208042939312 6.913246381188479
Co 4.762513256136021 6.281603626966011 7.981016116304836
Co 9.144594408456348 8.81040780648167 9.580407719088676
Co 11.32720298616588 8.92770965388462 8.855185608649668
Co 5.3448727754346095 9.51602548179119 8.764377220079838
Co 2.8938222147550245 7.1364696276862425 9.001757417803562
Co 10.314307917824895 4.599305582020045 8.98288509823346
Co 3.0038915458390494 9.510305825611175 8.87613043262055
Co 9.060884113715387 3.671412736230713 7.344411413251847
Co 8.211280131302408 4.3062703882442035 5.330763735217601
Co 7.598729027220611 9.688237572947292 7.972248008796533
Co 8.452873508322378 11.370181063796636 6.505474644342127
Co 6.344308012965099 11.178393706162792 5.58116092037145
