30
Energy = -171.04579679 eV
Co 2.8482487979197244 6.460798126588071 5.453818682611751
Co 6.290235468568591 6.503899014974354 10.060904359770957
Co 7.759885524852303 9.826765174571914 5.45395930946464
Co 7.84945334388304 3.204371515226556 5.472325197090074
Co 4.067891432454484 6.4660287155289975 9.244679597814992
Co 9.307837367607458 8.93432881700208 6.969823128419689
Co 9.379421257565921 4.141777511393066 6.983442683290538
Co 4.051671080660998 8.2080929424545 4.594919923281748
Co 4.114420577364184 4.748127092063922 4.601248824593781
Co 5.060934796939441 6.490322072147926 3.2869188328219163
Co 7.3046533694180935 3.2353554996776457 7.749395035757914
Co 7.213049410623729 9.77478957855122 7.731303486775582
Co 9.240865214037393 7.723035901630352 4.920174815389863
Co 9.260420181172767 5.339170469439364 4.923122835458055
Co 5.57463592280438 8.513474541164667 8.788449506759978
Co 5.632905650550107 4.466440992759326 8.775502724870485
Co 6.327477095611797 8.446789151915448 4.258659491292123
Co 6.395699965731361 4.557835291698611 4.267954121573303
Co 5.545689436415464 3.933668508547766 6.386536035243565
Co 5.469825519300895 9.02075899247327 6.388067561541649
Co 3.855816069128849 7.635917560096725 7.226068137994518
Co 3.9022789820175596 5.2952339795039975 7.215696860927758
Co 7.454043777845627 6.517404401681182 4.034198417435528
Co 7.8505868804370795 7.69716467567451 8.631983196893612
Co 7.881673351544071 5.343515407071749 8.639612151784164
Co 9.324645088632634 6.534907323496305 7.024683052078746
Co 5.926186549155037 6.499825240726336 7.789197083429099
Co 7.399425040171947 7.712791686611974 6.302958960408586
Co 7.4302830533631115 5.306181059015507 6.319238423825867
Co 5.3016157340217775 6.496719250083243 5.554914605928064
