31
Energy = -176.60951971 eV
Co 5.274530628052158 6.708492099523739 1.7252306111140605
Co 4.242562765736207 4.431842645340575 2.6064835934108594
Co 6.481129888664891 4.811674669573898 2.240218749499408
Co 5.899596095316602 3.5369472222027913 4.187475454531532
Co 3.42476112532178 6.626722346431071 3.2130926749439275
Co 3.876553454320789 4.3069206647966 4.911111834121428
Co 7.329513366061619 7.052259116873397 2.908142430264175
Co 3.523602715699847 6.464239595531767 5.597904822435632
Co 5.450773273563635 5.958122798560893 4.042840182667744
Co 9.197482871268496 6.72526089207709 4.589806383455493
Co 3.123984864908972 8.495464242483774 4.570156414987932
Co 7.747364815768081 5.061613044617698 4.226764268721633
Co 5.105282640350218 2.919756799855068 6.410334435837462
Co 3.6002496842885963 4.519562213032295 7.253374993403869
Co 5.2348641431817935 8.21183285217339 3.5125489392499416
Co 2.979795231507295 8.456060264370656 6.942304577424053
Co 5.034617957232892 8.285385794121176 5.886637283996905
Co 7.038355724571394 7.370422690145438 5.153692015590178
Co 5.741850745911611 5.2141092952425785 6.429139354055821
Co 7.503881710207092 3.519870320631126 5.972100558101842
Co 4.344760786816636 6.793788430926438 7.79122909943726
Co 9.637785850218332 4.398874704888077 5.467092353505257
Co 4.4316208235838515 2.82348796055846 8.637838426388903
Co 8.218913104868928 5.782897519535648 6.548827412290343
Co 6.631400318200547 3.45063640597088 8.10398656028542
Co 5.009879817111245 8.982336898998112 8.118648640384166
Co 5.119920050876679 4.993185123432209 8.993085860205497
Co 6.627122780078552 7.38800512387683 7.473469786040589
Co 8.928554258377112 3.949050047597328 7.7721111455441365
Co 7.366109503820873 5.580116423382803 8.718544099205042
Co 5.762663000769857 7.187558017122134 9.59987583216968
