30
Energy = -169.80204972 eV
Co 6.269668529264764 8.12028941560876 2.9570720417385443
Co 7.8217869077616236 9.602450552704928 3.9316594419817457
Co 4.910991618560598 6.10360938070559 2.703822024817337
Co 8.20146169681205 7.339442540724611 4.207712504492072
Co 5.802833019129409 4.332928014866058 4.097995815917395
Co 7.913328348734637 5.030519244428714 4.117278434576254
Co 4.037262329008418 3.0306058143092987 4.80104041083151
Co 5.908053632037754 9.065481079633175 5.0083973566739886
Co 3.7724558662181704 5.335249648620517 4.583176723669458
Co 5.961191328412654 6.668488137052432 4.712184995408744
Co 4.073428781287378 7.839605536563223 4.0814897768334
Co 6.38419623816042 2.2207321371299535 4.69901276805191
Co 3.764469135521115 6.840950039528728 6.286983115132062
Co 7.440303829287543 3.766770218114175 6.058891951088814
Co 7.939904350687221 8.5604275773292 6.101132040534251
Co 7.696252971249866 6.142204421533248 6.187934386227523
Co 5.313466109944906 2.767055932754188 6.663373718980313
Co 5.46813307846535 5.072861244108129 6.430682534121345
Co 8.853093739901844 4.952705570633081 7.735193959538978
Co 4.0207999796298965 9.058528849502613 6.230636554086713
Co 3.3798116678876946 4.253704181046036 6.783574269223859
Co 5.885192481726192 7.63099549050077 7.086147997927333
Co 7.272139308241985 3.106483044553562 8.22663409163258
Co 9.684992134723833 7.094326528657291 6.686300447796705
Co 3.9629494559892158 8.153492207316425 8.401604384661216
Co 6.7091160619747034 5.351159418357022 8.414383520807075
Co 8.049003635588756 7.335469237622019 8.22169510863853
Co 4.2590772375220105 5.891703812320929 8.327192917690054
Co 5.011859593927412 3.7421128079439696 8.6549625961804
Co 5.975682258554694 7.332553242043785 9.344739436952322
