31
Energy = -176.53326211 eV
Co 5.086220380164241 3.1090589012824905 8.142081710426861
Co 6.3158287605342505 3.3480878927353217 6.233278734156823
Co 7.736322759369459 7.870700428570228 7.037545685786992
Co 5.951052789878218 7.037778393790026 8.630004656884342
Co 6.572742177746876 10.91686180957375 8.833514506445487
Co 3.3443276839030487 6.144563603160929 5.974160634541067
Co 6.803606450027958 11.144374533435585 6.452376735954456
Co 5.348513787062006 5.20338239597754 5.141971184246759
Co 6.8933417333866265 6.890434331034959 4.455841752014601
Co 8.908369759321344 6.322908954933333 5.330113618482084
Co 7.58316475569882 4.5779884039903544 4.562960653760705
Co 9.65342794818998 8.241807151239371 8.622018042014588
Co 5.734841421169289 9.308693941218163 7.395254250403552
Co 7.059450715455039 5.606671300704193 6.808330780906365
Co 8.778306681150852 8.328463161986848 4.189784209838821
Co 6.860414834686456 9.136085839415703 5.248514977840635
Co 8.497640003244147 10.126066520048782 7.59770799560072
Co 6.626538497737111 4.688981084845616 8.938782792841558
Co 9.803505585200693 8.51155052529394 6.293055023558086
Co 7.4064960438099225 8.825513784847931 9.233483007718363
Co 3.922884830840154 3.720631984578019 6.1357474231781755
Co 5.386049206635749 7.370852853338609 6.122520210004047
Co 3.905245207939472 7.678074896350131 7.838088626274237
Co 5.073499444737237 9.05563033548809 9.547560108690329
Co 8.816635949871772 10.397381071715296 5.335481140538252
Co 8.653943741101282 3.980047394313779 6.57119634945737
Co 7.4673780555122065 2.682374426649544 8.111626796969068
Co 8.945935851767 4.362727577616617 8.866569832825158
Co 8.0871044247853 6.5375247822404 9.308994150964752
Co 4.714035125437159 5.337009544837742 7.591007082334307
Co 9.473972938477138 6.1885064891559 7.548928250291658
