34
Energy = -195.36079581 eV
Co 3.001791952088655 5.808961117438114 5.522453042331125
Co 6.657080500686093 4.983232994189566 5.5562383238816
Co 3.772096730405592 8.761786159213845 8.27121514322809
Co 8.43644879489642 9.94624468502051 8.621592760872899
Co 8.652031911806548 8.663938546614656 5.305526709453414
Co 4.899145109456016 5.709493688801252 4.191951159596608
Co 8.358341236834422 4.108795258516701 8.928608082756087
Co 8.5973829684718 4.063548876959773 6.518537926114359
Co 7.561617476739656 7.851213898611776 9.36884160922641
Co 9.986418333125634 5.608559146327694 7.4161525506203505
Co 5.42024414850584 7.2605488445485875 8.700489496524735
Co 9.266534474888811 7.942848421400958 7.662186420207526
Co 4.549761828950324 8.020738101510595 4.391005303946407
Co 7.01570569393249 8.01988384538472 6.922813581085411
Co 7.300223806045997 10.290511411806412 6.501144302464992
Co 3.3836888752891197 6.356410168476741 7.863130549553594
Co 6.897314204966655 5.646897785958002 10.004759692105011
Co 6.54975341497073 3.5140226741966556 7.446527168765298
Co 10.855241480857742 7.473582614725808 6.164693178595113
Co 6.106334943083209 9.532048043875662 8.51216679373011
Co 4.566096775466072 4.382401513036357 6.436366171613352
Co 7.346728328139668 5.781618132292471 7.719404366382197
Co 5.079703637673307 9.240983019608462 6.373089629633852
Co 9.66277826162818 10.190569602897646 6.659253615585719
Co 9.20636321817126 6.178785764267153 9.505003747456282
Co 8.658963492900337 6.387429761493879 5.7258941266090515
Co 11.317091216041101 7.066973430197815 8.60118409746046
Co 3.0670550830470824 7.997622975718731 6.2013245517932445
Co 9.81849170734166 8.522933538925807 9.841405105513658
Co 6.476034001497812 9.470713604932504 4.491017501755347
Co 5.17475850174905 4.971286630952333 8.579844515344105
Co 11.193972095404314 9.217058992083272 8.010879510897455
Co 6.765233702633288 7.199329355530991 4.628793905798703
Co 5.073337724052386 6.715605409956345 6.317150179299652
