34
Energy = -265.265945 eV
Co 2.009843593375568 8.34486263826092 7.655107479488365
Co 7.300477560471349 5.805106619028693 2.802168788008807
Co 5.5945499148488524 4.362849103589335 3.1304533251827253
Co 6.518467735257544 4.60635811190538 5.563863407712929
Co 4.651505790811239 8.130429980963997 7.736289880182593
Co 6.917840258033964 4.81661717109301 8.264649865536157
Co 9.017379139906248 3.812560838683005 9.341606399495241
Co 6.902172284131918 9.39787013058427 8.240339660400442
Co 8.396625457801717 8.995051308449199 6.038162618036587
Co 9.05908191657307 5.220171627281368 6.860233503921233
Co 3.3446369192872116 7.100046914655819 9.285110864776914
Co 2.462052870303464 5.628446786357672 7.425581953427273
Co 10.392162048798477 5.734113061173006 8.746603259398027
Co 8.630391176636826 4.375558328414593 4.553711634844285
Co 5.549504709800631 6.827462891256116 2.0360561288547756
Co 8.126834621577665 6.946641804599857 5.04929676035787
Co 5.985066887799267 8.811769875526444 5.751535085835645
Co 4.135664094728773 4.597199732541832 5.481406565138966
Co 10.34641838492575 7.090733113239711 6.223819758724397
Co 7.960257411601886 3.111740091573068 6.998965277826317
Co 8.83369741128534 7.663105306670034 8.314199989113336
Co 4.78037405217181 5.7188956325473 7.5081545395760045
Co 6.943749119876095 6.841838633913167 7.101384261247151
Co 5.118704528379549 5.231980334021757 9.979390053986453
Co 8.046951798206702 5.842864895682553 10.212559514289948
Co 5.680521988106278 6.688091895927513 4.611951615509346
Co 7.137457117501017 8.518786094465352 3.4729852390245837
Co 4.23973771924272 8.591612777573793 3.6906672970459016
Co 6.284747451055852 2.3165120556230163 4.766095066115321
Co 6.223830208765716 7.332458140128328 9.328430764677451
Co 3.7059801005451907 9.954684152278572 5.952068626947035
Co 3.7684541907076197 6.033875726628742 3.3427123585921814
Co 3.440964145225227 7.386984645773512 5.78176693763578
Co 7.471004460019829 2.937992150815322 2.7457809284967887
