37
Energy = -213.73422879 eV
Co 6.096512862643535 4.535066174214324 3.843182014530946
Co 5.882676353284695 6.607970123967145 7.376497140908985
Co 8.147270727825859 6.562938164272953 7.465148415723058
Co 5.4728422429366645 2.8725599741379026 9.076313915499913
Co 4.72922158023668 8.558141802208237 3.950844570155564
Co 3.1830054151698572 6.377269849812881 3.7688007361869773
Co 5.93558495178313 4.474350262576515 6.281064440044802
Co 4.336151668864432 2.7885394430844723 7.0806530987616645
Co 8.424755735325224 4.306217262634691 6.651715248732333
Co 6.9198043424105 4.603879349832018 8.36066916563343
Co 1.706647111077175 5.458957742404684 5.441587971568136
Co 5.302319537435372 6.532006630241896 2.6009377703410683
Co 7.73807296450254 5.857756923077164 2.8364314316606842
Co 5.380844314899743 2.3692352967746393 4.986705197168726
Co 6.208295241261193 4.610148307434941 1.4307933124544425
Co 7.88994319226541 3.503281766445969 2.6563455367979767
Co 7.586161359760668 3.001650188981648 4.925830822124869
Co 3.417748192306253 1.2327139280131916 5.648003987845704
Co 6.719673041573894 8.259149103442207 5.953186467069019
Co 2.5648321652118344 8.543941908744527 3.3066993878696285
Co 2.247167503915964 7.75142530282294 5.478989290342671
Co 1.933956886032247 4.2836367762903365 3.4087726695799745
Co 4.396647104052844 8.352766861901719 6.2700730520517896
Co 3.124714539139737 9.870112900108595 5.061393871355681
Co 2.4627614793444037 4.134130699967945 7.248907931901663
Co 4.570010231812433 4.85411931365014 8.313029380977905
Co 9.119207033985624 4.6452661335471 4.277338086596512
Co 6.906030383863913 7.848366555509102 3.676118281900448
Co 3.584597702805607 6.1369352374390695 6.651965014328561
Co 3.456786175556943 2.3537680829816514 3.580381232661173
Co 1.9659816667844423 2.9351640783897985 5.344683556509256
Co 4.136566170746381 4.426988964260702 2.577170868552393
Co 5.28025356354514 6.527074826917299 4.984223699071694
Co 7.592881074584022 6.074966098510351 5.303269481649133
Co 5.651895080258455 2.573932409954773 2.66879900656586
Co 6.761810420218983 2.5094166616809357 7.160583632385143
Co 3.82175078823964 4.321535699426264 5.008271118153459
