33
Energy = -187.10929472 eV
Co 1.6356894036800376 7.399005345706225 4.88658690639238
Co 8.459411685186293 4.849804126141008 8.014277778782178
Co 6.407548100731178 4.858081668453731 2.0424899428842473
Co 7.294468857904494 3.525623948954103 6.362833408951365
Co 3.740799848295833 8.023112588066217 5.575134062696661
Co 7.1791064263743305 6.888056306293546 8.454036437850837
Co 4.546542715001049 6.186393606108165 7.137100499765601
Co 5.003899754720599 4.183085088471988 5.945768997854443
Co 5.687587417695737 8.580108818560573 4.18886273912531
Co 5.9526363847544355 8.76604234165996 8.99093736112226
Co 7.879087082012818 8.912991378461397 7.495920517197197
Co 3.911199510098215 8.26496347110979 7.993213616359937
Co 7.743118249339844 7.963776514317344 5.214963094460599
Co 5.869250968330717 8.16542390253363 6.68034408421887
Co 6.056564794681267 4.664048906143228 8.272372729676066
Co 5.54586311858643 6.911246341648392 2.514061832858722
Co 8.876391363010631 5.136726887863107 5.356828699161476
Co 3.2572862179828506 3.4310698474632697 4.843914215499989
Co 7.654691979538013 2.7257459663690597 8.44783133753793
Co 9.1090326073132 6.940239464718704 6.924414731429356
Co 5.387185778277875 6.416526091726286 4.773041668171199
Co 7.537179628227437 6.31417950595488 3.6307031674349752
Co 5.477888122605562 2.599031560841858 7.516125000851046
Co 3.058104482559249 5.604176691800632 5.223660581500255
Co 6.643798556097515 4.34126555777208 4.277698111666398
Co 2.292724448280576 6.896848414614487 7.076287366721085
Co 4.5083445700350255 4.815405682500405 3.3661970468415894
Co 10.563007772298247 5.196680192586607 6.982842757269647
Co 6.957180137779429 5.9160542422447975 6.3497215620163985
Co 3.4420718945832154 7.113392915727652 3.4521482377037187
Co 9.65729656834387 8.909386390810813 6.062952353103477
Co 5.04856920528967 6.606873367187385 9.318674690078167
Co 9.506252275579742 3.1842254967161936 6.8572285070070995
