35
Energy = -200.51268062 eV
Co 10.23367406532169 9.879070623109444 4.250133935150893
Co 10.08812925889533 6.532330559973303 7.425132770770267
Co 4.63077917667982 8.535636938894982 4.579800312043413
Co 8.419703225866247 9.766517466440497 5.815886031345936
Co 7.175302863143313 8.519241768057848 9.646758059585085
Co 7.7688827226552775 5.135778666667097 6.254056785446447
Co 6.935160825109195 8.647882944015324 4.4383067799208975
Co 7.4826058090284775 10.402177154564432 7.87934631375962
Co 6.64357293890126 10.962856094693295 9.945633981896655
Co 8.888504052319394 9.938844242329738 9.984631596094566
Co 7.102254390326446 9.76711664479895 11.765324519479567
Co 6.633743860590183 8.174157042362548 7.291391817224994
Co 5.928763948084945 6.792262862996874 5.356031739701655
Co 4.408258725007201 8.030703713930427 6.850927869104007
Co 9.082396823879765 7.956889459661225 3.837205365525584
Co 9.742651946313805 4.30469269682907 6.9295542098815375
Co 9.593124791421953 7.4840263729813294 9.737852037324679
Co 9.748614418328934 5.053333379237237 9.155396746657695
Co 8.308989261689552 7.358987653464479 5.95524415481926
Co 6.195409960760333 5.302399781985503 9.725756130076329
Co 10.416301963770387 8.38995546447121 5.9601736611414
Co 5.157141370603169 7.337533316611644 9.058668174304362
Co 9.072045959872819 8.728415830057417 7.896738830743859
Co 7.736099539710033 6.051416227537526 4.078307497441317
Co 5.823381296483353 5.815129610167171 7.442067464790724
Co 10.028495245724326 6.051354746527738 5.106061597062716
Co 5.735436645589829 9.904049056349082 6.106380213056626
Co 5.278750172741745 9.683171253004655 8.520927053772931
Co 11.319962516937542 7.741767225233086 3.957831032502152
Co 8.247404826622256 5.771197450174024 10.71673240398828
Co 5.145300946240583 8.971521280677138 10.806387259176642
Co 7.8985299536908915 6.474283528699528 8.412186405469335
Co 7.7384912491187805 4.147549677684492 8.39351282139787
Co 6.297714194853901 7.053926937375948 11.272075226119124
Co 8.448951296338336 7.947956206328141 11.648197866728946
