35
Energy = -198.66616317 eV
Co 2.1720394515163597 7.930939499899084 5.9792142917367705
Co 4.278336068065403 7.167941590773953 6.43448903229542
Co 7.715695665903377 7.544859183723612 3.0746017414085496
Co 7.089650235871378 5.799926289701414 9.597132078264337
Co 3.2592674364650684 5.9176484887212855 2.880691374221864
Co 4.579454569693784 4.74852648479487 7.12164197885438
Co 4.516882994730329 8.774978186085965 8.168527385310897
Co 7.715319876943376 2.4967829735134024 6.361714747766618
Co 2.778307905435642 7.254333861703284 8.148472830073567
Co 6.272521911400173 8.77820644017685 6.609375365334319
Co 8.497273341479893 6.312609714900304 7.7553868177754195
Co 5.389601514209326 6.6649631881533775 2.677408879675164
Co 6.889956562832056 5.599182606403477 4.027495629255335
Co 5.911741501384303 7.870139617159761 4.563727653152914
Co 8.419744121840033 4.721435521053339 5.949880987322915
Co 3.6478884891442114 7.733901337856775 4.130312820649923
Co 5.889649892314571 1.6425039734939668 5.168041404420893
Co 6.977953575583667 4.319232390181789 7.845501691259192
Co 5.2162864482808375 4.2135707612539655 9.317191668808077
Co 10.12518638375919 6.2745027827261115 6.115695668564028
Co 4.99319078624016 6.431374764834836 8.645943618299464
Co 6.406400882827999 6.213881871825201 6.554725540707196
Co 8.58614389347022 8.558067767680233 7.153459278703186
Co 5.552784038899238 2.582944168929882 7.362948621684264
Co 6.041884452995335 3.8845581912061964 5.441912759675923
Co 9.189328316067165 5.568986735705366 3.908443396561245
Co 2.3774124385731503 9.483721859506488 7.601452715689776
Co 4.577678838441424 5.575389234771834 4.7344563028581526
Co 7.907099045303574 1.1855445628034622 4.4866531439539035
Co 8.805965792154959 7.662891301340042 9.530960783602247
Co 7.9369151665671245 3.448254044895734 4.091911528701309
Co 6.804062390378631 7.905321919292291 8.632171940501411
Co 8.224323926831625 7.1842646390046445 5.31848323379674
Co 4.018549495155329 9.380694502583241 5.911637428118164
Co 7.718116045086138 9.344550959388194 4.882952042694799
