30
Energy = -169.75066984 eV
Co 5.36266130833189 5.353223598038334 1.662167760774569
Co 4.455461168202037 3.3328639118794796 2.3149835179214606
Co 6.121600886811345 1.6776374956372664 3.2063933420185724
Co 6.810092032761781 3.880060785310579 2.799968258748469
Co 4.755459297273552 7.422441936431544 2.6766618601319037
Co 3.8344331199303556 1.447041021079032 3.6368866446542483
Co 4.341891991582252 9.548633297500963 4.002739138595538
Co 6.240638928705297 5.833513677648836 3.8360973142134287
Co 3.891999599210313 5.388807584183322 3.50048507697355
Co 2.626398134091477 3.4165310198158734 4.043910059048364
Co 8.273988416278947 4.839822314979224 4.466182393135696
Co 5.180587714104194 3.449675680118863 4.490264459868203
Co 3.1736330077092285 7.60719014851785 4.2811620618711865
Co 6.0699548238385015 8.101535023308777 4.405964236251471
Co 5.62740558007632 1.1618919597896518 5.350895139338278
Co 4.559472561237274 8.707096315070137 6.122067787782803
Co 6.784362605203975 9.122810619294794 6.326921660506369
Co 2.048738754323831 5.571794007059881 4.879765743145072
Co 7.322301861222669 2.835870149058333 5.0619845084946435
Co 1.6437091372621473 1.4973008741962188 4.7833022361656985
Co 1.5415353033136372 3.439382492132677 6.136504419255762
Co 7.715108219679289 6.935261060845477 5.468104656797886
Co 4.632155756409332 6.463980817822536 5.632786178672829
Co 3.4799160505568145 2.0805799496469595 5.941910069993795
Co 6.5254054616728085 4.916058697448811 6.040679770424104
Co 5.542922366650216 2.9386444257154722 6.877709317359726
Co 6.224837944505325 7.095311364627473 7.179752983994929
Co 3.6327068610858047 4.450119541416955 6.042876693627003
Co 3.432224809722158 3.236288353001219 7.936680638809723
Co 5.017725843429925 5.117961423605647 7.763521616607605
