32
Energy = -182.0465085 eV
Co 9.769103424752638 6.870013772515719 11.291491666887104
Co 6.0667933628102935 6.690470731808967 9.866206934252396
Co 7.903013983949266 8.744480628365222 7.207919596140967
Co 7.635311102118914 8.368259250049189 11.131859516015844
Co 8.245472804953645 6.2353742057643 5.6485286277480435
Co 8.505374258199613 7.368314914952941 9.313439681425335
Co 7.499885852432661 4.886779297706722 8.946250219590649
Co 9.759549137556442 5.3302891223417825 9.36987181328151
Co 3.9867293682379303 6.007955224748487 4.150773809740349
Co 4.757832958122573 7.590402389965589 7.848217671459908
Co 5.433860615818133 9.715836612777993 4.554198738797147
Co 6.346640815601312 8.782506468316305 9.074252755375314
Co 7.837343883140288 7.6581227017085975 3.842459845239081
Co 9.552731453022997 8.262462102354707 5.661521173790643
Co 9.717364790257594 6.660403114869849 7.401456718507854
Co 6.318638910006686 5.627529318393756 4.421031519885512
Co 5.459359941052655 7.616871833992779 3.496318362939321
Co 9.04631670170293 4.489362415552308 7.235581991221994
Co 5.65441983297196 9.548123490690678 6.932883568764608
Co 10.12177677356099 8.99808532395857 7.924716280504727
Co 10.426088539619448 10.838674193661511 9.200541576266051
Co 6.336492299861559 7.736557688860938 5.605471339189459
Co 7.6768117371473625 9.60786978509397 5.0829997890350205
Co 8.299223457674316 9.950104053202992 9.211500667645016
Co 5.185999455783501 5.092431976469624 8.420270827302165
Co 4.070623396442042 7.954047538725306 5.482823834351285
Co 4.87400666254672 5.8907664641664175 6.253853837062606
Co 7.799622786571913 5.839542761923303 11.096566714781684
Co 9.952439230992034 9.0182533077964 10.43961354357931
Co 6.813684886258248 4.547651842184948 6.56980739311642
Co 11.005557438382697 7.281975600937059 9.306554627562273
Co 6.891211399863369 6.647889789547185 7.630948981046228
