35
Energy = -199.31821415 eV
Co 10.243913328019392 6.784290558691608 4.0430230024836655
Co 6.877244383209489 5.576342228815343 5.493048769606586
Co 1.5880117021846936 6.536674682898081 7.224262073998173
Co 6.204381774833971 3.2981925426603076 5.007887662591063
Co 10.155263968607816 3.8870363540834125 6.527159962179864
Co 6.425538670618019 8.639354890540456 9.32360122022814
Co 7.838148988901822 10.173938090880249 8.289964511541438
Co 8.333978032301689 7.9158914021183415 8.076632841083416
Co 4.893353692581741 5.544158285479853 9.216593390766155
Co 6.414353847756598 6.616282089989821 7.693757808416569
Co 3.0715358574306464 8.152903896410523 6.589223943131744
Co 6.729994268128369 8.110254390280204 4.63370903388242
Co 8.298163057657648 9.532793465210744 6.130769244278119
Co 4.559957077656019 4.913788206811444 5.059166443432145
Co 4.760884062770125 9.35762315795207 5.279979016301153
Co 8.806268812643093 8.867860475554972 3.9110911032405853
Co 4.66551433885157 7.403980336046377 10.562761161052576
Co 8.130363358662438 6.6377478308302855 3.3765348496001146
Co 4.5198456515601055 7.912816782787043 8.275984008019678
Co 7.862369672461963 3.562656856382882 6.607492997483579
Co 2.7617323914028704 6.814652797900549 9.11614375434833
Co 6.831823840961702 6.538093116922639 10.06017592717636
Co 8.741960401036343 7.303445715541729 5.677341639330076
Co 9.350474596059879 3.846211797261097 8.669779493571186
Co 5.691057340410732 6.281253388794221 3.568202814696419
Co 9.005428834877804 6.080913290199244 9.459618986511298
Co 5.600670324524975 4.3582703678047405 7.119613474228761
Co 7.168377746909471 4.583316469371809 8.761809704532446
Co 4.962491513797507 7.1179787476737575 5.795593570986831
Co 9.04733851672487 4.957125063274091 4.851948418943985
Co 8.753435747666533 5.639079417583034 7.256245458247474
Co 7.173881534776529 4.504130500035365 3.3421990633569543
Co 3.69886672040582 5.760638871589588 7.176615655368449
Co 6.2088217143636815 9.077036486497525 6.936616943153599
Co 6.882797853430231 10.320846340422111 4.501966477873565
