32
Energy = -182.19214363 eV
Co 9.993272765185626 6.476068158237313 9.31277644954553
Co 4.83418629656238 4.7400660992474455 7.3756666003153795
Co 1.9339266789970846 7.734365105138284 3.8138857306506746
Co 4.280821299097562 9.27997707123753 6.517038453876456
Co 7.076826269305609 2.05518677868839 4.757409894527005
Co 4.675085494532919 7.128087029902237 7.332827789764442
Co 6.063149041266207 8.08502098662708 5.599533731309323
Co 8.28739728410204 7.8060417158687345 8.927179398674742
Co 6.334798101500233 8.675579826301787 7.84151752470708
Co 4.614095544952086 6.171563800338382 5.070087667225079
Co 6.44211398355848 6.447144022246842 8.754049633497319
Co 7.234564669427283 6.398915689205761 4.3753549558042515
Co 3.747074138617522 6.53744532766925 2.9331424767885297
Co 4.706353078667255 2.095340877260435 4.561276604095528
Co 6.066872409388126 3.039318645905727 2.8505336985898584
Co 7.982573389500902 4.215305074652037 3.9683266168417295
Co 7.854242879552366 3.6901976240906023 6.300925705724101
Co 5.740714354843678 2.666610681687427 6.753203982290596
Co 6.7960149139722335 4.063314914511608 8.36697553440592
Co 2.732251292586897 5.544467666178034 7.032074610015565
Co 4.00658367788636 4.220260049003626 3.518853923256353
Co 5.87710474154949 5.3542643052121415 2.8029055061589903
Co 2.384682208061028 5.596741353182293 4.6540157959905075
Co 8.137885893204794 7.619777646447397 6.653247561837971
Co 5.891747793087591 4.099223579123178 4.949060996866092
Co 9.019576193832028 5.599736945572103 5.602353956991735
Co 5.8524760875606 7.701460426800168 3.1178271453197617
Co 4.061703908948629 8.48734757144439 4.314041296962299
Co 8.585224656424813 5.556091986164885 7.9247964401269995
Co 6.689180186178729 5.793534271257222 6.525332283125544
Co 3.549885471906311 3.742237248528015 5.721085363560288
Co 2.748351439817294 7.580043666344141 5.973428815227737
