33
Energy = -187.86649964 eV
Co 4.627371576169794 5.999193176210474 5.690717175039319
Co 6.384588547014628 6.625198801467639 4.263878871003493
Co 5.438853643163066 4.3716940974835055 4.114999268729908
Co 7.428956773302277 2.952506860263336 5.732347119282001
Co 4.563607930609057 8.207028242832568 4.8623787201679605
Co 5.19840714134522 3.580842083813696 6.415548543675349
Co 8.59450851156378 6.796170113332059 5.304478432525989
Co 8.169324669465118 7.16531102394658 2.9791577269700307
Co 3.523952002803782 3.1725828366595916 5.02109450563258
Co 4.271861470761625 6.412774879181313 3.2360616098528627
Co 3.456803734921555 6.240137186802441 8.748586550492833
Co 8.00560821542724 6.28334046455513 7.831949115967201
Co 7.023168255900781 8.837363425602486 4.46818523108525
Co 7.178581395124505 3.9036065416016577 7.9175330553732675
Co 6.267110435402503 7.574556745860738 8.911964654336426
Co 5.835938209962182 8.086144020405952 2.6078457967003095
Co 2.6467715244913514 6.920691930521091 6.391010933556159
Co 2.424138811752537 7.455964914857823 4.139257828471125
Co 5.648450887087591 9.656938437324676 6.261648768529308
Co 3.2181743265610425 4.69254571354177 7.057489650356407
Co 5.572315858895931 5.728352440788665 7.826606108809216
Co 8.585497653344282 5.2055449872469515 1.8930662010103443
Co 4.4898224210811435 7.8702005572213265 7.357392722293832
Co 10.094778086482052 6.4152787752237375 6.957261591327978
Co 4.7689279914400355 3.784079647736874 8.740341217413478
Co 7.970286340115077 4.722173869508056 3.998691196704019
Co 2.7513417002309364 5.237580124795397 4.670746588701313
Co 6.927994730306052 5.203392520325453 5.993444307008319
Co 6.68376545426902 7.651764167144466 6.497946536025993
Co 5.198214648648925 5.703526255228563 10.062383927858525
Co 6.057220180943611 1.973474726762624 7.694309154052425
Co 9.068971989139921 4.516358049519193 6.290955488447475
Co 6.38504017526618 5.601171201778338 2.235339725451122
