39
Energy = -226.44391171 eV
Co 3.9717502039233525 8.304621053720318 8.109555232097527
Co 3.328490481872394 6.099272928625002 8.667759590662493
Co 3.610067022662274 9.044289680342539 5.884118608658496
Co 2.433884017012458 7.1623573858272485 6.7833234295029055
Co 6.286791278971333 9.001592177784476 6.150564017965397
Co 5.590119475905683 6.627861239209786 8.519862456259757
Co 1.3553512191799164 5.0817686379758875 7.412046174370338
Co 5.024348276175279 8.451145268911873 4.163930601281353
Co 3.590208824700549 5.083718984901746 6.527655783989742
Co 7.305441438635994 6.919947254384539 6.970689211833702
Co 3.2608522780158498 6.957843797822528 4.587061255238368
Co 2.866702474265827 3.7784709276610857 8.499112293555514
Co 4.929420086627402 7.141161837448211 6.308020740532753
Co 1.6646018465925383 5.357875097251544 5.144365560873069
Co 7.2755710632899415 9.427686047464245 4.064391522714628
Co 8.649776853279407 8.40147045206025 5.761243135671233
Co 7.491969986233817 5.145914210124302 8.603946571398504
Co 5.979526295451756 4.805136273633077 6.862374832575746
Co 5.080415637609015 4.430183816555485 9.027483290254057
Co 6.677671726976085 2.8314492564623155 8.281413440415639
Co 5.242580805838886 5.4740700927478025 4.562426795448101
Co 2.2956741864477106 3.2545423232980273 6.078945400117594
Co 3.238698546621909 4.776528048636493 3.5959894298475925
Co 4.571823645004015 2.9081488551205887 7.251080335383124
Co 6.968490186135186 7.2274644035380415 4.61981185564258
Co 9.293716292967595 5.847953615728315 7.017240572407111
Co 6.565335821830286 2.755603060338077 5.788151775565754
Co 6.425056279680472 8.127811975579737 2.3001178202681105
Co 8.533705989101854 7.354917551291533 2.856142279426184
Co 8.36520994824196 3.705697600904315 6.989573562552279
Co 4.551742100156245 6.63526839390653 2.652031012204777
Co 7.646397272024836 4.943656026264156 5.1523993693746135
Co 4.396717413664947 3.3230024931363196 4.983329901963915
Co 9.398444478787134 6.488392030280135 4.764900995586722
Co 6.355173216711976 3.649445712564516 3.5754676186554253
Co 6.7841089420070135 5.8272338670144554 2.747539296299683
Co 9.973380598058519 4.318011576971101 5.323630217322269
Co 8.429058249244408 2.8572777455792826 4.373129924721865
Co 8.845961464271559 4.8699520443574995 3.1196008757153373
