36
Energy = -206.60667488 eV
Co 7.066221033230667 7.976099316512865 2.8703874941481295
Co 6.9764521642379025 5.150594031676227 6.760332228011359
Co 8.620857736574646 5.030255788325701 4.969565188696553
Co 7.126418185544054 9.30870956723985 4.67774181981802
Co 8.953195711561655 6.548280731116457 6.715048358171069
Co 5.946715686026976 4.55455809931682 8.831158209511639
Co 7.141333215411449 7.038919469296609 5.172226838738431
Co 5.1151428215492025 7.958005298053068 4.160650537955681
Co 8.063429641536025 8.759493635397027 6.708019647314721
Co 2.7913275085593736 5.3398865172608305 5.933456946856871
Co 3.573781341941713 6.252775843627338 3.675118077892827
Co 8.978891981385209 3.973659688767193 7.075072646495657
Co 8.229317079778285 5.399922562205419 8.790403196789006
Co 7.796991433446396 3.180047254043875 9.037415486620457
Co 4.953748376784857 7.129227589340335 1.994351063793581
Co 8.433958449709548 2.7798951638290745 5.078540129270804
Co 3.269146426668436 4.456100726814828 8.185080052099469
Co 2.7373177410413723 3.150195266847912 6.266688127393448
Co 6.143957700048827 5.698378595072813 3.2555134628546747
Co 4.071631580857795 8.44524957484573 8.150208484181178
Co 6.2115815982170695 9.193124913775138 8.536198768223896
Co 4.584593384284028 6.285316292806128 7.712937929524172
Co 4.1187190552839255 4.0524545009392225 4.455106605748193
Co 7.816090234770645 3.986499572115709 2.9689461772484647
Co 8.47781894215586 6.223012014179644 3.041391483939982
Co 6.418470459979669 3.8812254354182096 4.793312130388254
Co 4.8711489144675495 3.841955352567142 6.731151658530027
Co 7.009683813127603 7.15149325961839 7.977733628947754
Co 5.507529685751747 7.159690829218779 9.644097285913945
Co 6.947477098882143 2.813893002961693 6.9546685660861
Co 3.4720306047725757 7.66321124005313 5.888714369860939
Co 1.6898336587575717 6.883155167048906 4.698234343110486
Co 5.636161470227005 8.412873801937247 6.453517444184517
Co 9.15051077634467 7.862178615600376 4.602878221280635
Co 4.2609381836671245 5.281839069147467 10.085720303266115
Co 5.077291838695386 5.931640056920169 5.45724269308998
