39
Energy = -225.67041932 eV
Co 3.8850706921606273 4.56189536132146 7.713875484340661
Co 4.532061224766661 2.2420699607205714 7.572352038598177
Co 1.916981608401537 3.2433754036193645 0.6635369254423129
Co 6.226843287174875 3.510314046943777 0.6772289933347042
Co 2.5990645836857658 5.336700651708431 1.7121927977845122
Co 5.178287222228955 5.486002487023514 1.7369240499209997
Co 4.063606189841713 3.235969093146966 1.558432433693557
Co 0.4392613512467422 4.456452190758334 2.3816078735382886
Co 3.0116158472772345 1.1218788210237718 1.846303382545386
Co 5.633144835372295 1.4729918981949652 1.8988197564912048
Co 7.515427904997773 5.08386232557766 2.580363010958623
Co 0.42914568715476026 1.7583617797509281 2.5004083942888995
Co 3.6132471383276017 6.801801057109044 3.5454498421069496
Co 2.1526001130313817 3.034387325941469 2.9418448915960176
Co 6.011648015301097 3.539553141001837 3.053673468837613
Co 7.836001806237237 2.664125152232468 2.186417586718236
Co 3.977987979034855 4.52189999003358 3.464814452317667
Co 1.1925984821559048 6.807137020182882 3.015121904938737
Co 4.193018316522415 2.0351119830818303 3.6714531550839986
Co 1.8437116315096587 5.053894862313343 4.173984201542787
Co 5.881425142177252 5.791090682556348 4.201658882257015
Co 4.277287138436116 7.797058240968739 3.722901202901463
Co 2.1534115245980794 0.9852018556906752 4.10518606725816
Co 0.033234454404968715 5.669272213998497 5.265317385192312
Co 6.4021476294914965 1.6239904758598374 4.3694223819796365
Co 0.41321409911026685 3.258290651797876 4.499976383914191
Co 7.384195131924956 3.968374088205872 4.893602230265417
Co 5.167712661070276 3.4344131591262035 5.2685986334968655
Co 2.711557129758246 3.0339597516014543 5.312388770541804
Co 2.173000468343036 6.958079631056591 5.50146735823429
Co 4.688237500384279 7.366796866722108 5.684977599042364
Co 3.8036086839828225 5.322054534592452 5.581890533937782
Co 4.27218034463938 1.3696162108285763 5.925894465111132
Co 1.7492560613462351 4.741947387764152 6.617333150142115
Co 5.919706184858885 5.21170849827183 6.614542782873304
Co 6.485086216798854 2.8801286147338194 6.937909699665594
Co 2.3264709286123266 2.4006238599260787 7.377390556315655
Co 4.121943824181819 3.7531798374195424 7.354975172469952
Co 3.625226298060928 6.237836525636006 7.572352038598176
