32
Energy = -181.8400612 eV
Co 5.809292704483568 2.8713337859277925 10.350817748977414
Co 5.813456036041216 7.743918664565853 7.98805439133449
Co 6.342205681336406 6.172819955335671 6.0010283332511785
Co 7.4287755636597455 4.504756556218566 10.300081176310675
Co 5.8380484926232095 3.979886358851689 6.4618223503908245
Co 4.603882637748487 8.857621946375103 4.123553208054263
Co 4.452802037442863 7.474658617619167 6.031284115647578
Co 4.734566936852704 3.39564068783146 8.374466926718478
Co 6.936160615119987 10.83641484759264 5.635791405991858
Co 8.812634877832911 9.410417940655568 4.826113743121721
Co 9.950019890002183 8.385012657701626 8.58772115955261
Co 6.811294275443157 5.479839236627454 8.319992986185735
Co 4.5727874134305635 5.670842517369199 7.588283772474347
Co 8.10802784567158 4.71287451127378 6.448390663568862
Co 6.459522411709445 6.907888610691488 10.141604303456958
Co 5.125722372093551 5.041357637880354 9.937276392881259
Co 9.985304046687144 5.712109477231319 5.7574534564518824
Co 8.274480642574819 7.159767400639446 7.315516639045639
Co 8.550279434878243 9.569060735829451 7.110369101832771
Co 10.464202899748168 6.216516771494982 7.922989059667796
Co 5.167116766618999 11.096147225219802 4.225728371675659
Co 6.0809666823448545 7.112639757987191 3.968973986369831
Co 9.077626700650214 4.486869628524078 8.512784659356242
Co 4.7986014679893465 9.876750248660109 6.175222489195721
Co 7.041266925266966 3.1587514214450816 8.384688337314996
Co 8.322401100423043 7.098846407496535 4.877057530531912
Co 6.794117909254659 9.44480314181219 3.700334166723309
Co 10.141000204110753 8.033575888905599 6.209589231150554
Co 6.387200890402262 10.078351132850523 7.851791389148766
Co 6.725622525991704 8.558335812485165 5.8703736359007115
Co 8.697162693148748 6.5152358948616085 9.564138621468187
Co 7.666866992007879 8.6412052086739 9.153062735947408
