34
Energy = -193.79736353 eV
Co 9.681076012395438 6.100322974347069 12.490874853870556
Co 6.649458397364453 7.583339538731381 10.111822317489112
Co 4.94760970951485 8.659352610222832 4.207464409702959
Co 10.573133261915133 7.84058130169834 11.385484059225195
Co 7.086970860855149 9.887189179050235 4.472337838255607
Co 4.166046743759519 9.173058588469745 7.4042359502776565
Co 3.1208519810565347 9.471652717041867 5.371674385995936
Co 6.073355989808513 8.281124069645466 6.195468512276404
Co 6.475938544676163 5.403879588275518 9.078149271706243
Co 9.597469067602217 6.753379129033187 4.716243069821746
Co 7.779628470102964 6.0251940000761195 5.844131228678875
Co 9.179125466596412 7.544730432016589 9.616712496559382
Co 7.36288428848255 10.447798486542514 6.705343565972338
Co 5.183163824290069 10.419755840372376 5.747199980144583
Co 3.957732541132178 7.342517034522362 5.936385293761247
Co 9.742934094735487 7.10319389217384 7.196622476775402
Co 7.407235512405122 7.270598988656716 7.894826886533484
Co 5.014514334455491 7.299585278928983 8.422332391379506
Co 9.8085622331751 4.91064559759682 6.514393198639679
Co 7.36412237308339 4.187104446624817 7.208111161682727
Co 7.991509968078156 9.510999896439829 10.157867001250217
Co 8.846834744178379 5.391993174491269 8.55322564945889
Co 8.080340371203974 5.790110054284477 10.810176138028007
Co 8.87020716047369 9.22028939812764 8.04483177413384
Co 10.370850305093665 5.72784725354318 10.332896756179023
Co 5.680539998954291 6.393773303059953 4.585363266034733
Co 6.27220381518879 4.24001426939365 5.113429722275567
Co 5.633138187807056 5.77187077187662 6.869385297933654
Co 8.474150903335568 8.507373176652548 5.845553099015627
Co 8.509418309641053 3.863645417351683 5.006103623786042
Co 7.392535912186955 7.695641658790668 3.940436778871713
Co 6.350553774095732 9.321815033767887 8.44183365381565
Co 8.315306679320585 7.846843957146358 11.833098590679338
Co 7.874611187975089 5.4875456886316725 3.5591766929481654
