35
Energy = -201.13094292 eV
Co 3.540641703820554 5.240147064869824 5.344718828938349
Co 8.072056467605512 5.095968705172875 6.434602689827815
Co 8.823627566317901 7.119592621850254 7.43187835204961
Co 9.406886150334044 6.881075235648306 9.727839419225305
Co 7.41769550654784 4.133535969257668 4.371740842806201
Co 6.061508082420113 4.372369715965357 7.793980247698333
Co 9.809547918805787 5.058724958386871 8.151862092898726
Co 7.3120900529686725 7.444051427145738 5.367725411239325
Co 8.01625830895469 7.905110043366376 3.1729796497540605
Co 8.598810542573746 9.942966954317162 9.13830566474865
Co 10.576796810064058 8.814460646964875 9.712114794298275
Co 8.758096522257079 5.9640809165591575 4.28572849082951
Co 5.478697926872734 7.952540578923494 10.790439094725242
Co 10.120324371601297 9.131860665767581 7.446470920149252
Co 6.394370388603589 6.159795802307585 3.66247053895409
Co 4.819934355015326 7.126666394647459 5.383745919328986
Co 6.207741995463477 10.133045144727642 8.439336629383554
Co 8.578782016338419 8.58199311526628 11.090828103946711
Co 7.197079103886072 8.02857128827922 9.179808004743068
Co 5.871285155832957 8.566810834752786 3.9256870736022926
Co 7.835857707869549 9.226397907344452 7.012827356770251
Co 4.785240851321529 8.131898371597128 8.416074521626909
Co 7.660402606251659 5.516517097915313 8.940672435246231
Co 11.081190098919103 7.065024536275513 8.037903913644048
Co 7.370694303461503 6.551041352823236 11.034523797792108
Co 10.323808453360039 5.978740007378935 6.019232262278923
Co 6.7400824120622005 9.932880193752375 10.661035634869013
Co 5.6534746223422125 9.03437570528061 6.357268622411521
Co 6.331328316102696 6.708947509209317 7.324554987877039
Co 5.730177328902135 4.966922284539388 5.609850575333764
Co 5.410210350656122 6.046625429758867 9.444673172268606
Co 9.573863018107131 8.11715018689525 5.380043683909129
Co 4.176574029248908 5.8416343644994 7.431671581571606
Co 7.80785270421218 9.644210365242731 4.76691358397659
Co 4.481508559927925 9.835855341574158 9.961685849305193
