37
Energy = -214.64697108 eV
Co 9.42289287883058 6.560810671244985 6.473881966249681
Co 8.117125922986162 4.791289743571782 7.559067885727613
Co 8.924639794204852 4.43197809774751 5.401262913083196
Co 7.423508582222565 7.044602373620715 7.804232436311485
Co 6.773796981224898 5.333014875297161 9.416979944745604
Co 8.125198249261532 2.547923935433901 6.635394429141078
Co 9.3519577021185 6.141434717916909 3.866677674423929
Co 6.324384267192089 3.1731796193371724 7.937399904329886
Co 8.480211762730528 8.256903584897426 4.128878465388325
Co 7.455522396929754 8.687157037498022 6.145889856535323
Co 7.425373652392292 2.3283669481427154 4.423074103794562
Co 7.516020567755595 6.4224190776119725 5.3169263660702475
Co 5.9124253819007935 9.063603999626993 7.93860738197107
Co 5.683960575676025 5.360745597783139 7.371640724773054
Co 5.160312018516114 7.100073576147096 8.821528412191737
Co 5.399479135790601 2.10649970478141 5.817948517865466
Co 6.575918000188896 4.078751588055483 5.693680457470855
Co 4.631993830663682 4.471253561202612 9.247971350387639
Co 5.581895332228654 5.797910168611358 4.166329720161714
Co 7.558983749871413 4.503551617015461 3.457922447356224
Co 7.258131668857127 6.766689372052334 2.773896996474945
Co 5.128308993347413 9.641248263290432 5.843117063043747
Co 4.092147508027143 3.6312256226879347 7.079522491227631
Co 5.405018181908251 3.3943477124236376 3.747925701996193
Co 6.057979082804709 8.25989812317123 4.14157873010107
Co 3.5542011677298824 8.251204666470434 7.267682764019258
Co 3.765678058783435 5.499583714145683 5.508451460059869
Co 5.473262745324397 7.385827941780196 6.330772860062665
Co 3.356631093262844 5.891499042560776 7.852106955061651
Co 3.4092300560044735 3.1895743731701067 4.887579112030085
Co 5.742191771220545 5.1028922177152 1.967253681216742
Co 4.4289219815193634 7.127352218322821 2.7235373217026146
Co 3.7355021408255085 7.893320849396998 4.8453479251626925
Co 1.9815092100829244 4.447392845989049 6.4834066309928575
Co 2.003832674078467 6.89098468065773 6.176338256144047
Co 3.653963818037757 4.846999078974788 3.117972098363364
Co 2.258456405796669 6.455646179186592 3.8351252966924654
