36
Energy = -199.14484557 eV
Co 5.85779386983901 6.462304643423205 10.622958186494944
Co 7.128645116035668 4.42995477515214 10.95683036559107
Co 4.084281436710866 4.834672099477152 7.432723519179979
Co 3.899943377715882 6.517389859786448 9.358188899871115
Co 6.65162974477903 10.215015092943599 9.139129284528009
Co 5.1040322329929 9.50298867928532 6.813397002539196
Co 7.758496996144214 5.642332463265074 8.920256228155779
Co 4.950187902402602 8.638016265932581 9.003402300253942
Co 5.449149270074261 6.8217284509602605 7.671018167907333
Co 5.4251093751282715 4.7388646437452575 9.24725243180662
Co 8.354282520122112 6.467995532018173 11.042649927543216
Co 6.968580158714159 10.797130450960688 6.735949691237154
Co 7.1113383139179 7.9266863182461265 9.517363419750094
Co 6.517869122467025 4.539130915898532 7.109388356157673
Co 5.226433744276986 2.7796240231764617 7.886467642375762
Co 7.174998025267949 2.960718729639166 9.097847709760895
Co 9.265468134592746 7.9539165202896625 6.773293112429006
Co 9.630567460630395 5.750996278761872 7.5540005988196635
Co 8.342640843759117 10.642999377009565 3.392792950411978
Co 9.136632565404863 10.243937018880917 6.355786051853063
Co 6.241849728045624 10.790862612366437 4.508745285573622
Co 9.460001303668852 7.4198518623334975 9.148925945716753
Co 7.572818046610255 9.054164551433914 5.0056161873894425
Co 7.618327863700339 6.437275647012982 6.240665733496125
Co 7.011692820783259 8.565171395403032 7.289489387851796
Co 8.750323665857751 9.632658071836095 8.5649460152999
Co 7.383389015360424 2.813149503877585 6.069094754393365
Co 8.693577936953755 4.695045039593805 5.413309485185211
Co 8.764624568179672 3.6957861606110693 7.592741044952838
Co 5.3946141331183775 5.755856817030424 5.696325926986606
Co 8.66090637429647 8.896715059013134 10.822372123907472
Co 9.211556520772374 4.079650916852051 9.804094269990092
Co 7.98172437860633 8.45184914606032 2.974724618581167
Co 6.608422839746101 11.144877195449759 2.1237713829978273
Co 8.42513878427245 10.043573973983397 1.1110022829702162
Co 6.532345671721388 9.0052777094582 1.3525744128505748
