31
Energy = -173.81237806 eV
Co 2.7768056655959663 5.003977815676294 6.727029144698305
Co 6.217987360368698 5.13781489251845 8.494274882653258
Co 4.176331829335653 2.7125677695332038 2.9575328501813987
Co 2.9535572751820345 6.567839600738254 4.946141290192112
Co 8.740647824545398 6.172861050395127 4.807996163170487
Co 7.2271674395614705 3.5781017914807727 6.736154550834658
Co 3.893503230379182 4.868844495656524 8.72493153833037
Co 7.388986145063461 8.205936740706397 4.93286796731928
Co 5.033294928127898 7.6071052369150545 5.0536315616754
Co 5.044124374060801 4.070970057622553 6.876605288552482
Co 7.2336751610512104 4.415952089729891 4.608796203826424
Co 6.828976642979412 6.014286693872989 6.381001824290676
Co 4.6272572934347 6.5174746796372 7.175570033681148
Co 8.10960367033947 5.171186712668104 2.644555293670356
Co 5.700920634436929 4.471910878769857 2.765386175926681
Co 7.076091635926428 7.176702017283964 8.573375445082755
Co 5.605178035601215 2.8554687114168904 4.7224986822862824
Co 8.593405206697005 7.465484359739102 2.9358166842171842
Co 3.2696582694658716 4.778715040884169 3.2748218578928565
Co 9.66029218535641 8.298830807887567 4.863511581338748
Co 6.535369021314076 6.55698031583236 3.545383037994058
Co 3.263658967576108 2.811804394467159 7.497657296046583
Co 1.4995010978559224 4.6621948031669795 4.728772432142291
Co 6.166568313599978 8.322807230143898 6.922946193240941
Co 1.8907228285352862 2.8068725514945037 3.460521674595259
Co 1.041171204453231 6.324069567786141 6.208399271898992
Co 4.920120493406789 5.260279123082889 4.870745686226612
Co 3.3288552909268807 3.169073224746048 5.238092300308126
Co 8.589620464757019 7.471034323797684 6.799957570698598
Co 5.352724949851263 1.860907008660266 6.678699546425876
Co 4.346262526146192 6.7539859796221355 2.9383659365343906
