36
Energy = -207.35821203 eV
Co 3.8329746851713296 7.131058171100556 8.124824790547335
Co 3.3587713142118796 3.632650408739725 1.2892041299515216
Co 2.410471885990922 5.884922095066336 1.0315514373060661
Co 5.805500709638927 3.227192290753092 0.7045602596522387
Co 4.928888690017537 5.502662562922775 0.8881556966967531
Co 4.574742976464761 1.7847694653314738 2.3189653523466767
Co 4.003719685980526 7.566303659759874 2.0254292717699154
Co 1.4341591607647466 4.354465403623594 2.6458269795417846
Co 2.0988813002534434 1.8493860163217746 2.4378261639725323
Co 7.344600287370957 4.6055020186425475 1.9413988454052868
Co 3.581182795958065 5.506723396680874 2.913311499986545
Co 1.8957669782346076 6.959872576105914 3.279419143753883
Co 5.346080856713245 4.0288129981863285 2.7264570402674693
Co 5.66958108518412 0.4078244611237899 4.089933221866756
Co 5.910272399505987 6.278217306366638 3.0984318041495387
Co 6.965274487112785 2.3406952910622016 2.9409028415786245
Co 3.2206306663414206 3.320217076742895 3.663523079123219
Co 4.029794982733511 7.2861565064178535 4.419613977569042
Co 6.171031334453798 6.711247129696409 5.378476590247544
Co 7.229466006972477 1.7095298633280598 5.280055557630397
Co 6.956415167623841 4.366706546589856 4.410790572854455
Co 2.0942752772426223 7.224390393462349 5.7028694375122315
Co 2.137521485254155 5.079232792251036 4.843081893068755
Co 5.299882224179135 2.618389141678513 4.5342609723784175
Co 3.4668739706810396 3.3027828519979905 6.074156339204191
Co 1.4707327129565457 2.6408268254693583 5.002071575012471
Co 4.744229001960253 5.009183391685229 5.07793668765274
Co 4.983049570619713 1.2290845329408773 6.336275211311472
Co 3.354693503609781 1.1264574495895023 4.373517238738833
Co 2.3688996294807803 5.275295092810107 7.130313948918723
Co 5.982110837916057 3.391268909528154 6.5704329632545235
Co 4.178889374122212 6.744907627143228 6.67814323934987
Co 4.520179000248151 4.715549848764468 7.730101721797982
Co 3.921852016000828 2.472336057385541 8.124824790547335
Co 1.63042722674328 3.0796428127789084 7.428735750983534
Co 2.595525102142897 1.1530854178079621 6.636153945495817
