34
Energy = -195.96199418 eV
Co 4.269299195095493 9.203523096468539 7.862918925685703
Co 6.288850369841499 7.928806097836396 7.843164699755459
Co 3.5052730471090383 8.798343028019566 5.599114792209844
Co 9.01220303539912 6.311176597668186 10.653363322771748
Co 8.184334152276827 8.066870965965274 6.297169444197568
Co 5.0401591670585155 8.644334030987462 3.8262973796157738
Co 6.615592973611494 3.622873569283981 7.352231239589794
Co 5.219218542611312 5.02920363288388 6.021456297887125
Co 4.465831115658203 7.387786704157085 9.324165522749304
Co 9.958005508265009 8.869598392937826 7.503017453592621
Co 8.104465639012831 10.275923804106606 6.4808752802346925
Co 5.958356117099346 9.093215190920763 9.90262493015731
Co 4.300284343158668 7.0460284251710545 6.849210641262658
Co 7.72575457227065 4.865652976398322 9.058790032836477
Co 6.130697606616462 7.165732002230316 5.270130516452935
Co 8.21262819782751 6.3465078595806945 4.607629798783944
Co 3.9819480070276225 6.645934698927613 4.53863219206469
Co 6.251097428769879 10.42256413605182 8.011486414361533
Co 9.759708585638531 6.249564157736697 6.466816681633724
Co 5.751030958463031 9.417201696517353 5.978182543934528
Co 8.752638001289144 6.984968862557948 8.437621884397682
Co 11.161795846185449 7.005432624244413 8.31245153426739
Co 8.005733727414725 8.50390217097826 11.054394170530836
Co 8.958025461018593 4.157010642485199 7.042354692752348
Co 8.098607459890422 9.252602502795371 8.814283605810564
Co 6.713858572150235 7.2993628134699575 2.9350980369883564
Co 7.395479132371663 4.244887745660844 5.161173442558132
Co 5.836729816111044 5.378383514267772 3.7927737877962633
Co 5.545429587286224 5.568193314359358 8.336604446210568
Co 10.053183067432203 5.103735096274922 8.904890176683104
Co 7.345907073491174 5.818362120137632 6.864331177273472
Co 6.841850041152043 6.881998722955426 9.924227336892834
Co 7.3785273581515485 9.039062523835744 4.386117319481444
Co 10.029439670273243 8.309362097973892 9.87216081630828
