33
Energy = -189.10399005 eV
Co 8.060647498426716 4.915560280874601 11.167437586692902
Co 5.200518555830737 6.682496292839175 8.123496925327862
Co 7.579695321747577 6.068991317443996 4.303848231880815
Co 6.253703318810246 3.7632229306102576 10.180809789263112
Co 8.756541601051328 6.804717185389104 9.868680386833491
Co 4.336161850594627 4.998865016026521 9.411929496558677
Co 4.6612864611198175 8.957431498737806 8.07666992814933
Co 7.683339453919993 8.485439086765064 4.195035796917254
Co 9.814479820298528 5.958402149072937 7.781504886822668
Co 6.61154925263724 8.297096628011303 9.325691111146627
Co 10.078367012200571 5.476512613467744 5.442351289891982
Co 6.36038523486675 6.0656664718261055 10.166609996717392
Co 5.63095733791419 7.581486041709435 4.502854986655746
Co 8.310446716714683 4.479165016755997 8.986069966482162
Co 4.428117874248928 7.563035309867585 10.057720547681578
Co 6.437201335497167 8.121453002786405 6.68171429380759
Co 8.14476778310549 9.773631611654261 6.074122212815178
Co 3.934584341631508 5.127112738438092 7.025451891426635
Co 8.663424458353095 7.258536220414815 6.018727996111301
Co 10.343991633609871 9.59330899645663 7.092531588678265
Co 2.92379512170773 6.778461810826946 8.3582351282454
Co 4.1031745274912685 7.546640715201217 6.2729516517555455
Co 10.65465535207331 7.850938239834622 8.727491241414114
Co 7.518581222178675 6.396579533508035 7.994539943462726
Co 6.652332894629112 10.176464751439047 7.7980140777658224
Co 6.131457284611344 4.3925949532202075 7.948806376186127
Co 9.619580344881895 7.075399801628591 3.792005031520688
Co 8.566145196593837 8.57959285452081 8.122216069344903
Co 8.073447709042734 4.798493278079093 6.375948663709953
Co 5.997670844827752 5.806240865180046 5.986870603150133
Co 5.866221588565789 9.836815846767184 5.374440016618103
Co 10.96429108601673 7.496450990241792 6.356654441196238
Co 10.006489427374643 9.036628566592743 4.869939086588268
