36
Energy = -207.92964253 eV
Co 2.174577575032499 5.979853561056947 6.362847038353628
Co 5.647867508932007 3.442831719225088 6.937237927303704
Co 3.638348102070351 2.2977094895746326 7.274537644267954
Co 4.193656566828844 4.898322579846565 5.413046700965543
Co 5.682171074894806 1.088860616270619 6.400384913209494
Co 5.628776498778555 1.7710058078045725 8.601792510144966
Co 8.066471631326673 6.04232010579442 8.301782374735017
Co 4.412341728410589 2.544705008516062 5.072472340786035
Co 7.110365098885769 7.907050837076982 4.671499613293254
Co 5.694252717902957 4.172226696187853 3.7607709387716395
Co 8.027917448739442 4.687397492755797 4.327936328403083
Co 7.5899397181672414 2.0691612370161008 7.313441750678116
Co 4.654882037167132 7.03016464477039 4.2469359558958235
Co 6.695555793283728 6.190615622290822 3.0575925617717683
Co 8.915188663184876 6.743200616747127 3.6541520924688315
Co 7.170754154086075 3.8543663720317185 8.856821432692927
Co 7.623810126271469 8.278673470728444 2.4291458413886287
Co 3.5675158663476103 4.622553171053378 7.646564127687706
Co 2.7638237531484338 7.982325079821111 5.261130426418398
Co 3.953868018979227 9.214085625731407 3.6762434229564454
Co 2.938196383384858 7.526829186890341 2.495784923423525
Co 6.36431045965794 5.78439290455146 5.544683371423818
Co 6.1808384904729055 9.721570523458466 3.645993382342037
Co 8.549896856110264 6.49059027544951 5.982397730510397
Co 6.942795596984979 2.707488201564171 5.077858717789407
Co 4.414878159007272 5.660798559008626 2.3726020104323955
Co 5.197394110014508 8.891114903415092 5.689705456018117
Co 4.918734592634562 3.8119709023359722 9.30305333130184
Co 5.8446257307153235 5.614437671803593 7.94938547683113
Co 2.56041554036552 5.897042878671742 4.032784825161023
Co 6.712060828499697 7.581735253247534 7.027150845309001
Co 7.895643467312709 4.358809319603531 6.683818549629813
Co 2.3720268284664723 3.6180253318178957 5.7552071457244285
Co 5.330919125270655 7.942765662659453 2.2000389974960837
Co 4.339088268224586 6.904613508148648 6.678800337697511
Co 3.349908260989659 3.794201943622936 3.418215737266032
