31
Energy = -177.19110679 eV
Co 6.9038826335459325 3.612288983973914 8.154789410970885
Co 5.272473727490185 5.183901670603316 9.208653801119418
Co 8.08448046244424 2.3714055782207115 6.515002247061286
Co 4.511373561907682 3.3144878807221336 8.188373666197629
Co 7.174878828157824 6.038291294348081 8.249569614358045
Co 5.774941625990428 2.460970590491109 6.420250545491544
Co 7.067087466883174 3.103938437401535 4.535044914413881
Co 7.881696994236828 4.665781355457759 6.3266936656200246
Co 5.451508213920741 4.946511627062077 6.765097668060357
Co 9.250910431176859 3.7216127178324214 4.735577837667364
Co 5.033293375956278 7.082351359082143 7.783549758557977
Co 3.3007886999908695 5.396425173915877 7.7997926820529155
Co 3.147857078932485 3.278252676043556 6.419700951781572
Co 6.367957262628054 5.367940424009428 4.4363847290879646
Co 7.088517676395748 6.996488912173976 6.177829864524709
Co 4.679581103368726 3.711399971868871 4.767895058742013
Co 7.967107148637101 4.6222381512209685 2.949978566545767
Co 6.808575626712895 8.501174537379258 7.850518597993769
Co 8.677051276521658 6.058043477211734 4.655377726697116
Co 5.726400809343775 3.911027885610003 2.66310551661676
Co 3.1840172635240718 5.4122520394215075 5.4953163404621534
Co 4.848907683696093 7.081411434530989 5.291118969131353
Co 4.547225668109513 9.24547801601452 7.205230160727227
Co 6.949785535213941 7.598131702248206 3.8893614688582683
Co 6.199201553606318 6.170710047899887 2.218602869560288
Co 2.9938177744135173 7.486361849325343 6.678653464390956
Co 4.219108239170398 5.68241671452635 3.372974778889906
Co 6.152079479479914 9.06115739501645 5.572863378108143
Co 2.71428558706952 7.331903270429353 4.19505165406094
Co 4.763363730591892 7.9691845917566315 3.1299629109553724
Co 3.829682422250787 9.193029478120339 5.03319826516661
