30
Energy = -170.52751943 eV
Co 4.569348810808129 5.067452023328345 3.448499516395833
Co 5.34839587916805 7.2987277478199335 3.4252118339524995
Co 7.5155714286503095 7.934199499486357 3.3862778432233953
Co 7.049671925293049 5.55087803636975 3.550814432148258
Co 3.0073343561265657 6.6872332330607716 3.580626692134963
Co 5.2150311582049556 3.583407015333086 5.068630616514155
Co 7.8818349601717355 6.8925053813424695 5.361530613819968
Co 9.213911696383716 5.073180639073569 4.670503798284434
Co 5.510255193715342 9.297203341972635 4.585871542476407
Co 5.609331582968917 5.980341731501782 5.336695616061552
Co 3.9187583830778494 7.672258657372681 5.366175749044536
Co 3.436934463762601 5.340870047668775 5.580971628445793
Co 7.633761391637514 9.162484117474994 5.355332845243076
Co 7.323226169247196 4.355532415543839 5.634235980865754
Co 5.195302264190569 4.282965367860933 7.210821303062992
Co 6.724267389288658 2.3911309164618832 6.587641031579948
Co 9.148180645746704 3.2893547544678596 6.525941273519196
Co 4.00978040466453 9.647787883681792 6.461998113033467
Co 5.923840117763006 8.291861097762414 6.712953052812067
Co 2.5830399289094474 7.867948656163937 7.160357325987805
Co 8.204762114286789 7.876130700633881 7.501542777970678
Co 9.097918498845052 5.607787935709021 7.017783391495698
Co 4.4052339483284815 6.483634385513997 7.554915187288487
Co 6.789101602730399 6.07904147191682 7.374359982323226
Co 5.863134019758084 5.33022772628836 9.318709723205226
Co 7.501967729124764 3.932096068601724 8.103275649059318
Co 4.310246945218761 8.598482584784607 8.475448562804726
Co 6.3450278553652195 7.590809778133474 9.019983989853564
Co 8.190020232096536 5.93994743198481 9.241532630858565
Co 9.720886265095215 4.140596713314719 8.627434657164255
