36
Energy = -205.04585028 eV
Co 9.757893363188272 6.323187924383832 4.346348937617956
Co 5.646226453968784 7.593551697124699 8.321038897376601
Co 5.4068720247596564 5.491911342934306 9.37732507712612
Co 3.9627785006726466 8.057534582073457 3.907650362655577
Co 8.942978406009264 6.386966794472351 6.436005563858456
Co 8.141943243623508 8.059416754730638 7.901107562904931
Co 2.9039567125423718 6.2335235589587334 5.4675424162317725
Co 6.684452734493891 6.955287598503978 6.219578095848261
Co 4.269591509101133 4.069139642867441 5.446428514035311
Co 6.378195008923062 3.9328323790701964 4.175656644065761
Co 1.7310900001340677 7.476004653234567 4.017899311380281
Co 4.497828755717982 7.88700336269504 6.178430008017286
Co 6.858721506241687 3.427500061612972 8.50430475197703
Co 7.360253682439597 5.661851120975794 8.245276047026291
Co 9.515303510288021 6.163230876116339 8.619324417833521
Co 6.571623115955493 9.295291102564462 6.62699665977413
Co 4.5913642109155735 9.648263304945614 7.711414324328562
Co 8.350998077651186 7.913835344411548 3.176430521481868
Co 6.271080016570435 8.286802235990532 4.300191885447873
Co 5.116411241196055 6.063328651313749 4.574582790775813
Co 8.420367403623446 8.365898856522335 5.369051695958029
Co 10.683899093953297 4.9859177767290275 6.494434056441911
Co 4.7700563366387785 3.5714181314818894 7.70039452305771
Co 6.577823038090825 9.485192279730883 9.118927530146726
Co 7.454018044827595 7.21852077477046 9.926619454524577
Co 2.6431540247804732 4.523789645843495 7.0116430686417095
Co 8.812069239384057 4.041583342001459 7.306270699793847
Co 6.454719905366523 4.609304062207106 6.325740022095705
Co 2.5383369795144586 8.828672739364777 5.592578765853321
Co 7.350484620192515 2.561463915636736 6.218226251608743
Co 8.079555103828454 2.4135865518780735 4.064877316934471
Co 4.63653413705854 9.952196791879382 5.2666363277723445
Co 5.4247239874896325 7.8994140008276865 10.541936703942193
Co 7.451701929314661 6.056495346037613 4.194988305401804
Co 4.548721172698256 5.796156028411611 7.24591027886481
Co 8.793986009396948 4.294490878807862 5.008975827949885
