32
Energy = -180.9886143 eV
Co 5.336117879227998 2.250314629339053 7.3670430074158215
Co 7.504990800295402 2.847340948833814 7.850385843028009
Co 7.0147607479739325 2.0844100216214314 5.68366779110579
Co 5.8030848935092045 3.971709062789521 8.981932504544371
Co 7.618870186344793 5.273522493987276 8.053871471768028
Co 3.6514973757452283 3.8549282617069562 7.154787910555498
Co 4.912705688366609 2.749206380262331 5.11304949882461
Co 8.112958677436133 4.0854204000827545 5.973755191529329
Co 5.82088259398784 4.477162329329033 6.617805333854206
Co 6.140928860454345 6.121721444198999 9.777583829094766
Co 4.537465391197821 5.75843268796142 8.133069372454393
Co 6.420743767961831 4.490046266493973 4.331039349901144
Co 3.830614535229926 4.777191335096321 5.055899959495904
Co 2.8808263814506727 6.325194222613051 6.574548413453805
Co 7.451397445471728 6.272274705498115 5.835560341303518
Co 8.214792978011058 7.164573978564573 9.231986607070914
Co 6.34864104759905 7.277903611213825 7.759217715941516
Co 6.589045409428523 5.050911581932228 2.030332313940105
Co 8.499507223771717 7.968297399060982 6.997771279027048
Co 4.154871122773225 7.997640029652411 7.624360646225039
Co 8.26899428483963 8.236567261148132 4.690513674236198
Co 4.689199464102365 3.739339090382784 2.9670820807705502
Co 7.342149041466724 9.159707038532188 8.518318467378476
Co 3.0997310376515976 7.105465528058976 4.424423800393543
Co 6.962112409173506 6.751385039534062 3.6201200590227574
Co 3.9947005333916206 8.914231708242932 5.569201267822367
Co 4.641960348688082 5.264266559724231 1.013622125106507
Co 4.669178672991251 6.019496811064158 3.1605776617941683
Co 6.392351892229934 8.754781152997744 5.881031453343713
Co 5.079328680640004 6.746622122926136 5.671536665406851
Co 5.774345997833001 7.273518386554814 1.6106551598475658
Co 5.273800234946699 8.268973114787705 3.7578048085357403
