31
Energy = -176.46444653 eV
Co 7.195642330529539 5.991881283341655 9.455570175092406
Co 4.944070392738786 6.704631660964518 9.775469753742582
Co 5.421341346761538 4.489524883052401 9.594613340342352
Co 7.168379533747516 4.210013398091381 7.914488760893588
Co 6.5779339648086435 8.029342809521992 8.445717724631224
Co 7.958532283327341 6.431087750220701 7.2440362911265
Co 3.398749947906857 5.600306475737002 8.129662129060032
Co 5.560247994994762 5.955271674267695 7.583995723206772
Co 4.090866014168294 7.942412536763233 8.104951924241751
Co 6.2157472328124355 3.920684326758895 5.792951430623714
Co 4.804851661312382 3.5628785814151023 7.615756655038398
Co 7.9334384265060995 8.61510182496967 6.541423049002074
Co 8.468421266576593 4.6052374764521256 5.948607077192687
Co 6.451927370679391 6.243474519472047 5.372249016818505
Co 8.599798545323594 6.79769547341311 4.959512647547807
Co 7.5661106455966385 4.676098765461506 3.8261721954071484
Co 5.634939395682724 8.20565233365883 6.3255332260338495
Co 6.039668925525235 2.925302842644031 3.6290339198787187
Co 4.513665177537706 2.432711021837619 5.357707441053209
Co 3.867954182628972 4.6911671968256865 5.870070008950658
Co 6.993544963849089 8.43925356265975 4.406853061081573
Co 3.5936545428004547 6.925789411565516 6.096343551794047
Co 6.829606523616009 6.6142734071886355 2.9767770979428563
Co 5.052817624415431 5.099878882133519 3.807401565693581
Co 4.794999156739361 7.478890171160006 4.152610370336041
Co 4.357731671173024 2.608577764218579 2.1366457096967406
Co 5.946676039167558 4.408973127695782 1.8288259221402103
Co 3.2245320278276037 3.577066704090347 3.884465828191356
Co 2.9022413781306877 5.988900655748729 4.003519227888616
Co 4.786810743664372 6.7025954826951075 1.9577452857315176
Co 3.61100674687796 4.763910450786139 1.9267754652817684
