32
Energy = -182.69805744 eV
Co 3.717444425484574 8.683303746933877 5.763119113667912
Co 4.385414803265214 4.706844584536528 8.331282402375741
Co 7.605666482308081 2.4421240620361067 7.5125567412573355
Co 3.6619101678124606 2.7257135134247372 6.94639236069348
Co 6.34671605483841 8.190975938966575 3.7051028924400633
Co 6.858718450151605 4.444845323028396 8.602457411259628
Co 7.290161767174656 2.7723556202226582 5.1791246325097084
Co 6.177609130692251 4.8485731937816015 4.826048975349722
Co 2.678118215780246 4.329494289609055 4.225179170471924
Co 8.354691373933889 4.551384229131291 4.017489448972885
Co 5.539177278157967 1.3874529927608565 6.403969970070622
Co 4.5543391994932225 4.980488260842397 3.080445415642443
Co 3.8457863691125698 6.909222620622895 7.25553274526698
Co 5.9151016769932765 5.99229220475628 6.982154621444688
Co 4.737233687496511 6.768825767717196 4.6696997969792795
Co 6.735340237345986 5.935482873760375 2.8720562871777657
Co 4.6129706034160645 3.0072094712671325 4.620737607665734
Co 2.451178297607449 6.654328528790543 5.329969924729032
Co 7.895813704233177 7.071478282490686 7.24111317141631
Co 7.980166883393147 4.7704693106997835 6.494882928155355
Co 5.918392011747011 8.199015202778549 6.251523664466744
Co 6.40793645878226 3.412033423114018 3.0392108171567944
Co 7.8562894051448415 8.944595534230096 5.398167995608094
Co 5.420645170973829 2.3853877923649356 8.602620317147903
Co 5.492400516150669 9.969710781477056 4.846668827572318
Co 3.848160502558551 4.938884374789047 6.030440987560704
Co 4.051291261711589 8.697838668002232 3.4620514475606043
Co 4.903446459265082 7.09010663300539 2.041079327888898
Co 3.5125894547359664 1.1911672904050683 5.284651340264413
Co 7.636013651576899 6.6812401939043395 5.01203363214363
Co 5.793849404830386 3.6283988381244106 6.765527368065642
Co 2.8551498296785702 6.592067555162367 3.1040047680139087
