36
Energy = -186.77608368 eV
Co 8.523060902474217 4.852427733164885 7.249638203135148
Co 7.978377211582119 6.0000464010263075 5.42572928149408
Co 6.916327104375849 7.887444451313602 5.207109595320139
Co 8.090452650083488 9.030674559392482 6.676214344064245
Co 8.364352620414339 8.321019300723068 8.756492532145106
Co 7.531963605943901 6.306214014956685 8.576195988230417
Co 6.679061164133855 8.754545842597954 3.167738157841562
Co 6.762435340321488 10.926661916052419 6.495388438869305
Co 6.948533225468323 9.39698233826649 10.258761999271343
Co 7.000838524980436 5.406882211201728 10.734889815554201
Co 6.9975558944773475 3.111669156255288 7.464118066230608
Co 6.7296814914085274 4.8055781555002275 3.8312257280570283
Co 8.086039313885868 3.9584916006431157 9.339896689577664
Co 7.896451992801001 3.562820836384339 5.364508636891437
Co 7.781646306888179 6.739289841996649 3.168582131637755
Co 7.819878283208299 10.162648792301772 4.5940393117974905
Co 7.870401081757067 10.6109118969024 8.504630724412552
Co 8.087816490294312 7.436647298971629 10.809307857966553
Co 5.895195571741081 1.103629375178949 7.73418795276104
Co 6.018490200220564 4.601998677809516 12.597291917837637
Co 5.5449624133651945 3.5171751079109344 2.3025294744322364
Co 5.838960318689948 9.510036909388209 1.3555561537460274
Co 5.554234812792492 12.936978769486668 6.4244956450599116
Co 5.9220231048545156 10.555668261126634 11.952221446680278
Co 7.043834042241841 4.996943500016099 1.568599772669101
Co 6.070655607970707 7.0390401351206995 1.6834084569079097
Co 6.871930096337859 2.4004769871217615 3.6927501780088203
Co 7.065443874318765 1.4648745631697297 5.813751506022812
Co 7.080594417360172 1.9337279239286833 9.471377573625693
Co 7.320079434145491 3.2020977878225585 11.40599773468773
Co 7.2424280854999985 6.505977937406005 12.792893248066223
Co 7.24505462306013 8.801461441305221 12.48836442794434
Co 6.952654334505006 11.715910718423366 10.301851300771249
Co 6.903705325974778 12.656989796439332 8.174404731945083
Co 7.0216292216391185 12.490619472561773 4.845306584228734
Co 6.038258762720946 10.990589512257044 3.4660338665421304
