32
Energy = -182.63409514 eV
Co 2.3727982008437807 7.010956575108396 7.475475422897096
Co 4.929304509698156 7.163866457910151 8.109391307009455
Co 3.737383743834074 8.568824170331988 6.585035759149807
Co 2.6399316062310167 7.182723771137033 4.872775030878735
Co 2.0407938956736134 5.220423519401554 6.150151635259222
Co 3.584237317011629 5.094152680727602 8.09717713281293
Co 4.2830557745862965 6.1747164646293085 6.140614599362989
Co 6.05943915034316 8.73388747257456 6.740164129443228
Co 7.243854242169562 6.891426005667007 7.864995240018693
Co 5.914434091403614 5.089364239379943 8.538126821382848
Co 4.853857979556641 8.014227736543894 4.681977582815024
Co 3.8483036637834824 3.7663375056508666 5.992597596553639
Co 3.1479810240661488 5.032762222910162 4.0774411030978595
Co 4.748483330661551 3.077684139367377 7.962389503309769
Co 6.984350826014049 8.921793084768314 4.436210264578192
Co 8.346977944041111 8.616130653828474 6.200653319343679
Co 4.0815696733897875 6.74254810779531 2.896986601987329
Co 6.15747603744863 4.376783906927361 6.369295539018902
Co 6.974075265970385 2.732303574531852 8.035490329473275
Co 8.484824086446123 7.055037831768445 4.10097986667785
Co 9.10947933968425 6.503234683782472 6.416395085272635
Co 8.144671572465684 4.716172410793585 7.568174739834299
Co 5.495508440768182 5.31662888668405 4.3133312352538375
Co 4.457171887227619 3.1197454773919877 3.8451806207393986
Co 6.379690307716036 7.1214550430894885 3.046854742612543
Co 7.954960806385815 2.786923175558879 6.008631186430046
Co 6.768249484012834 6.802033567024084 5.6208984023203765
Co 5.622759078471587 2.1960027020585184 5.835724503906462
Co 5.201143192690457 4.709603632015482 2.182583563656826
Co 8.173317944166236 4.913071683627558 5.081478888965911
Co 6.715152450881699 3.2925894522481944 4.064102663966025
Co 7.486562790337306 5.145123951625238 2.8744363088064273
