34
Energy = -194.51277354 eV
Co 6.6781112727886836 5.568346964864645 3.338345761289065
Co 5.278346832198309 7.479896511401672 3.4950483751456023
Co 7.781200267055715 3.6400435355637093 4.587400216870568
Co 3.951416648718308 3.726415782162875 5.2337700474177415
Co 7.98872538619227 3.853613976162175 2.368514942227886
Co 4.380737852573678 8.287591313031498 5.77118821289974
Co 7.810320485460453 7.611726814659644 3.8906880998888194
Co 6.512269937604076 9.467243309608323 6.554300469832384
Co 8.101152306354766 7.682178459199891 7.008236943932978
Co 2.4627467176136895 7.317623078990354 6.510906011839929
Co 4.3877550584132035 6.057865166902654 7.014384154263196
Co 8.995878237829999 5.577447149727204 3.6557206392186905
Co 4.019438272724219 3.70910084966726 9.566946902021028
Co 8.44210285041879 9.324482736744686 5.336755945705366
Co 4.866641458688244 5.815919114299089 9.288443698817892
Co 5.948187188127607 2.428151505039961 5.722624736058704
Co 6.748891249116257 5.813080644378169 7.723703430781812
Co 5.05200445410289 3.756141097593097 7.496313765271684
Co 5.645523121102705 3.40314081403859 3.5422341031180236
Co 7.417081279150014 3.673108345883429 7.040570622275944
Co 6.348266980512326 7.148460842169333 5.6136754834736635
Co 3.4715820006603764 7.6213184020928635 8.583440280213706
Co 8.273493693974132 5.6092231946352475 5.845309180750045
Co 3.9454902893556136 6.102286952777562 4.762787496014329
Co 2.8405896816711205 3.2613174423097293 7.428439303140143
Co 2.70109991217877 5.362028502898256 8.4574289059607
Co 2.2890287498015067 5.062401838346844 6.114135290243571
Co 6.4372898200546285 4.032123431772859 9.266593812944798
Co 5.62762009213132 7.859857583681201 7.880772893861919
Co 9.662381332620702 7.3271894453379725 5.210196622780396
Co 5.9522317561746885 4.805398145493609 5.521855868668836
Co 4.354505371244486 5.25090289225312 2.7647774217135033
Co 5.976888210370511 4.335327558958447 1.450835820541147
Co 6.272169629887102 9.359502262787297 4.312069165385894
