32
Energy = -183.06252255 eV
Co 7.587950797915407 8.337177939791507 5.5225162462277355
Co 7.939636004157158 6.090745681914275 6.578139498136125
Co 4.1748600390342245 7.794351128469581 2.5682458822290313
Co 7.573688742212269 6.007395055754643 8.987070119194142
Co 7.947859900694742 8.375094266690484 3.2039375958359266
Co 7.59890411619203 8.0291455657314 7.909595403354862
Co 8.109139203917215 6.239864956854143 4.236806420800847
Co 6.176002253647191 8.810451635500682 1.7254865025727388
Co 5.973920244240948 6.5822436185188655 5.105373257979581
Co 8.340169308132584 2.0979630907546283 6.5173597652951205
Co 5.7389416712662875 6.556309493226618 7.542666802322394
Co 6.2642177465851585 6.7204880039764925 2.753870566527553
Co 5.767555998744014 8.719035976893561 3.9921110223652203
Co 6.384676966433802 4.54731527335046 3.877028542677413
Co 3.802496758065764 7.687203651059864 4.9373649358321465
Co 8.211994846300586 4.089687896082739 5.2996535107640295
Co 6.439964849579417 2.4065516797751902 5.1559875558254324
Co 7.966445293643877 4.027980819153214 7.7108365472830345
Co 5.410564428897966 8.65364375823617 6.362210668027732
Co 4.450326564457394 1.629824960364781 6.09243506576402
Co 6.105621770133341 4.448068417721605 6.307823443808068
Co 6.928834342105374 10.044431445230154 7.2182654068746785
Co 4.297861547049471 5.721245194242446 3.7209066007362774
Co 5.449092594236487 8.585619976767202 8.711942305163797
Co 6.207189975041846 2.3622974180645038 7.459588318109063
Co 4.395614540321938 3.6461911568761147 4.909959741749778
Co 3.945595366958189 5.666964295016212 6.1501253643395115
Co 4.124297389347465 3.570970906463576 7.296661641973727
Co 3.6225593691337696 7.651881620533153 7.448654797259916
Co 5.4753654162089385 6.590439005311513 9.885152088630795
Co 3.8172403910424233 5.580317761614521 8.547783676164526
Co 5.840441193240209 4.4055422718873825 8.73344991749833
