35
Energy = -271.09087766 eV
Co 6.261364174298915 9.472356359107543 7.258689914387497
Co 3.312322872487516 5.522392173999407 8.136296755077788
Co 6.072263246993746 8.475451600640906 9.707789456549904
Co 3.9536735012917466 8.04823303818267 8.28142335139398
Co 5.649362717042897 6.960367634901504 7.735192664303472
Co 6.294959133500454 5.777177645969136 11.730395815885558
Co 8.313435348085946 6.98172578581633 3.0879111068052993
Co 9.6508022932542 6.487872857535862 7.096073681438687
Co 4.589114850229402 5.719132538903185 1.9817724856829309
Co 7.027654987493555 7.334519802021797 5.697819187240172
Co 8.409502016667757 9.236714148731814 3.281076509627335
Co 5.412908712222611 4.418532661380828 8.181740699689145
Co 7.30485472459924 6.020612577961563 9.264380528492252
Co 5.081976995829603 2.042060917470195 4.8754933921022445
Co 3.8771473163280463 6.968086601792481 3.6453995167663704
Co 8.659490550853098 3.3319249380366713 6.231416140431831
Co 7.938223241181213 7.729041976713035 10.828123528493956
Co 4.752046922523211 6.272517295784916 9.842870565666471
Co 5.752030724159313 8.104384496230422 3.2473583767979712
Co 7.6390352349478965 5.362922227145777 7.136233549496334
Co 4.738294362101412 5.7893881767599975 5.9548087503999865
Co 4.015536305471118 4.143828701331557 4.0420408267046755
Co 6.337624263418454 3.8117077176767777 5.536872100030309
Co 4.625104726807867 8.488989451474714 5.7587435773218605
Co 7.538945306008679 5.320914383231193 1.6913830006775998
Co 5.95184560116774 3.490866317305537 2.8100593901097657
Co 6.923637500124345 9.679058427356892 5.053369518077518
Co 6.176516450309936 5.661441767775545 3.9116445828430146
Co 8.24700292024788 3.8294001901462242 3.4784032802760487
Co 2.953630394088366 7.2823291610139 6.015863990508056
Co 5.197561851150326 7.721770220480693 11.675269002554309
Co 8.623640213595507 5.597381045934063 4.805541762152441
Co 4.092371061924571 3.6673538591889265 6.599455217474153
Co 9.298997075057473 8.031375238118871 5.346735550678203
Co 8.017769315757807 8.019548672607906 8.032778755477066
