37
Energy = -213.87612329 eV
Co 8.2235518280798 5.2637234270831605 3.0215996849963727
Co 8.116814933770993 4.790618439884304 5.261237245284272
Co 6.656951214283235 3.545813043488921 3.6655439423238234
Co 9.301560333151086 6.7152231291386695 4.616280656288549
Co 7.509831629510695 7.4710345840034 3.2668454385320462
Co 4.618670054409324 4.350315281522527 2.9069696272681966
Co 6.157843561260311 5.882227524141105 1.8584818691925193
Co 6.764833230870702 2.9082927066575395 5.943655728559305
Co 8.898372139252013 6.131439829165067 6.995895142990739
Co 7.3065479165575615 7.228077654706438 5.647861631205962
Co 8.289704860769314 3.8894193093981095 7.609490789004871
Co 6.169937054432301 5.75606866023395 4.158243163813159
Co 6.413342533047004 5.194946765359388 6.900552287302482
Co 4.91495308413822 2.023676821179073 4.347305750824432
Co 5.716423438965282 8.176503253350175 1.9147138545905578
Co 5.542135377166907 8.299070365161041 4.299423484541446
Co 7.614781239540503 3.5813883349567615 9.817917554040989
Co 7.0466532601650504 7.164645249944814 8.037343542139562
Co 4.258951332991172 6.708554211219981 3.020926129844622
Co 8.41850137757846 5.6227728708008105 9.21263257059065
Co 3.789505881237031 9.05167478093745 2.9681088551766255
Co 4.778485395984755 4.12569651254133 5.332219360528385
Co 4.6715156296511715 6.613803922990716 5.817728927670716
Co 2.8747595708043674 3.1178790190161316 3.8524835399182873
Co 2.898746187950638 1.378272632146188 5.3378017572934775
Co 6.073637318517687 3.177256784782284 8.178126055356666
Co 4.532331078490471 2.2483396239821203 6.685295531645072
Co 2.9313030376517406 5.391529843025392 4.510518696589658
Co 2.9068250533920463 7.77801443961844 4.686850319109694
Co 5.620871424452738 8.58835008025432 6.68404474212287
Co 6.100301332411662 5.2986710423865615 9.25251753638104
Co 4.0328694777207055 9.772923298374955 5.2513408865482845
Co 2.6141391513756207 3.5951327021591046 6.119033294772672
Co 4.199612627070523 4.552849560067719 7.6051850051159
Co 2.607436761965645 6.03725873094754 6.742545845704495
Co 3.307002678560285 8.317961264720106 6.9106567505045176
Co 4.684863827547176 6.815141135376883 8.127189636949868
