33
Energy = -189.50044637 eV
Co 2.3907538568012185 4.930656066891247 5.122590132184612
Co 3.020534317391143 2.7727514649993177 4.301879511982041
Co 2.7412219584254776 4.608625326828837 2.768210343618842
Co 2.928331820431935 3.1552080173021366 6.5718710097856885
Co 1.9798099850262036 6.736317946293591 3.6196967577669783
Co 3.126642425925698 5.4344740661751025 7.398957402115318
Co 3.5574222947947955 7.48278759824977 2.116527163728123
Co 2.2103815170023196 7.116373024553639 5.915954735092159
Co 4.884066383311896 3.61231559739285 7.837494646342598
Co 4.7168485761441294 5.439096449118755 1.7578737484190259
Co 4.677376056765763 4.641296621654167 5.770657287783133
Co 4.898505280727037 3.7796701082874895 3.5241475636107666
Co 5.016531543137621 2.373073725713866 5.688802546936825
Co 4.1606656203022645 6.043899155323127 3.9199413388884095
Co 5.09601122864708 6.032932551394542 8.414632256328881
Co 3.6744506914888913 8.283670620371977 4.399434084239588
Co 6.934294289275835 2.647611136349062 7.070299257332856
Co 6.405705113839382 4.3367147310082546 9.4118514661118
Co 4.498933711425141 7.043170439553665 6.276859022257087
Co 6.80739321523157 3.795495811862383 4.9686640479281134
Co 5.707592899762289 7.501157660094374 3.038600923666051
Co 6.453591959690141 6.2796477903322385 4.98256181364093
Co 5.961005486409155 8.567585292462596 5.124831015562348
Co 6.721671528242887 4.97539841831867 7.12485875508029
Co 6.7334992157411495 5.224085577845518 2.9334447336543694
Co 7.946639362648369 7.225493089310624 3.2356172471110525
Co 6.702698916158063 7.433538502236647 7.150185201103325
Co 7.595911691905908 6.266799241399795 8.94127775135011
Co 8.512208724439365 4.152811466207326 8.404060675093667
Co 8.875006474907108 3.7004564993398907 6.160872774868635
Co 8.23908270084588 7.736325735003116 5.46012595002148
Co 8.573086498665369 5.373616569699777 4.542486239448205
Co 8.781049637916428 5.965646117952174 6.842907232610812
