30
Energy = -171.02705461 eV
Co 5.115146443467343 4.60477755998501 1.568858220442266
Co 4.804406189161245 6.677038261232266 2.4222779155484684
Co 7.430428501765699 4.779465365160671 2.020881395540498
Co 2.83362450064862 5.347135121041337 2.3611393376556533
Co 4.061867202658952 3.592759749018087 3.358188848107093
Co 7.115405172032331 6.882486039703906 2.9769623534831533
Co 6.266983983674531 2.881405038624881 2.6971445981387183
Co 2.7513795754782517 7.5254089667710335 3.2510875344364365
Co 5.37082270823728 7.535316390549877 4.455725322351249
Co 5.983861760376069 4.993836585885188 3.8377896714486934
Co 3.721808931779 5.777260144038826 4.480286629568265
Co 1.8303617692628056 4.227968576692574 4.123362158235524
Co 7.891284987318868 2.776630040658571 4.314283912637148
Co 8.39250775547594 5.025546078781322 4.088555121109684
Co 5.664347385982816 2.878553220344792 5.045134106330404
Co 1.529513386703045 6.363026570843939 5.03112238722452
Co 3.4290058543498754 3.5824175813831545 5.64215820466779
Co 3.355560415180654 7.96606756230163 5.478641855047557
Co 7.113303639247876 6.493835926469328 5.423341469872626
Co 7.122216635766539 1.9919515915922548 6.589547955396467
Co 5.267569528449039 5.086091710399182 6.289187155417838
Co 4.7539491545762536 2.134933202296279 7.018555958180754
Co 1.5346734546988676 4.53477425705439 6.5366932524847225
Co 5.2156565395557095 7.386577133141304 6.829894766817815
Co 7.479122344873561 4.18694516846487 6.120516905544863
Co 3.128824223757453 6.107004866925567 6.831737640796594
Co 3.6167186483444453 3.9962957050624124 7.8669042085644305
Co 6.107433085384545 3.6982311407614445 7.962138085266039
Co 7.039014026346895 5.957626792625276 7.670040627134973
Co 4.89813142694106 5.833562883685727 8.532771634045162
