30
Energy = -170.11251445 eV
Co 5.932549684790128 2.7543318352627244 1.9529730655820245
Co 4.107883552181076 6.231854858498385 1.7869859763790559
Co 5.85752474630049 4.879203844281099 1.1105093189683641
Co 6.337652320936328 6.403626697804856 2.7978377341096885
Co 7.582008208625569 4.449471413889684 2.7720690037879456
Co 2.754036497415486 3.339743126540337 4.4088009265057515
Co 4.478620936710337 1.9798567992731417 3.5911261418652436
Co 4.368623224876598 6.9730858676973675 3.9340494536686212
Co 6.761581469037765 7.537983442953201 4.769725386592639
Co 8.064358338571967 2.24568452710712 2.4368872885180064
Co 2.476226728240249 5.549864673363729 3.494155227590162
Co 8.280899307949285 5.624157589555047 4.710308248019855
Co 4.597799919608286 4.365096194846451 3.154082137645611
Co 8.863500200042807 3.388345375379898 4.395271014103806
Co 6.611402457004132 2.864862467606105 4.199607036238933
Co 6.053262853040509 5.265177825155996 4.857941442541001
Co 4.8172616583761725 3.0403039474093183 5.642048903014355
Co 1.5004148953341687 5.067719994459004 5.639725574425814
Co 3.767281685623561 5.144077932906173 5.364552801361787
Co 2.619761172147042 7.193787087588063 5.520053994866918
Co 7.3575648784875245 3.9264041038043183 6.161723483816917
Co 3.0654048003075003 3.6463158509078637 7.030898642865563
Co 4.967333586790583 7.1506395195295145 6.2077079778224356
Co 7.028071713894235 6.243630890962618 6.838311618600618
Co 5.31487690175827 4.677497551755234 7.25946964102236
Co 2.9692142323769035 5.9589490973943215 7.497688396670212
Co 5.153809495182873 6.65546477201153 8.465523222758543
Co 3.4638798101357726 8.206925652338303 7.595938251570576
Co 3.9172493362305834 4.630265086187072 9.096869685777715
Co 3.1694865572224855 6.845213142730028 9.546699572508333
