30
Energy = -169.50013582 eV
Co 6.7689354181263335 3.746469537119089 2.706128586157281
Co 4.038748654771601 7.1420660032957475 3.01331967732349
Co 5.311975350867357 5.307695704382781 3.5384345314530243
Co 8.415960822737624 7.652115560030194 3.3336367210970073
Co 6.159166623488768 7.495455536746677 3.9247803278630955
Co 4.667470403397073 3.049650035357381 3.671714883991344
Co 3.05486063011303 5.0638754147705995 3.686627034574889
Co 6.55337697419609 3.6222889175364408 4.9523783162945865
Co 7.664113039717551 5.557837797663123 3.9264760833888084
Co 4.179763656657055 4.322760848636271 5.525137082449213
Co 7.493127080313306 9.092876193298293 4.9945370018731055
Co 3.8910944346454004 6.75014649292036 5.239877384962923
Co 4.941951460054556 2.228021562143645 5.93957202106454
Co 8.590111274550306 7.025868225912484 5.513254617246154
Co 5.39112944397697 8.43805710460833 5.94608467374669
Co 6.174248170417582 6.10641145658609 5.849892631901915
Co 10.128206138984847 5.694400374256363 6.421440462151479
Co 3.5301385898137783 7.936311043015734 7.288247268542302
Co 6.544954248329187 10.238298556618343 6.860575962171554
Co 3.800726600887371 3.4206339780433845 7.7118508620979975
Co 7.485628205745199 8.230930389366957 7.172234592649626
Co 4.181363578209516 5.7563576178526725 7.423630494918425
Co 5.95490373290408 3.963991406264635 7.249476442879501
Co 8.70806122648384 6.402447829414543 7.983740976146191
Co 8.040160054937877 4.784089597521095 6.387633265119218
Co 5.471393592256793 8.645783196165326 8.317082017369627
Co 4.265625087848147 6.943207432960007 9.395576884181047
Co 6.287772452674683 6.4586796119389795 8.287376551895266
Co 7.565152713629313 4.59653694577645 8.793791022000962
Co 5.089830417657333 4.67668570819042 9.295441700881161
