38
Energy = -219.67618543 eV
Co 4.149942532743876 3.4101042045334697 7.292506661313234
Co 5.0704127163298836 1.7117211222316018 1.0040138809537484
Co 6.3048378881988185 4.147509427271445 1.1602924736901332
Co 2.532777124607457 2.0537646095313464 0.9472467886263457
Co 4.364797956134175 5.6755399287744135 0.7917920505911636
Co 2.2086659996431313 4.4612747405927795 0.7113963581095177
Co 4.112922995744877 3.559435718047794 1.7773862481043485
Co 6.717529540395743 6.454601148614274 1.8804351979484464
Co 2.3269359962911236 6.785473199168895 1.0892757695572786
Co 0.25590519399393846 2.78890098594384 1.612590356192681
Co 5.961877594338736 2.661526245355868 3.069520785184193
Co 3.7416385864200126 1.5254698086630594 3.0636059156482625
Co 7.474984765670285 4.577133544756642 3.3733979326253793
Co 5.262184513697331 5.18122502187105 2.965538544597664
Co 2.0228651810374596 3.309726414150496 2.859364506454311
Co 2.857011455428088 5.63861687805908 2.9094427806602874
Co 1.108227533433766 1.2828325078581069 3.595134657388543
Co 4.52366851812809 7.274773909233198 2.676155335602934
Co 0.6367662870819373 5.1341916687473805 2.3257819044688968
Co 3.8778114127489713 3.706103038047567 4.146344686330732
Co 0.017866270730216592 3.4494172726092143 3.9165590429749066
Co 6.412094820222038 6.447167171385709 4.552099402835578
Co 1.802797738459113 4.775224652120039 4.892289747900471
Co 4.0347789020638185 6.045651823108905 4.961129409635247
Co 2.3248257516698185 2.392136212136163 5.1742960992228895
Co 7.432631701318543 2.6256715884351083 5.070121213504502
Co 5.871807137938061 4.247035937254969 5.037767470263215
Co 3.3818073403450866 0.2920888352203008 4.973918590525998
Co 5.0983832976528385 1.9073717723579748 5.231612801667972
Co 7.7545614337255095 4.8513544172002305 6.081778074863138
Co 0.08353384508083501 2.2047570752508894 5.813378648109193
Co 3.9355717224864732 3.8976465359074246 6.544393923298964
Co 2.6805578733960447 5.736044944613122 6.8447652885407955
Co 1.6694640685799231 3.4814237572539226 7.039538083574441
Co 5.552180314416266 5.654476698781307 6.79743860954734
Co 6.139148071903391 3.227014425725973 7.0464930464115145
Co 3.5208418167247584 1.656196039503866 6.99874817318063
Co 1.4993630030849678 0.4933756215483181 6.23312360475526
