39
Energy = -226.4773167 eV
Co 6.6251997395305 6.20328010421536 1.604973513241057
Co 7.3450251681797125 6.923635104519317 8.843754469320688
Co 6.613621399357112 8.010076707292026 3.1095054090238743
Co 4.951033318387707 3.664506265379807 4.094746645221055
Co 4.745959449787536 9.926217098172849 6.3166958200820575
Co 4.932884827179849 6.32049313269899 3.149759829011173
Co 8.625460190268436 8.48851206885429 4.373074572325121
Co 8.405237174573275 6.470417170523206 3.1497792428535893
Co 7.237095089760419 1.114414972519705 6.4450259824473966
Co 4.9536128864633655 6.953426741188795 9.159136571777312
Co 2.719722033341978 9.025124378403069 5.436322851470035
Co 6.0888984484166375 8.524547368629564 7.620311289568779
Co 6.115516480072937 2.78064473684887 7.67430438432393
Co 4.9284913479801595 4.564951532870715 8.958150307278098
Co 6.869026525691831 4.725015759688468 3.319824776459178
Co 3.314058160499054 5.731992089726264 7.712128062369913
Co 8.265461854695012 3.146664316881641 6.7126710267647205
Co 8.651671200120381 4.599330862417895 4.798941120697323
Co 6.3037529716793035 5.626268650601175 10.491189059756696
Co 4.736115970524261 8.169395541331225 4.662769313255939
Co 4.19611580110564 3.8269966428950513 6.701995701740745
Co 6.676336435127867 9.125382040482926 5.375661917590729
Co 2.301883306445954 4.981461174214772 5.669590487666441
Co 9.627054740260586 6.636676609138953 5.269883945300914
Co 8.266377091484747 5.5956461656927425 6.902099259282955
Co 3.0823548931887412 4.8036214680512925 3.4146445391428024
Co 3.9797576829926027 7.797534508084629 6.960746688870924
Co 4.95293694982197 4.376161885464358 1.9103859863060695
Co 2.718131408082427 6.951784408213604 4.309589096348678
Co 7.253919384376854 4.546886535066206 8.652674837353423
Co 6.444826463058003 4.262752119122037 5.8243387901528365
Co 8.142445583139729 7.871292257791698 6.7296766790838
Co 5.299265659788997 1.9828211633697779 5.636403244541727
Co 5.86573905427205 6.047130739771321 7.292219314756682
Co 6.942417808363067 6.631188416289975 5.0040791925978105
Co 1.8104418428186015 7.114585380186602 6.478100837798623
Co 7.323781740989161 2.558736626731759 4.574967399558867
Co 4.449062375489746 5.827324845089141 5.415562330202058
Co 2.995011316097322 2.8488061849926365 5.000019277870653
