34
Energy = -194.15258213 eV
Co 7.793169431766399 4.348369659016943 9.571528885698973
Co 6.4045109839080085 8.091720085131751 3.377423868538454
Co 5.079079784967526 2.111238133982613 7.677232647221779
Co 9.334417929892444 5.4164238554544255 4.8392568115190135
Co 4.802378373675573 6.785065138365988 7.79164268264163
Co 7.048346139658589 5.775382708530511 7.99241208700978
Co 3.048506537532725 5.7209130699720685 3.565710958623967
Co 8.211307166934333 6.786353589013879 6.2208052788110875
Co 5.911294932193127 6.67442759033388 5.751109437580158
Co 5.068860416937247 6.323929191595137 2.655257870960791
Co 3.4114903642317045 3.502576744941573 4.40215140353243
Co 6.106213726022153 2.7632303934301237 9.694368180741597
Co 5.271541433019047 9.770319424640435 4.4606994907337265
Co 4.900680995923368 8.779756792750126 6.484349845819015
Co 4.1907148605959375 7.5993570334756555 4.482896936779282
Co 2.955414322327002 7.559620557792601 6.653967514917428
Co 8.73080690452604 7.721373046521719 4.124213829232292
Co 7.609035421673098 10.085215777277739 3.7783988168452525
Co 3.216672150541658 5.143703806281755 8.157920356100888
Co 8.967135356219984 4.726908906519469 7.225025340474827
Co 5.246652945718219 4.4918357614718225 7.031144654900881
Co 7.332469316274977 5.908324916018768 3.7604063779786387
Co 7.094920021037591 8.806560465075188 5.581001411427156
Co 7.276072709404123 4.517647172613004 5.660983413996451
Co 5.318875271540797 4.911277050703375 9.361211166145345
Co 5.243600377646039 4.832527977017774 4.345592324791912
Co 3.788815363681746 3.157800843555302 9.194964565514901
Co 6.8063267736772755 8.051435474236762 7.78589078605095
Co 3.5189304024633565 5.563119263232802 5.808249585397088
Co 8.246214332137855 8.647614699642284 2.131479331684862
Co 7.182690860385804 3.2595920484112857 7.668231746511067
Co 3.3289470499816733 3.289403514293365 6.678118674106639
Co 5.460998231799827 2.8096292300839125 5.485381791412452
Co 7.0972778975551885 6.673536462234289 1.658016095847765
