38
Energy = -220.10108432 eV
Co 3.075572029000554 7.732118923476871 5.968726694580919
Co 6.026082777850811 5.741883653942558 2.124908845538842
Co 2.7298504620385393 5.385053542869198 7.299097906292679
Co 2.702394485891461 3.0561079720386344 7.618619459060015
Co 5.689274902359966 1.805078921428878 6.573809624788596
Co 4.139241854341643 7.246698823573454 1.5648949638972494
Co 1.210984214116983 1.6069494080086792 5.947116450588105
Co 5.107320440004138 6.392053181182862 6.205671519907381
Co 1.1871358958792624 2.5238514468038726 3.7155129582758626
Co 1.9064506500479235 6.061801208426347 1.4194272320807393
Co 3.459139109033736 1.8978744247387889 5.8005821525272845
Co 6.915386106324531 6.561051451241294 4.305260984683915
Co 1.3422096444635931 5.016704936350719 3.527634548773555
Co 4.92148354130363 3.613702257387982 2.354253106384736
Co 1.0947814767143416 6.378176718065678 5.637644918375842
Co 2.503250557445882 3.616541236740897 1.752573517096198
Co 4.623052938027095 7.323677189735242 4.057059249064158
Co 2.2354392069762814 7.238156445810491 3.6248926601940483
Co 3.155934996727198 5.626927073963834 5.109186051425271
Co 3.9256565609120346 1.5431153729726887 2.8129874037316305
Co 1.5788410325469517 3.9074189995419584 5.789324500952774
Co 4.527004206153412 4.027289648843139 6.427410394628382
Co 4.215928858187467 2.4160659423149693 0.583716691272506
Co 7.200298712207183 1.3519276714628203 4.7568752908135785
Co 4.992810095213904 0.38973208957402483 4.647222957788112
Co 2.3562834588083374 0.5132496115644911 4.165533088694573
Co 6.208946285793565 7.9767704565193 2.5649059913369667
Co 6.4219141419796 3.624921630343632 0.7144968454185942
Co 5.3607900664072 5.011027540102468 4.372721058104061
Co 3.2597027666090925 7.9767704565193 6.047818897010607
Co 4.282613542379991 4.971889933350682 0.5743065493812568
Co 3.574484000646098 5.493711019600227 2.7807855038717215
Co 7.105852979155579 3.91043744708354 3.2644377541402085
Co 3.207656312960157 3.4820552342669915 4.088219303956825
Co 6.314412489949094 1.748665251835769 2.491016953367192
Co 1.9126836424392137 1.348140114664666 1.8340571913972468
Co 6.858852417900647 3.8534007746573615 5.765273531523818
Co 5.414961795888226 2.6658418566893194 4.456695903760413
