36
Energy = -207.77974844 eV
Co 3.218181392880313 3.1071688856985875 0.34330369927745674
Co 5.144061278047 2.874732370220193 1.8165120537693011
Co 5.181460826992196 5.156234972369087 0.8937037317967218
Co 4.053373970123332 0.8323558179267986 1.3076728257500423
Co 1.5931277652673688 1.25630618730108 0.8828863545990246
Co 2.66375771018065 5.557054436388626 0.3395707402796282
Co 7.234318917947062 3.930699943099286 2.1798987984598392
Co 3.3220278472045166 4.549788994637637 2.1790464122272875
Co 1.2461385971278216 3.7514169180238053 1.4630558770560345
Co 6.968847981259448 6.354663025292253 2.451819991328967
Co 6.418456302894928 1.1329962282430244 2.389665704262709
Co 4.164476820439319 6.735707260362416 2.4190022253492858
Co 0.6331947111416343 1.9217383444667477 3.244980977703108
Co 2.301208947783291 0.12449809108502348 2.951638594835383
Co 2.7549448589235404 2.2823222883633894 2.5086016096530632
Co 1.8132690081092488 6.190189174645969 2.7995537700575146
Co 7.369612906478375 4.952430409610678 4.421165460904301
Co 5.454890540748452 4.907668325491081 3.194961069049055
Co 2.9416749627010517 7.627538096617494 4.806083276116776
Co 5.396088297503102 6.835614089944931 4.498710536123554
Co 3.4458540980519285 5.548063073841779 4.319839925036158
Co 1.5534765952294631 3.9806475796234397 3.855367439453999
Co 4.188121549567265 3.164959919229925 4.080545297827463
Co 4.52724951765716 0.9294674366892232 3.6520386166296954
Co 6.451214777692442 2.723468957369004 4.14327835339553
Co 1.488845440695689 5.669103614004928 5.585181631846612
Co 5.366415729249302 4.660858246103733 5.655236743181275
Co 2.3863602962076977 1.6797144340044325 4.87977934138558
Co 3.5861591278879548 6.019578555099802 6.608588394176726
Co 2.9538396949851426 3.8577285028180888 5.896643350561812
Co 0.7880808811756214 3.1588327441869155 5.9047655753785495
Co 4.67237777933432 2.029328660805921 6.022220327945092
Co 6.669432576146915 3.044392146861396 6.479289261276199
Co 2.012850612039499 4.49483955929689 7.834339483083489
Co 4.431236765849237 3.763663802906184 7.640481719753783
Co 2.560215271549862 2.149073264442221 7.30541518754113
