33
Energy = -187.84291108 eV
Co 2.8060236254498228 6.413646151031758 7.876796882663841
Co 4.428101178259519 4.934942128460576 3.4502881473464053
Co 5.935540268931019 8.965758520463694 5.749505206174986
Co 6.356120285473678 5.475571971518739 7.637837204355803
Co 6.922564640991739 6.846732483922277 5.817133477149853
Co 9.744155749092025 4.47317528297929 6.450786191390174
Co 8.69038358336236 6.28343493360535 7.354275889545828
Co 5.9340767874362506 4.087573245765433 9.413157951876851
Co 7.4878321622030315 6.178592150898843 9.524559295192688
Co 4.636326886246624 7.200912054144999 6.845224584686029
Co 7.380442593463386 7.3389643786722205 2.204050514742466
Co 6.560864922867628 7.860104794642803 8.031417772320955
Co 8.67985564701703 8.091430453532192 8.81319459444953
Co 3.117202075696786 5.948761391162199 5.548350291779427
Co 7.741939896219419 10.302211592521106 5.229243950656184
Co 5.186361091391675 6.798508415181632 2.245274972113589
Co 5.160337874638524 5.015319908788676 5.650142604611813
Co 6.722384754595747 5.740134783315543 3.735801285492606
Co 6.0823719394992874 3.1922901812094158 6.94560434502886
Co 7.828682351695993 8.275748314982248 4.207055749312973
Co 8.109016017828674 4.034177958194651 8.13244108666791
Co 6.136086863164023 3.3917947183709303 4.420254219028844
Co 8.972217715068101 6.311655938058786 4.933330977339577
Co 8.623442764469296 8.418608746066692 6.430621771072715
Co 5.878904770832175 8.88457184374366 3.2606335814462493
Co 4.192976056196467 4.6214068597933915 7.762561096592819
Co 7.64773906262639 4.492550210816901 5.703430730694675
Co 6.9871290444579195 2.217865380161573 8.821087632962552
Co 3.0072005018006918 6.69411538718518 3.2997324912987755
Co 4.8807216128238196 6.403079748318281 9.156832831734496
Co 7.302034273045564 9.943517987864029 7.454373474033326
Co 5.883464706897146 5.6456840502377155 11.037028905790994
Co 4.872281404758454 7.232553206390314 4.49972727634925
