36
Energy = -208.55480455 eV
Co 4.116059971194302 3.527056188879899 8.85974159154274
Co 5.097115730245571 5.774826319164109 8.78627325400582
Co 3.0852200951996185 5.2243338299453255 7.588211794571424
Co 4.039075547223022 7.418256057119537 7.263754691352519
Co 6.526088567719185 3.8850799398124636 8.883323088988712
Co 5.8271022510936215 8.059370004201279 8.64201231432194
Co 5.2779990826244205 1.9906299729105734 7.5698693062197675
Co 7.398564727476134 6.235216139946968 8.783248682686661
Co 3.327278978650733 3.0728244672250606 6.588476329057349
Co 7.772673530444248 4.717138507648056 7.111980659643075
Co 2.05591130189368 6.953051011826097 6.109816833253772
Co 4.094499533293036 5.750712178825017 5.500067546353208
Co 1.9124929977405292 4.710753822464056 5.597656173226089
Co 6.207220021134371 6.544965934501621 6.786688904045605
Co 7.186281084316667 2.6697888120523765 6.508852389968465
Co 5.738500344479907 8.79783694245041 6.241787440783502
Co 5.323545215797996 4.245063844070173 6.947993193517137
Co 7.748756292759789 8.322437773804253 7.352962157188526
Co 7.72258878880786 8.543861994263228 4.936302768345707
Co 2.595393542069415 6.4207435318041295 3.817490668123461
Co 8.526571882274807 6.620903838112809 6.079529760438148
Co 5.958991174285493 7.093117007283058 4.422708631070413
Co 8.257796456674264 6.3865160527909115 3.852443721305024
Co 6.535564268877481 4.7265686416367885 4.7545157192603735
Co 8.837022872521286 4.372213902681471 5.090438213138854
Co 3.433665666612684 3.7318959114068377 4.232957312700513
Co 5.632110143206486 9.400465548895166 3.9492616169436214
Co 5.235416341675435 2.655974680814999 5.126047932685155
Co 4.509798897523727 5.403131735279769 3.1461293262235523
Co 3.820890449123425 8.076785246579288 4.930196703961698
Co 7.434152887776047 2.5023003048297032 4.2361158583802165
Co 6.51621767577911 5.873169131164883 2.3521379101482776
Co 7.061148509158616 8.117196733184503 2.621878206763001
Co 8.014484664634002 4.207127290702948 2.8464662411571138
Co 4.513292270755523 7.67863745536563 2.705530804093466
Co 5.658617266042447 3.433868658941959 2.9391822077276273
