35
Energy = -190.02980414 eV
Co 2.4823159763601015 3.988436323627221 5.667349009026249
Co 1.0926558323385658 6.0551809263804675 5.7652245251964365
Co 7.482956913144753 5.94845395974267 4.242605433499104
Co 7.307736335796477 8.584887750156662 5.8333731241920175
Co 7.682784471750772 5.265742200997871 6.527333497488213
Co 6.558899527965686 3.0418202607489255 6.469165493616332
Co 3.5586259429031197 4.375441107612123 3.7896490912799363
Co 9.222990416729875 9.409809774082152 4.972569436415688
Co 4.724981966247902 4.329921667408003 6.215978978204269
Co 9.23694921945608 7.198045409436211 5.161260163861566
Co 0.02457111375400599 7.339132335927535 4.51101409122393
Co 6.499205870499466 1.6206412193655075 4.785104749662655
Co 5.885227323473103 3.8190943946998654 4.0887910452286125
Co 6.455445494826339 8.024924255501366 8.009276667788747
Co 2.820429602569292 5.118274062197611 7.615079757753736
Co 11.45549268860187 7.6898925869033254 6.953651335535872
Co 5.0809681198983805 4.3430097712290845 8.499041441182714
Co 4.28307232739958 2.4185832374524763 4.760713877303194
Co 7.102095796164752 5.919816482669905 8.758351441759967
Co 3.8086903055366625 9.760996742699215 6.479154710838443
Co 9.960822574632333 6.083628766950177 7.046003622917964
Co 3.2682119973882915 6.434741683485381 5.7786668298664745
Co 5.143158202302177 6.031205442192387 4.5425672213958075
Co 0.7105640461920874 4.345064695073334 7.009788486395184
Co 8.055766984714259 3.5912041245070485 4.702605741106761
Co 6.154975949326133 8.00671987803891 3.89656976357077
Co 9.40310915734957 8.40599405940052 7.128303644042972
Co 5.026571003672235 8.045102677122786 5.922206727321251
Co 5.102089250332692 6.276122719220054 7.359725018937617
Co 5.924493882919927 10.109949337421938 6.958016882183182
Co 8.331161125860302 7.987955009891705 3.2659538482230097
Co 9.072348843595416 4.703255787433011 8.47444972321267
Co 7.921651937244962 9.722279722444505 8.031131733361264
Co 9.722741170401182 5.012186599087109 5.054694877270628
Co 7.169655031457648 3.5691177633399063 8.501756455347108
