38
Energy = -219.87098239 eV
Co 6.369020905753007 9.312292600269487 5.497305026183064
Co 4.139315153845759 10.092367401274322 5.950236588360002
Co 4.981056463093548 8.614401669430048 7.599478257920882
Co 7.1740602233448785 7.95414296130128 7.187475813851015
Co 4.609232876515037 9.37279244866715 3.7841545065697475
Co 2.505943024729452 8.567333128260664 6.50889940973567
Co 7.611222617763297 5.999465257646859 8.558767718694995
Co 6.369990280384761 7.778377427343061 3.710822359629219
Co 4.517621868912568 7.8119599086986105 5.48572785582288
Co 2.5634287158234734 8.367776763996924 4.228198828606754
Co 5.538928997477147 6.286836276604121 7.338112475264361
Co 9.292823976642188 6.864535083386818 7.249669185610247
Co 8.268408948915893 7.850052330692097 5.14827565385609
Co 7.5958831750721805 5.748363290065075 6.154634953081648
Co 5.602922420187057 5.849557487779962 4.816520535435156
Co 7.825558003727601 5.884639709403781 3.813873687613983
Co 8.874229461591778 4.324518424814968 7.416932338285201
Co 3.3311706082384247 6.63251566827581 7.34583641173469
Co 9.79510083834323 5.949194673271336 5.191210708143281
Co 2.0604901953691934 4.784145164601993 7.365101820647807
Co 4.154500846580417 6.912970918897929 3.215173680976848
Co 2.739504849776577 6.201925763890297 5.074648711720572
Co 6.529070170541221 4.120762844648025 7.596042785026605
Co 4.288300341377726 4.436752334822939 8.433312959477119
Co 4.164188851522605 4.540811593468248 6.190507346584503
Co 8.706110294405855 3.9149719748722784 5.0992611142716795
Co 5.849848913931029 5.471100739357153 2.50264708929975
Co 6.301803970664382 3.599263946601946 5.095637315252027
Co 2.081668239725792 3.993763689314928 5.169332995976164
Co 4.000643306679523 4.5384133158678965 3.6751523246016475
Co 7.673990307500108 2.375176229060014 6.547450286649916
Co 7.419927289123369 3.8027558498531793 2.9523244092254384
Co 2.9228429639478026 2.702401606626557 7.156804861394694
Co 5.1615390731720066 2.4085624078337022 7.000275459325326
Co 3.9244093710584824 2.5389694162879395 4.929563766361587
Co 7.817180592101636 1.9067816525654484 4.193445406972507
Co 5.40893723000544 2.7497663303332986 3.122742871210057
Co 5.836922491611986 1.2450959558943075 5.095556898834802
