37
Energy = -213.37407998 eV
Co 4.112064519791335 4.230814569826154 0.12390304633354113
Co 3.194950510819427 1.9956339108186973 0.07487128118855046
Co 1.6493124211241865 3.5201400169353523 0.8787698736161544
Co 5.9816534961355865 2.994069450667756 1.287041289396051
Co 2.75168726325093 5.409529361255001 1.9006489743336918
Co 5.210019413217341 5.136865947168786 2.063863444100287
Co 3.74936672549439 3.0499430021762595 1.9702726419411924
Co 0.3416426897550479 5.225910859470394 2.4840697427981095
Co 2.00716897403958 1.520042394491691 2.185565983567669
Co 7.5901850109068025 2.820826966340003 2.2022374801796194
Co 4.687274023368493 1.0181576914278712 2.485787039609491
Co 6.572209083549918 6.762808418717837 3.2833805148466277
Co 7.305818039449425 4.346332815780039 2.94756514907156
Co 1.656836947108749 3.5878358369332815 3.268744277274873
Co 4.098067299074951 6.724641250190043 3.6052158445133333
Co 7.5901850109068025 1.9845756176901144 3.5540159283072095
Co 5.544354470707195 2.9034681850640993 3.5520380325241785
Co 3.6519131560004423 4.371937022711326 3.8294148242629675
Co 5.508391712856441 1.0667164010772132 4.84565130733051
Co 5.702125297937558 5.104897359835723 4.485501039657588
Co 7.2451448078220135 3.560534612076017 5.282733442211782
Co 1.8267738499905137 5.991400332995783 4.18876050758157
Co 0.8486095330790674 1.9258439501717506 4.502521429034931
Co 7.5324147503306955 1.3176146943421716 5.796632261631296
Co 7.585416178730239 5.976475061893061 5.316083551735853
Co 4.583153081010717 3.088582814657721 5.797982020723579
Co 0.20904347900840475 4.380891580639983 4.834150772961018
Co 5.386166677027992 7.105415009829308 5.651405337897068
Co 1.5338684285691715 5.604121952588103 6.5139922722012615
Co 2.1977002887182797 3.4770575038365354 5.738292645728208
Co 3.2574027467082485 1.872401733720186 4.196969598849625
Co 2.925434795670062 7.593045010852944 5.665203324228755
Co 3.675235166873532 5.475042437093976 5.7837950181139695
Co 5.788172416681468 5.001927020411235 6.856173884025802
Co 6.250166878519984 2.6750923239273945 7.2046034220083515
Co 4.063876767273527 6.634600979033255 7.644206446863316
Co 3.5988525545567787 4.215426280230776 7.668556726227366
