30
Energy = -170.36793638 eV
Co 6.598567649690984 8.531523331981637 2.9166120335645678
Co 5.670642361790133 6.462760289076551 3.4947025038044677
Co 5.287088139732849 4.142742640001083 4.322263553982866
Co 7.4952765106228485 4.97291363947311 4.56899958692562
Co 7.750943077408729 7.277546549687127 4.662865261052439
Co 3.9629405492175565 7.969077596925891 3.4996936014201223
Co 9.634293508126015 6.229709268361988 5.598747171653889
Co 5.058883007305487 9.949819974907122 3.6047715316155498
Co 9.458201516622037 8.580082976764139 5.526892551536537
Co 6.590742659449559 3.7818046918085773 6.3778418513794195
Co 7.510868859668025 9.651925202622035 4.685114577354783
Co 3.568090601044189 5.856131581058151 4.608572684956927
Co 4.2482131898728595 4.0758057516143955 6.442642270575095
Co 5.656821929080634 8.412977172711853 5.157852505900833
Co 5.567246080584711 6.0271435911326945 5.723212223473817
Co 7.717443393153181 5.958275291280081 6.821247922090255
Co 3.517078437536056 6.066044110117728 7.255866717087679
Co 9.352180655122817 7.472816667770469 7.58992307839428
Co 3.5873869853356726 7.825547491255397 5.8364531387975385
Co 5.401495343507673 7.655325765552428 7.513437306319098
Co 7.4459069017657065 8.398449353320164 6.770891152951636
Co 5.631135521198105 5.339564446627545 7.998038043437567
Co 8.923767434597174 4.048618580487124 6.2060720160385525
Co 7.6144025208859585 4.269767199848679 8.52894188964225
Co 3.78208025635186 4.733759052605015 9.204578492609317
Co 7.28912116052997 6.708019378018588 8.958625014218988
Co 4.935524885241273 6.772090415075159 9.629029406795674
Co 9.615559434739334 5.256703694986917 8.090366076615199
Co 5.340054956744333 3.11662995838915 8.409850851474278
Co 5.945232036225142 4.61361389969083 10.153084547482692
