32
Energy = -180.76444835 eV
Co 5.537418588510929 5.1353526952312745 6.332999480500563
Co 6.592061185931168 5.411206660484398 2.728295819393837
Co 6.207632264867925 7.380404083934883 1.6703270807166348
Co 3.196099298936728 5.383894294337916 6.30652479844089
Co 7.941540549294831 5.056807718969422 6.251957438213154
Co 7.796906560212498 3.410307216054529 2.78743297036511
Co 6.400286875212234 6.619989542525825 9.67276024538032
Co 2.5512118004616258 3.257530709009775 7.060262782431282
Co 4.4273308732855945 5.16171236588353 4.1936006158985855
Co 7.648813236167401 7.423078421523552 3.609732932340921
Co 8.583325319920286 3.3333494597683195 7.590662826354484
Co 4.630575884349992 3.604604272179027 7.863516712854473
Co 8.541645437748992 3.1197206230276233 5.09854669884197
Co 6.452279213780506 3.800724720199284 4.567477478917049
Co 5.113890592240707 9.728404054651838 6.770862634677998
Co 6.495355756800944 8.394849432483628 5.430345618848576
Co 4.631588895877572 5.953364233293576 8.398130662886238
Co 4.278563707157659 3.2628559437383844 5.457700385086721
Co 8.50424697180832 5.302416254242522 4.048452931537741
Co 8.487175791413065 7.285543442760583 5.745953443292801
Co 4.4165761657993645 5.876755751552493 2.053465273558133
Co 5.235180092851782 7.378535165005805 3.6947498777420202
Co 7.249300709198232 9.085195982688559 7.461295181247216
Co 3.072555482045863 6.976094474295042 4.566933065399082
Co 2.675725798996495 4.910906411369317 8.5921592444267
Co 6.83438228060698 6.869870080755457 7.366176643202582
Co 4.5064932941588784 7.4584837909510995 6.390968223940886
Co 5.197332441700006 3.556974739771974 2.6918526872177
Co 5.278826025556882 8.262783614270676 8.504542601371993
Co 4.178264257497645 9.077705940569851 4.733292838783304
Co 6.551293168277533 2.970288002139894 6.732035844758303
Co 6.805034996711039 4.70383033012513 8.39128120931947
