35
Energy = -200.26284118 eV
Co 6.90450744637041 6.90329474513656 5.183732626701822
Co 4.558795739264633 6.9836496729144 8.311447644349311
Co 6.902192463648864 6.9020525865629185 8.943314839527515
Co 8.0097187845797 4.8304623090445675 8.309139910487284
Co 6.275723235223029 3.526021900708519 7.0368349440637346
Co 4.102661102908452 4.7555590599559405 6.693257638599438
Co 5.70549215537027 4.84765656172999 9.227004285886004
Co 7.525980740608108 8.190141693939111 3.4247360555707047
Co 5.656436170478594 8.923414193844799 4.881070546287105
Co 8.202469037787498 8.963415082727282 5.774925301703597
Co 9.276551058818345 6.96897294921905 4.882968683617113
Co 7.711014770790104 5.73179221653801 3.418347060318939
Co 5.4845893876186 6.7926555485772555 3.422917624005516
Co 4.472908041467841 6.998535022416064 5.774199966646356
Co 6.286656366436742 8.184652345859663 7.078590175433622
Co 8.324571128542132 6.796646898447401 7.080620489811315
Co 8.033815828014752 4.749926786927434 5.7719590974083665
Co 5.772515812151234 4.816620616315757 4.880382713905323
Co 6.104283636120873 5.7269247550080165 7.079620611273617
Co 9.27658487994216 6.891205888312695 9.232334632343568
Co 8.147553478855144 8.891542311344079 8.313361725328505
Co 10.164708793206195 5.548772898263547 6.69310732450741
Co 10.141331392008327 8.051627585659435 7.041024365798921
Co 4.293044477795286 9.130333396269881 7.039697704200694
Co 6.440416593570373 10.404107072351145 6.690568123362372
Co 5.730611899200175 8.973728897186072 9.225535827562625
Co 5.483962963424567 6.87640848789399 10.67769344392501
Co 7.585536080456875 8.141738050073405 10.680950292915519
Co 7.630162726114536 5.68639729949657 10.678648785612504
Co 4.977824192287256 10.900009879682518 8.347891978323744
Co 4.4066990935512935 3.238799777620509 8.351401316974444
Co 11.319818520678886 6.572626971355326 8.352166228553115
Co 7.244170336945036 10.437147961424312 4.3666819127577465
Co 3.6643284166057226 5.437596630842885 4.372096552016934
Co 9.790470335910488 4.8336690374288285 4.369876661297085
