30
Energy = -231.33184762 eV
Co 7.466808310169928 8.352855686059247 2.5853462544335137
Co 5.762292151711463 8.068409274714286 1.2991717957678717
Co 6.399118934424003 5.785639397617022 2.320544991286122
Co 2.511353339460283 4.873435132921215 4.042702098065801
Co 5.272945022284261 7.787978596110778 3.8960338048589525
Co 7.436798312523929 4.0111439897304235 3.5872170939253603
Co 3.6847222346740143 3.313247098814639 5.4640423894607615
Co 4.08657918795564 6.209839441960461 2.3409508615356014
Co 9.252164981275973 5.285139526956395 5.285869980899144
Co 7.041411556659971 8.72706321147251 5.4043987993068425
Co 8.661585290818874 2.8510539577264025 5.787161909604267
Co 5.883921644773602 2.684859850918877 5.249318118841341
Co 3.189670300742402 7.083837219214478 4.608087056499892
Co 7.362610255476718 6.666521902933038 4.163350536802294
Co 4.928114276816545 4.934870000709507 4.393370915699981
Co 8.283671119239065 7.117141418961676 6.758153987076327
Co 4.353358901348142 8.839585297057873 6.061043294379112
Co 5.420092140996789 6.661770320481887 5.99882516102441
Co 3.12028454683035 5.611010619806037 6.381834402449908
Co 6.934489670309005 4.790508991417027 5.975906944691346
Co 7.051070398233659 2.8923905936189764 7.475801982615774
Co 4.778839573719463 4.217822915998553 6.960007025974895
Co 6.244001230388689 8.507674176564297 7.7691675313408775
Co 8.667668758676864 4.662961232231276 7.9046882629609865
Co 2.4117065338210075 7.920520145981827 6.660076101456156
Co 4.099351892335929 7.10168851329915 7.860009274249536
Co 4.907724421333103 2.7840373475245284 9.085812977626372
Co 6.862726842398106 3.983969307600892 9.856303232893072
Co 6.451673841422627 6.0001020512443874 8.342031469930662
Co 4.278851805251816 5.078530256424713 9.288379220415376
