35
Energy = -201.78496835 eV
Co 5.911550465957666 3.686923039512912 1.7512799054519348
Co 7.3125878698055935 5.394270374124497 1.3503736819747778
Co 7.885552192898844 3.6685267967433752 3.0016718842668224
Co 4.544470732973767 5.376404204484414 1.2787038064476501
Co 8.001454512748861 6.0069348446619575 3.430903601565153
Co 5.878696876362507 6.591969930301666 2.725147589023711
Co 5.877770295569271 2.087220714776377 3.372761883657414
Co 3.902025145032253 3.374836003093001 2.9822370719158693
Co 5.907815074220544 4.466549977490517 3.9912125632180966
Co 7.011197826804604 2.632886457045415 5.237451570206186
Co 3.7576096713135487 5.6167003916725236 3.4025211297770928
Co 6.456049584636281 6.4826488950412315 5.33151312781818
Co 8.703888663772148 7.2112712441317965 5.284942214854001
Co 6.933565050472701 8.310517319274906 4.084337677618558
Co 4.5740326483501486 3.000324660633088 5.290827722410277
Co 8.153331788395421 4.658048891731797 5.252641415897897
Co 4.508028403688072 7.576492944080825 4.398008019141251
Co 6.229177312907461 4.350936989349885 6.560316792803154
Co 5.636208268674028 8.745940042958317 6.007463622579909
Co 2.5301735099331175 4.146175185838704 4.761890206470124
Co 7.937529963391381 5.891197789693207 7.252505153091904
Co 7.538320563769177 8.152155079944677 7.046528469226013
Co 5.63764886943979 6.597189028155001 7.578259759312999
Co 2.348490559895964 6.64061659451456 4.962304938708231
Co 4.20677614840212 5.400199630003378 5.813696581153491
Co 3.0260332957602123 3.474551042519095 6.935329250405721
Co 5.229330138162143 2.65056911673552 7.593025938822035
Co 3.679024552182991 7.679227679868903 6.623276078672062
Co 6.643217829964046 4.66770593042247 8.815231424416723
Co 5.37782396663522 8.694867376142309 8.409447581513236
Co 2.4276137326712504 5.7462536976829455 7.26248834331934
Co 7.172774811691183 7.314150779041012 9.166796790298639
Co 3.647140095340766 7.077208402212911 8.817628668764282
Co 4.346237442559153 4.752306543586281 8.277372904502931
Co 5.393384662253763 6.136717061693652 9.998520146260313
