35
Energy = -199.6132221 eV
Co 12.685194607161554 6.947412227266767 8.514168809732883
Co 5.41882458827364 9.012229783685537 5.7520359125000216
Co 3.547378687540263 8.805391744344046 6.953702219597868
Co 9.169327759113418 5.919524995063947 10.33362048701703
Co 7.57914454409564 9.400021086462687 8.920340680239937
Co 5.3701481252623005 9.749062767275529 8.133033458035513
Co 11.07278579175475 5.42799535494697 9.107655541005753
Co 7.488615262979715 9.0151404609035 4.1315878953529435
Co 7.42868024989884 7.619269291432264 10.33080585421162
Co 10.605215128050233 7.1170775054569555 7.51766897616555
Co 5.110513388082033 7.234873621451537 9.83893926419675
Co 7.451212139922309 9.444739316742291 6.5963631929807915
Co 5.444679945728578 7.815571256809291 3.7931810327314612
Co 7.012299858708792 7.239225851864707 5.479246908613135
Co 5.74862974763138 9.350581682486268 10.40092911033931
Co 9.23501758803751 8.222911618388194 5.678430402362369
Co 4.980477987279771 5.580799535556276 3.90803982191423
Co 4.635142013524627 6.623394124105914 5.989361388899079
Co 8.644294287435573 6.992305424424397 3.7492783531492138
Co 11.514755259553914 7.143147160433532 10.492571445268455
Co 8.212827261328302 7.366583749394562 7.756669664047231
Co 9.05265757997149 5.9221473024313775 5.8731910768659485
Co 5.89317813859303 7.557217629304957 7.715777146043301
Co 6.982299994657519 5.31099724728833 6.86650165832928
Co 9.618788103231427 9.402384737614527 7.674124024393357
Co 11.601585255301623 8.889160988663068 8.834397097655328
Co 9.01187538469188 5.189954845596019 8.1221373302558
Co 3.5706428540893764 8.946156835358261 9.358422718197529
Co 6.80259191596109 6.419946681761763 2.6286723688851596
Co 5.196158708563399 4.335517544364269 5.844967116041105
Co 7.132702909199732 5.0881671709361616 4.514711014957042
Co 9.639910034526066 8.033152420698688 9.590081352921098
Co 3.464823523728322 6.94364568151472 8.19776582118305
Co 4.968302028548153 5.266566917321598 8.040237367254294
Co 6.952595442529409 5.7269048687390836 9.20618115075869
