33
Energy = -188.36972415 eV
Co 4.31472084235858 8.407950302386615 8.482048223319898
Co 7.8356317361424015 3.602024629362405 5.056169026568667
Co 7.9834040938552695 9.889513103969046 9.590484993584694
Co 6.405244976315274 8.125201543601467 9.619630810520869
Co 9.981351605703255 7.030356820951043 7.501942366314013
Co 7.150238948431833 6.078292234245131 10.332929696731723
Co 4.748455907584928 6.399768680272633 9.721804443568326
Co 6.745735980580719 5.350963899746587 4.009278476411433
Co 6.531354280910308 7.807406096030088 3.716087467219952
Co 7.991133645324891 6.032838697029276 8.111819787180039
Co 5.533537480694428 8.719551497481884 6.322422274471385
Co 7.988461023722087 3.7233117910049898 7.521753226869506
Co 7.711260522066709 6.427985243482812 2.2243698003791277
Co 5.797900893164272 6.8139201441450705 7.665977660888126
Co 9.017876203396693 5.272868905549148 6.079617976419618
Co 9.051139468544799 5.2802965858731445 3.7551522899482808
Co 4.1306820622119815 5.115334322849931 7.782817472080147
Co 8.777331095841769 7.70196092041079 9.59346016154135
Co 2.662321045822516 6.596951216941574 8.761146089830307
Co 9.450678099161898 8.582096777670913 5.933699972091094
Co 3.5023486497439626 7.149743574022404 6.661448080477033
Co 7.406600732170226 9.362933808626272 5.192380229917488
Co 9.80342474752621 9.255412367838147 8.162000575919796
Co 7.518221496746925 7.0165075164838395 5.731389789115421
Co 7.675005518972627 8.530073376417658 7.60141247227328
Co 10.571622424688918 6.678549438883185 5.190465272074763
Co 8.861975346497314 7.578623525369989 3.839119648497267
Co 2.0575386407959964 5.426773764693298 6.698171063485725
Co 6.29146495830981 4.820179792122024 6.345123514467408
Co 3.994930921424986 4.800511428357009 5.51884004851165
Co 6.223216030986625 4.658296751415274 8.760098327193413
Co 5.195850765017786 6.672759090966935 5.201322829111078
Co 6.009536272916669 10.01123856943272 8.235812350650315
