31
Energy = -174.92769653 eV
Co 6.228974528307573 7.532755035195659 3.7611817171879034
Co 8.555898435676628 7.575170420539907 3.7387208248705286
Co 8.5661906892006 4.760799732741008 6.519405408333351
Co 4.857442424452894 6.897422462712647 8.113095172142321
Co 7.578811166642315 5.623717612619251 4.564158077704284
Co 1.753348555155046 7.166274755604332 4.745312098347157
Co 4.9533048782802656 5.884265148943288 5.148531804410701
Co 6.603178741518514 5.848943643508629 6.920481926335158
Co 2.8598006494551167 7.868796837295014 8.595485204094098
Co 8.13634933725121 2.5659964365541725 6.942690692619033
Co 5.811411991962553 4.5325767985164385 3.3591927740939345
Co 6.585102983242553 3.7388209014393783 7.980453474996641
Co 6.525810243712166 3.725133637349037 5.59227401347794
Co 4.953261300194586 2.4001439851184494 6.82515128835423
Co 3.934859306819966 3.658131391275907 5.054117372452486
Co 2.731779436045451 3.310300166177756 7.101219313412408
Co 2.4851060897390336 5.310598562709848 5.862125946327091
Co 5.7116142293528345 7.941282840629891 6.0836214695815025
Co 8.157367911528267 7.41263111960634 6.06704605010096
Co 3.143377394929796 5.578706213539309 3.645508774472267
Co 4.545195714009569 4.7028301487627076 7.236461284149998
Co 3.887426992829171 3.557024550466572 2.702569367578406
Co 5.454160214474389 2.305405307314895 4.068037042600515
Co 3.9062867920722883 7.754371716202464 4.140765605004508
Co 4.860726775364385 6.357572986212789 2.320935915581176
Co 7.241746422438886 6.047633736616507 2.3134275024128264
Co 9.812393389526378 6.1642895326518 5.214926136118254
Co 2.6902847013102984 5.694408452422434 8.108261114005142
Co 6.632487294686282 1.318404969725124 5.774045433010838
Co 3.3642835975287584 7.405888573649348 6.4135111258283555
Co 7.307392613865892 9.195077125474425 4.922660871970871
