36
Energy = -203.39958309 eV
Co 5.775097943248326 6.955981870699218 3.1691412524825253
Co 2.7770087547389553 4.536688548185106 2.039978486649343
Co 1.472589093783305 4.299883313176655 5.914806859395646
Co 6.002544015087885 8.162783981128843 5.211787518407658
Co 5.237208587818364 3.1564352659709614 6.9972436801695475
Co 4.051868702095628 6.5537660724859395 4.936138463255759
Co 6.411136362225559 8.913590631255667 7.5276313755223665
Co 4.599367931468685 4.833600247592156 3.311311082580847
Co 3.7286044693231357 4.0962103869275 5.447159476153107
Co 8.183001855812993 7.8191548923933025 8.645462799780384
Co 7.768449605620662 5.456075594380094 3.088873861093108
Co 2.2413637842400997 5.319211243500466 4.089226723487306
Co 9.125031425124387 3.493449879463187 6.690386758030546
Co 6.178383783903884 6.6998332157665645 8.631287658140824
Co 4.84452204061648 9.927554993518632 6.140720315069151
Co 2.6211752224440943 6.066775770834371 6.723620885843333
Co 3.4893020095982448 6.805246655708951 2.6155542184838496
Co 4.539548242226988 2.7898018720630184 2.406865397581836
Co 4.151597979035154 7.944221575352497 6.819535494709467
Co 7.5598481916886 7.028948248835347 6.607489123231994
Co 6.3448803216550145 5.5983320339203475 4.994921297187848
Co 5.032928790444416 2.465195905251901 4.611485685094728
Co 10.546615604143764 2.7380769174512585 5.243028817670651
Co 9.185469758678124 5.801979539663909 7.622341118667753
Co 8.683994062785056 5.275642039194023 5.335798957190904
Co 5.457142888225312 4.560430661853578 9.012075409492565
Co 6.996824861787942 3.328808506272794 5.576692935257907
Co 6.552489827174744 3.595971749865579 3.2509421780536236
Co 4.843066580356399 5.432385847925683 6.978047997340643
Co 4.685552872527018 8.722087157622896 8.952787574627196
Co 8.78511150150127 3.3682066518516267 4.070298750648881
Co 3.7991979158832843 6.567340139666046 8.716311567265322
Co 6.4813096898132345 8.261476172619165 10.21037291038712
Co 7.9611065500989815 7.39712834945829 4.318968444102658
Co 4.11909041389663 8.625138704059475 4.064983392620528
Co 7.175318678366219 4.810335681523802 7.434471851761424
