39
Energy = -225.44330847 eV
Co 6.93398327233256 9.416426591863406 7.660583158652279
Co 3.6550392031673176 8.5865671071367 9.16081976990524
Co 4.662055278852874 9.03284228518355 7.173562972296242
Co 8.790837074269831 8.821249772887453 6.172877187869828
Co 5.792577762837677 7.73876803123258 8.812017906395516
Co 6.489546647601466 8.667354341968895 5.5154576047641175
Co 10.248718806368757 7.873328684614154 4.72896613830963
Co 4.222919024875286 8.262908484303601 4.997266611104673
Co 2.81702448235829 7.494299106866981 7.258995207219377
Co 7.4544951089465386 7.154786770623121 7.208737760142506
Co 8.156101268698754 8.64888481712314 3.8744784893430033
Co 3.902204449523379 6.270949283735575 8.931520130629089
Co 4.964528275299237 6.665069181949784 6.728348115382241
Co 5.89128242838854 8.40619981094664 3.170920599821963
Co 9.792855708498786 6.754055542504605 6.808393953461269
Co 6.077282868121566 5.384394294074806 8.454053141911142
Co 4.186147015603721 6.728783698740819 3.1422759380685727
Co 6.0163152188245554 6.525404751224951 4.572884438351609
Co 2.8116616300596253 6.487486032490663 5.232876481603792
Co 8.488808580519763 5.23656251192409 8.101775686218556
Co 8.370893800870624 6.6085193932261 4.910142200721431
Co 2.8291907529581226 4.853395627019234 3.196189896317344
Co 6.920141891579741 4.9546068388849855 6.215278134307504
Co 3.3540233478075265 4.872553834330707 7.12805704041309
Co 4.406314189361176 4.804505634669923 4.923187748092726
Co 7.19065524725081 3.303560192734619 8.158883373997687
Co 7.4118564650256635 6.664315971137657 2.698172645788946
Co 4.436167449266465 3.9141730405200406 9.006115432023757
Co 9.291565610189117 4.643414656711202 5.8777667250376044
Co 1.996485607261067 4.298146425413039 5.286909561340311
Co 5.639476007376142 4.904121890755692 2.8540041312763873
Co 7.698763471693298 4.550770041816191 3.9816200735571097
Co 5.232213082173441 3.458531737705224 6.92961399504502
Co 3.6379890991428714 2.639910683538842 5.398342239301267
Co 9.491234787197522 3.2273442120001063 7.62786794917081
Co 4.245277066158144 3.014113572839486 3.1876321623087858
Co 2.038453045512861 2.6853520323817874 3.6493179416656996
Co 7.835131519007638 2.782058461606201 5.995208115057691
Co 6.0472606723585915 3.090754624953079 4.649513553973112
