34
Energy = -195.05271431 eV
Co 9.05371290567184 5.098158560038028 4.778169061733871
Co 9.42309579823829 4.076526181356939 6.853809480041622
Co 8.665324033028293 5.980501866162083 2.666205397819127
Co 7.880268140664502 7.193960252764801 4.520828483886905
Co 8.28018468805811 6.18814621922142 6.774262257385709
Co 7.882986782169271 3.0744945869429596 5.4236487908962125
Co 7.485916454266062 4.066119141944429 3.2563583299588945
Co 7.419757792285937 8.08880221967136 2.431329886138461
Co 8.669040550903235 5.259405110033587 8.791475439088048
Co 5.538823226539887 3.074424006709605 5.928430786306019
Co 6.744758831361761 5.091314065538546 5.240927270603079
Co 7.16154117058269 4.124099293095641 7.434569164655264
Co 6.315955538791261 6.108952889818088 3.015839913186411
Co 7.061666177768546 8.238663351362877 6.519145038117685
Co 6.600371386590094 9.185333742508659 4.30300477154615
Co 5.969069841806127 6.345669845324187 7.325198543557531
Co 6.408842718345939 5.20240707989229 9.319636622738109
Co 5.502588044088528 7.2216368191209375 5.026614870153721
Co 5.092819282355792 8.092717115447757 2.8374391248412634
Co 4.7757105372516895 4.242617002112698 7.936913811689746
Co 4.232942867713779 6.3116936138650335 8.897600875113932
Co 4.329294528754266 5.171367762514184 5.742175918551438
Co 5.145552360473823 4.048860601517337 3.760568883649903
Co 4.011874012979815 2.1392220755164297 4.428131023249143
Co 3.8281260266448363 7.306036234257148 6.823364557972729
Co 3.1559237373467806 3.164620096744573 6.458284931243328
Co 2.6812995547031795 5.246912226641678 7.447126771036049
Co 4.989559195489256 9.233964627026111 6.094444027046139
Co 3.457192497439047 8.196887527552356 4.579216769926192
Co 2.2829029823856644 6.233090848382906 5.30138994316342
Co 3.901633716510986 6.129951725571351 3.5263296435387383
Co 1.1183735225034726 4.252892776319221 5.921818333882203
Co 2.7404685219708678 4.143666187612347 4.270580205167677
Co 1.753020123474754 2.123263536458001 5.031785490927409
