36
Energy = -199.44982645 eV
Co 4.939726126088798 6.715596045452374 1.281544215198434
Co 9.964502409299671 7.614835766996537 3.4304402703440573
Co 7.264639125505053 5.405766145908524 5.229031712997103
Co 7.91145811343266 7.156629022927394 3.9652881844581374
Co 3.6346242695015794 3.9623251527874737 8.26545923360087
Co 5.472899185790516 9.071874185335071 4.346315402630827
Co 7.371620751508712 3.57438014506031 8.308009976717164
Co 6.458244690834994 8.056407557900085 2.4933424606778036
Co 2.28415535603907 5.690781083734445 8.529494985625089
Co 7.017482118401236 8.490370732482349 5.915690436059936
Co 3.630735610947355 1.833673838306162 8.587731167001957
Co 4.434912078169251 6.165069276092308 9.010965606116992
Co 6.664781564489729 9.366640561580093 8.281486467702655
Co 6.682965717995499 5.756551096730712 8.570142098168086
Co 8.963727599026251 7.202013763128688 6.006294886881716
Co 6.093904906100603 7.641412748476233 9.743821295075994
Co 7.974372149273556 7.496252064028813 8.026353023334249
Co 3.664051545860503 8.200216677247177 5.669864545545944
Co 4.179588180073598 7.495483204819565 3.2368698721419578
Co 5.554249408372119 11.2411377135773 8.223156244534332
Co 7.108821945419102 3.1391426528474797 5.934058296600011
Co 5.39133314298349 2.413784449830244 7.387927426927121
Co 9.140070385021243 4.223824886421359 5.03317191588014
Co 5.367786781181548 6.767609732207789 5.172012425418559
Co 8.599401288104895 5.231270891366494 7.164763137712915
Co 5.353627475018789 7.588096115747213 7.394582295330579
Co 3.5411877269181646 5.954422366461059 6.685205433658702
Co 6.056662477405344 5.803507060425866 2.9986724330373984
Co 2.6814846603410345 6.329872751695403 4.647817419101771
Co 3.827803333580633 5.218223942320352 2.9735597247134855
Co 5.449856603395644 4.694167001883047 6.970666366908053
Co 7.484768783069946 1.4866358640914452 7.541098465530327
Co 5.061242581478702 9.771327669049748 6.561118480903205
Co 10.474241736783092 6.081935258029507 4.904872342553646
Co 9.250898551818253 3.0054065401493935 6.959931566162037
Co 5.2218658823118895 4.3270502964441775 4.722934446291689
