36
Energy = -205.31022214 eV
Co 3.0023804901017943 6.156017148566413 9.492590331924037
Co 5.948609232230664 8.210030434822947 7.325607582560345
Co 1.712373829132828 4.488849078183288 5.579400366094241
Co 3.812548363184845 3.568706712493479 5.932678969113303
Co 3.4602331025709274 6.0644202213687946 5.693516826286885
Co 2.9549357867932833 5.853753428598987 1.859729352526972
Co 7.50995430815209 5.39370610068563 4.945862258733492
Co 4.901539873088356 4.741540128335194 2.1536987460580197
Co 5.268216550124697 4.995329718430806 4.531515619364123
Co 5.316031060457681 6.403506402686049 9.212775844804348
Co 8.017565826420451 7.405903528558439 6.405837352940831
Co 6.602935291244526 4.430614473815125 8.621267618023156
Co 8.981065023840369 4.920286960636423 9.159680495453825
Co 9.746887122925216 6.803245965009866 7.884274225193457
Co 9.652285976136145 6.041433650349514 5.429427086078616
Co 4.942505968125907 2.8559925601254887 3.8872410232349153
Co 2.233713500122411 3.4549107525210565 7.599945587054573
Co 4.084502751824215 6.899355411563343 3.5234265608696513
Co 3.8732792038065362 7.266811041629003 7.624670005421614
Co 8.818752575776577 5.71518955098581 3.133583938554979
Co 6.192834050790898 3.656675346697291 6.201281092872633
Co 4.1420251999966915 4.671296835511286 8.033111886750591
Co 4.161585709778288 8.494479566751188 5.57180823886232
Co 5.5651922746878055 8.693325357676676 3.4312740815186102
Co 10.526230499277997 4.837508983767448 7.323053311915097
Co 2.013021827784009 5.701922910463015 7.52603600520778
Co 5.826559466406652 2.7196232370557727 1.7756100112496163
Co 5.929760703816334 7.216031815587093 5.106331582079153
Co 6.4362246959366045 6.391015008938425 2.9084513342460783
Co 7.053197051068224 4.037231000848912 3.116032973867571
Co 7.4997754371933185 6.618238981411399 8.568474102567109
Co 5.830643028796448 5.844655230157902 6.924029112394476
Co 8.262776675566904 4.834353229459026 7.014403447705344
Co 3.095320279370228 4.501240429964476 3.718600916603671
Co 6.680389908413719 9.342839638989068 5.409372366054559
Co 7.987192190138394 7.703844276071323 4.086888054542275
