31
Energy = -176.69655744 eV
Co 4.862122810217945 8.570569587491393 5.842660062554762
Co 6.374895050300808 8.003439517102352 2.3252727237746256
Co 5.70743787802363 7.447532847109943 8.121136642198103
Co 9.171521671552291 5.692600002232648 5.36890345550453
Co 6.134352970607365 5.496480772314353 2.4989018414700013
Co 4.477123416771832 8.727165889573 3.4961955675953105
Co 5.150360081297376 6.120068900044446 6.343200371570829
Co 7.929115856904507 6.90658629683944 3.8483680371847218
Co 8.855199751636322 8.24152993163211 5.487028791371249
Co 3.381935423057962 6.873607585786564 4.976555068973049
Co 4.07624766837922 6.58035145149046 2.6309370810322408
Co 6.831825957208689 8.972078580596664 4.4276493685298295
Co 6.970693241189178 4.80460252348024 4.673604532795959
Co 4.559296902319318 4.803038220747993 4.215268011775512
Co 4.81492069694059 9.51219782679793 7.856339575711138
Co 5.953002662503734 3.2234396926339843 3.272862253198381
Co 5.683071176837533 6.92295321483343 4.253500217382835
Co 6.977497285469856 8.952462528746349 6.76134305578992
Co 6.799497706012486 2.482517999464654 5.312641813717522
Co 4.432280295231446 2.5989120510104167 5.003403509238826
Co 3.4716644748315493 7.3551397480342375 7.386609194542236
Co 7.922945060298468 4.2766957758446615 6.731451541763103
Co 4.096326544599883 5.258750936956313 8.262210840548544
Co 5.509776564704131 3.8320280709170578 6.640966565539214
Co 7.421485407734811 6.699560256645995 6.412239445216452
Co 6.509567033357828 5.264144496006208 8.279845524922967
Co 3.2257644546407334 4.735585942891568 6.148292356474685
Co 5.289054054492879 1.4191438503285265 6.827896449086764
Co 5.27214485040454 3.33161721413175 8.961924511396882
Co 7.075837392420018 2.4727330410348793 7.8743962186575285
Co 3.5866415719867892 2.81746203515272 7.485355581342784
