32
Energy = -179.16902946 eV
Co 7.386897250288653 3.798139284959726 1.9716743071014324
Co 8.048796253088806 2.7989619132153463 3.9218202245782514
Co 6.277788986576353 5.745477564207799 2.464904057822454
Co 5.991732942348298 3.8804802562892444 3.824178152858685
Co 8.130522490315172 5.117780148073324 3.8519994128000117
Co 4.24694644968298 6.208949742198744 1.7610503061292753
Co 9.421271745203931 3.903834053223896 5.380243043187022
Co 4.17300570010167 5.584419707423717 3.928925434011338
Co 7.194845600171779 3.9862308635747166 5.888292550965098
Co 6.218480026148105 6.133345797456866 4.8968916527749835
Co 4.764265757531809 4.176896595724646 5.862443895714593
Co 8.472717951190255 6.012916592891558 5.911421337486442
Co 5.941390285759223 3.6693785831241694 7.9025307291496
Co 7.515127476064794 7.7738671609059296 4.083748364403222
Co 2.701705620491439 5.16514809562545 5.644554804374622
Co 3.961833712104393 2.728728938870858 8.306280298972101
Co 4.29114649641814 6.671488645551684 6.285619068675421
Co 5.250267583221082 7.673122451580486 3.232143671556844
Co 4.725185460273779 4.362795234892536 9.852943666990033
Co 6.364009088826382 5.898281432113752 7.283058200731917
Co 7.369896034164846 7.91895409716061 6.502650281691685
Co 3.70313232932004 4.855482400827688 7.7657540906965785
Co 5.48122359495032 8.571097962842902 5.233902876179801
Co 4.739894966598296 6.602428221965067 8.875257070306013
Co 5.58085739788005 6.30172157288941 10.956113128118707
Co 6.859159817984963 5.22845039184888 9.459901556563855
Co 7.323998454475083 9.931177990716254 5.446191386146089
Co 5.239992122554839 8.4585357401834 7.572716285639565
Co 8.797506014190745 8.460921668099274 8.180908794494874
Co 6.914839021825142 7.530933927718 8.974980348927167
Co 7.09096021318717 9.86327454864457 7.83446355321596
Co 5.369273874922264 10.53544913306016 6.491108165597689
