39
Energy = -225.51517153 eV
Co 7.228380404306494 10.322887294103811 7.820311226020438
Co 9.00155698658594 9.48986701497327 6.542130648801967
Co 6.950754010818144 8.42387037323272 6.516041726984011
Co 3.558308310244721 9.579190821721408 8.45710653074685
Co 5.70915012958366 8.856570048295929 8.584172144419682
Co 4.706662984619293 9.132444904517834 6.457906998631417
Co 8.2016916387802 8.382547769784992 8.763781752964391
Co 8.397510614478477 7.998386033578154 4.758445596531367
Co 5.903277754860283 7.916650794111118 4.445359681360241
Co 10.31276247693755 7.297842200886683 9.191550212248403
Co 2.81355783660428 7.705538434036574 7.34340473895669
Co 7.5664656897282905 6.343180718019354 7.6800595668536715
Co 3.901635215821706 7.421486367177814 9.344025247403298
Co 3.631028548898573 7.54602499825587 5.147105454059903
Co 6.274404234302971 6.862082454349841 9.5633330443768
Co 9.674519606509275 7.4309589393714885 7.06026445363429
Co 8.433751904066511 6.31551215498058 10.023530465160457
Co 4.3478119210371124 6.8501089127001356 2.9673977321745015
Co 10.46910444685135 7.144085216486169 4.827792184911854
Co 4.766243952642658 5.237134704689022 8.997054548138424
Co 7.480165931297732 7.807485337026724 2.7000672484689825
Co 2.5113925021705814 5.654305295716543 8.725140917537635
Co 5.082713056645442 6.912777196723743 7.188714597031512
Co 9.52219836936244 5.274490880821405 8.274859718836785
Co 9.390058645150965 5.458456924456413 5.874054358786674
Co 7.092156325094767 6.073229112784679 5.432624908183973
Co 8.699772556484596 5.85273817504986 3.640973658479562
Co 4.784675494582936 5.6181242206775535 4.852773690446998
Co 6.420075221524865 5.8675516718065515 3.0696232667047396
Co 7.0661249885010475 4.54921121106317 9.017804890957683
Co 3.222968883297273 5.469752214601803 6.57275721287327
Co 3.6161190432538617 3.602556454380656 7.80043133117228
Co 7.903397013278519 3.989670380361652 6.78187751400068
Co 5.665800851025772 4.543185315892069 6.993356139092373
Co 8.75124486822463 3.68868835498214 4.508458811189415
Co 4.888182716069707 4.1222589161988745 3.091829292977255
Co 7.310307901312485 3.872616105437225 2.6442245428673523
Co 4.20425691877926 3.500474920463393 5.473683274482219
Co 6.4726497719370775 3.8188968819527513 4.798810397202077
