30
Energy = -168.68956349 eV
Co 8.051146891286898 4.976454623951973 0.9234157034940165
Co 6.074767147155533 5.8944111188016715 1.3722500997601104
Co 4.425321047508064 4.303191126643922 1.5964867633197553
Co 8.221060147184074 7.149425084344523 1.478664430236735
Co 6.619170657332983 3.8827731275303994 2.5250160543379336
Co 6.363544447213877 7.687376271336797 2.8353642402599344
Co 7.663564812359053 5.768595213237001 3.191337183139964
Co 2.888476450903767 4.571366610828733 3.3735631222056153
Co 4.765354512678642 3.1627499202292237 3.594195234624074
Co 5.088217871474753 5.692676460258495 3.5568897768734633
Co 2.6777012283981514 2.4579723262552364 4.534612106601328
Co 3.066580749050281 6.3790009176170335 4.824555453069178
Co 4.838515094146117 7.941371761768396 4.61588304206055
Co 6.953709384659951 6.972052553846071 5.0101847872886305
Co 6.591191396412571 4.460044889959663 5.03745484517311
Co 1.6431556410111985 4.3698953310219215 5.525678819658324
Co 3.91424617612 4.152984043704452 5.525143536044963
Co 5.58053373598993 2.379261738309933 5.602592836943144
Co 5.0730299085235355 6.121421320845423 6.049790706535324
Co 1.3492435076945333 2.224783336737265 6.399662933746981
Co 3.8890301737461455 8.016684560742025 6.805687142416
Co 3.6217148123983414 2.0567213642797366 6.6793446867584585
Co 7.073723031301821 5.648855708116105 7.159891421492102
Co 6.22552916217573 7.87486019677086 7.0419823266242485
Co 2.9980589909111193 5.904762850618611 7.06749375045465
Co 7.154983661220047 3.329029653416582 7.028651550422884
Co 5.015977940592727 4.026410915332097 7.581636603856138
Co 2.543421689017613 3.777924210323542 7.6540309472329024
Co 5.06089680281547 6.284094701169867 8.376446664282703
Co 6.616907418999802 4.581622552284991 9.080867721369504
