35
Energy = -200.84088231 eV
Co 9.137572767595346 4.109347658756545 7.630719906666759
Co 8.232591123790401 6.051581845802886 8.506080530526646
Co 6.789707870183673 7.890512651636514 9.015767034122705
Co 9.648403810411873 6.003926208006683 6.273697975429769
Co 10.327622853427773 3.748412049249936 5.787997475618569
Co 7.944326920268783 7.719985517922486 6.926273552673466
Co 4.058222880338157 9.070738723073685 7.685005157953204
Co 6.917749869527221 3.5572738278050418 7.913925794614732
Co 5.949642374223033 5.54874572704329 8.585327405650833
Co 6.283004799514036 9.525249675505236 7.388217840528273
Co 4.563437447131491 7.440565462971238 9.267572400941033
Co 7.972492283181888 3.092681094250031 5.875600527564195
Co 4.657486223887662 3.5473078235521998 8.286192999119272
Co 7.351038194684168 5.445571563259969 6.394091915508917
Co 5.556360059280488 7.3217441970994415 7.058451903900962
Co 8.805484063348144 4.791006658087172 4.468240257578517
Co 8.179592558664353 7.029014849885582 4.675102889324254
Co 5.731161676055361 6.620363586308147 4.670192109466853
Co 3.553089276117582 5.628236886518025 8.277143049490379
Co 4.854393129924189 5.006221794868321 6.412293711665947
Co 6.767422554293887 7.982285635675321 2.9521624580234254
Co 7.28168031076722 5.7612165946574825 2.8517510503372576
Co 6.516513666198365 4.214692549136463 4.444946229275973
Co 5.253911819028326 2.4103253103746853 3.90266813588855
Co 5.468934082006951 2.8393233757266563 6.128517063839205
Co 2.3748654796267266 7.7378431004833645 8.620499040781233
Co 6.660209919797767 8.743899062095974 5.1888055452561215
Co 5.764486888394571 4.033777698585686 2.2511983824755775
Co 3.0994102914714956 7.127690000061358 6.589253761846877
Co 4.4028025230739045 8.657446458218637 5.382624667889842
Co 4.530332616298749 8.367613217239843 3.1339582330860556
Co 3.3364162561220825 6.718219706043731 4.259806407249497
Co 4.917298144973288 6.103878539035021 2.5491480805351987
Co 2.621408638080022 5.0617483589794565 5.855125701448431
Co 4.187979283441232 4.4817319941715015 4.179097891918275
