36
Energy = -205.58639519 eV
Co 8.11321779501086 7.074197126010598 9.091956091994234
Co 9.612797251596072 6.807978853948794 10.926105281523396
Co 10.41560095302201 7.683212008282808 8.998619653177112
Co 7.165852698206708 5.231147409758703 10.134613094893316
Co 9.452967201494708 6.373653085872456 7.197299264438137
Co 9.533478084766308 7.7423928449985935 5.101184367800936
Co 8.819990476689018 9.0176309408404 10.134674505465938
Co 7.469139945054012 7.204793146651658 11.483458004367705
Co 9.125616739129502 4.9259400581940085 8.898435216614905
Co 8.418003000583246 4.014501994083513 6.633647673156823
Co 6.906405968621889 5.494770195540608 7.541083995858049
Co 9.29633025957165 8.667030777520495 7.274165997670114
Co 9.876573096912708 10.384057606404564 8.566308273970366
Co 7.778506130224731 11.007440231376565 9.216575063753394
Co 4.658469208571264 5.86791706329466 7.003393081894684
Co 5.544609042324087 7.167739276774211 8.739052531856252
Co 5.969527452023668 10.468917372283869 5.697783833245819
Co 5.597643532300824 6.629110764350935 2.9814888384654816
Co 7.241557029123522 5.148497428465909 3.491189130977732
Co 7.366172361384834 8.423818002369254 5.878919704474537
Co 5.146280158166609 4.893587064338599 9.121939719377654
Co 5.844921600346921 6.700859598435049 5.245121907176402
Co 7.703027216415129 9.954761378456444 4.175269339303495
Co 5.35207881199273 6.434638166242338 10.955055092206267
Co 6.300105044726962 4.396635325941003 5.455246534339721
Co 5.409246940330821 3.485882847352292 7.348865735294154
Co 7.956128518878896 10.6917053333362 6.92293373495864
Co 5.731005465511336 10.7722250485093 7.935602784755738
Co 5.204388789055734 8.475961543418567 6.774764310034928
Co 7.071838913943491 8.978956039601295 8.230633924317324
Co 9.593723896214424 10.038003625239133 5.40812225623401
Co 8.093950512300102 5.975562713254718 5.385987571685886
Co 7.342254034851879 3.3915581886688715 8.596246524668222
Co 6.318402908996996 8.729074504379145 10.332325680885713
Co 5.650959629512266 8.788773642534078 4.168584982746312
Co 7.591296378336071 7.62943127229131 3.6255689227459538
