33
Energy = -188.74346147 eV
Co 5.7306254230004825 3.697653596927962 2.11359185001573
Co 7.7479493657998875 3.6154987438005928 4.03574595650007
Co 6.850942848280055 5.599323034019538 2.8265050375929004
Co 8.71110487011431 5.994852830231794 4.095733581199447
Co 9.672393964657816 4.976967069859313 5.8698962570061965
Co 7.325796383168322 7.796151293454127 3.536080005958646
Co 4.535276767476374 5.955249243297935 2.8351309381216225
Co 5.658366776334964 2.098412893328903 3.850626234429249
Co 3.5509295197099973 3.784041958439879 3.178517147806206
Co 6.371140753621345 2.8688326615172173 5.990740427876747
Co 8.434649220335 3.345018965074025 6.970452125068822
Co 5.5702968798821715 4.32708694695228 4.319268632480525
Co 7.3634791038301906 5.041144274079405 5.819361850933198
Co 8.522261804172595 6.065848260962189 7.668848105602155
Co 5.798063307028005 6.665688492760593 4.776744584222875
Co 7.937336610403523 7.457457675037167 5.743284106821561
Co 3.923525697274131 2.9639961053855584 5.345166403410064
Co 3.4766026415418216 5.365655455778633 4.932222974247844
Co 2.3556953377256087 6.76503301683028 3.155154775482458
Co 7.6545893321876886 8.358342626306731 7.935156778316596
Co 1.5011876981704266 4.787575120834373 3.7947224512757822
Co 4.946270533124005 4.658284409036748 6.703987819581074
Co 6.273796349535863 6.615933273184525 7.2489493782078815
Co 3.8346420312545373 7.816002440796408 4.587774887324055
Co 6.820634792086142 4.499071475871901 8.15236364783334
Co 1.8432968144292614 3.7704373531594744 5.764586869013888
Co 6.910031795773096 6.669015139176154 9.447332281921758
Co 2.73337083563632 5.241413539756881 7.239286803187967
Co 5.823102718444305 8.588256971924052 6.105623824652396
Co 1.8366677374063183 6.769013043947979 5.480924935300415
Co 4.653353231587869 5.8368045707090115 8.717487946917583
Co 3.9862022298994906 7.107749022888559 6.769378013149075
Co 5.32466693768358 8.236536328187494 8.502951254604344
