35
Energy = -201.02238714 eV
Co 5.4343277713327875 6.402811608084617 2.3445217367367066
Co 6.833878765479743 4.66648873347486 2.1616942703821915
Co 7.531215881338701 6.799623108426641 3.3023934774900723
Co 7.694132079678657 8.668116307791154 4.85572889023032
Co 5.681163246087941 8.194578905862205 3.878462427133315
Co 6.7580192794855245 2.84227616170385 3.5627583911836513
Co 5.808478798123456 10.062646418140968 5.249108235821442
Co 8.495930204557068 4.564398218166479 3.8498076222632513
Co 4.249353946711653 6.345549155041916 4.350598707542755
Co 8.26223261718397 6.3489750150992545 5.435551583541733
Co 6.269442362205775 4.980031824700975 4.524759512438916
Co 4.51774871035346 4.282845930530673 3.0596557371783377
Co 4.091229887914972 8.359466908991443 5.66565507215226
Co 8.856822474874535 2.4210729985371806 4.547278639550927
Co 6.033358660299398 7.058027710346653 5.963947715389176
Co 8.159907342099698 8.105538472439164 7.031876001621272
Co 7.608233439541552 10.280983587690852 6.753620007572747
Co 6.906792890449371 4.992650022741949 7.046306069057931
Co 5.743425843955489 9.01586818105059 7.314271315170327
Co 7.345516909498216 9.139195095783643 8.905679899533688
Co 2.8757355173918966 4.449963606864746 4.757245456872312
Co 7.057375520602689 2.994030698492036 5.85242339806398
Co 8.99668013110611 4.260918590698996 6.121372211716546
Co 4.82466507161814 3.0577204993739002 4.9987850448041025
Co 4.554922251973692 5.056763926917668 6.353782299665045
Co 8.776023545507584 6.060404589193487 7.797883355047803
Co 6.5618433974704855 6.9597963052923655 8.411360511750093
Co 2.618272586399585 6.484028977787708 6.058855934932219
Co 4.275441074933764 7.09777434319875 7.6747827537588895
Co 1.2491660638958362 4.583856191023673 6.403925497573089
Co 5.351243444767793 3.0881121819859603 7.4307419088694715
Co 3.064117111036827 3.1778695453440653 6.773019675079871
Co 5.117956463554332 5.072165071740894 8.67741628023694
Co 2.8221058672232338 5.126795099824571 8.027749517106505
Co 3.6924030001940755 3.213418625210368 9.022049875851838
