33
Energy = -188.53714598 eV
Co 6.274467854207772 11.469854698552243 3.9289033879370074
Co 8.961193101537605 9.276579726736818 5.317620349130887
Co 4.928460818222859 8.318272517240057 5.855223352312933
Co 7.667200307172611 11.213273017841624 5.698139067590929
Co 6.413740816517208 6.70591323956003 7.135653354464022
Co 7.52130861875321 7.234968059994014 5.0848952179552
Co 10.341212888306941 6.56839014400433 8.507407679238785
Co 5.028551730613808 9.273361259405394 7.953945123642534
Co 6.692560624290944 9.295512948977002 4.276690755408956
Co 9.401938430872997 6.172699738152884 10.736492609247154
Co 7.862788388765491 6.545503796838985 9.093825489568427
Co 8.683549166987374 7.757718122680007 7.197530149521142
Co 5.626662458850004 5.324671063501163 9.047993892751805
Co 6.953154664133542 9.183738431070694 6.577232211722527
Co 9.875290206411016 7.122891933684342 5.227845311031334
Co 11.334206738632762 6.005669958616764 6.583589936883599
Co 9.515448089608574 8.500696341691155 9.321180299657938
Co 9.459569941886652 4.501720074124313 8.899640343156129
Co 8.999842444279027 10.09761163626332 7.546023101403573
Co 6.431034887724259 6.229629051256941 11.117301434988011
Co 4.1734626917562565 6.954693501462873 7.666918965586363
Co 5.364284274798562 6.285108141956546 4.9786233956835435
Co 7.897527771224812 7.9785284722889385 10.93718431335227
Co 7.0819670064558276 4.903907877302232 5.63303641888542
Co 5.00952826938794 4.868608661960005 6.82407195428722
Co 6.647465288144807 11.093942552421508 7.839978549769395
Co 9.055188293407097 5.523831166855951 6.720434013909497
Co 7.29672435518061 9.092615873564153 8.94849378876456
Co 7.705686578379992 4.528666706638072 10.34012524658003
Co 5.611195661332645 7.588470340156598 9.400868656291479
Co 7.353965966716312 4.434976973833251 7.891706953379941
Co 5.335203187313998 10.68021498024227 5.833366941121068
Co 10.829914437428318 8.37050754335732 6.994790041895885
