33
Energy = -188.56828515 eV
Co 4.5421289561504405 5.718722930506801 3.1150883249005603
Co 4.696245433397271 5.83582028794254 8.021375857099555
Co 4.312081121531839 8.322916677574224 7.924343773900412
Co 4.801615139741943 7.638994430674191 1.8618444906508194
Co 6.54737679576437 5.53997181150066 10.841906410363878
Co 2.9005659865740347 4.957512257588665 6.890312298535035
Co 4.463649988656544 5.141230801499741 10.141847185566439
Co 3.9454024394237313 6.964710382773714 6.111406169797667
Co 2.6850555484389953 5.861301627672834 4.523128628501614
Co 8.467285010653441 6.499980756066742 6.624463449250063
Co 6.243719133390729 4.158364515278847 8.988229810063048
Co 8.329561780339695 8.36000783389364 3.1274417605585034
Co 4.781073746753986 3.529550920874168 7.331184700688916
Co 6.562739557161777 5.115386291905696 6.63123376840301
Co 6.290379889953497 3.0109997048987394 5.540470604431626
Co 6.108485721042098 8.786044539712796 3.4705069501133323
Co 4.94103055124869 3.377450481635756 3.5204739048394638
Co 6.750822839387392 4.721064061303996 4.014910398137554
Co 3.9228694712299688 7.844119147576755 3.9694947555739803
Co 4.558983195767534 4.730044750137987 5.3339225968119255
Co 6.00825017784102 4.639179555465872 1.8028313117393104
Co 5.205093878768549 8.996555549405203 5.698410731343135
Co 6.785725542877874 6.694389305804323 2.5337940705986104
Co 7.604773284959005 8.418124461692692 5.356959130397664
Co 8.382394010544388 4.196719411119551 7.843064505136463
Co 6.315368622353024 7.523837140625568 7.188889996214951
Co 6.998604152537992 2.419441531116746 7.62114979398279
Co 8.458357529450328 4.281573180016173 5.5482985829276075
Co 7.387279967265902 6.196030373049856 8.816940979938124
Co 9.612485551137002 5.955216158631417 8.494850022955989
Co 5.488466685902442 7.251787460042897 9.637117378420415
Co 5.965004425994613 6.868249592664328 4.843729382140491
Co 8.353083855505615 6.391873302403082 4.322956942727919
