32
Energy = -182.10077334 eV
Co 8.376834440635072 6.189137102559265 3.344136322519008
Co 6.545547462630606 4.890538961294508 2.579422849890957
Co 9.405572273847953 7.690743118004316 4.76223714613539
Co 6.430082925774936 7.1084073610270915 2.3367482317546044
Co 7.072729380331958 7.858674053606639 4.406009802634492
Co 6.629517866883604 5.497777587946483 4.763298613595824
Co 9.359690280087834 7.576043716611798 7.072945395410443
Co 8.127481276276685 9.223371291619456 6.119600227414816
Co 8.806497908134553 5.66359845058906 5.686263339233001
Co 9.974737811110604 7.117868524992775 9.245577026344966
Co 9.011004790151748 9.398411229989328 8.438956741144509
Co 4.712401285748969 6.077206002792506 3.5064339719059876
Co 10.630558745902462 5.75203558697857 7.18946116571469
Co 4.9601729907030245 8.431351362470181 3.7163127608789366
Co 7.0257924333879505 7.035595758909591 6.722094437247999
Co 5.776921399619089 9.281999302698107 5.861803296598961
Co 8.562968066993362 5.553986942665987 8.114237037307799
Co 8.898774781975002 8.521935485424473 10.689885899038504
Co 6.835349446808044 9.905999547957514 7.951421528742968
Co 7.657766885034868 10.321866385599497 10.158337240792255
Co 6.779629556060911 4.612056779637417 6.8843716647357045
Co 7.428005165847137 7.630296478864588 9.007179625796478
Co 4.669154470264628 4.787887896123594 5.637947322926013
Co 8.318407380017872 6.079812325622633 10.543178858794038
Co 4.906795172606451 7.0994785105328155 5.592347774243276
Co 5.238512034480926 8.221156624994569 7.825962469667117
Co 6.5856012905920105 5.192394847746535 9.24510825821904
Co 5.032994967355223 5.910822947827585 7.647333934176135
Co 6.799105992830334 7.788882155499502 11.292743529865716
Co 5.677165310820187 9.24165779775879 9.882415571752384
Co 5.166804509320249 6.860241927484677 9.824876960022713
Co 6.260697291494999 5.63232516180967 11.517169872628578
