35
Energy = -275.53853852 eV
Co 9.38104174306535 1.6932367474562409 7.977670402226281
Co 6.398332512662083 8.944001540739164 3.1206268650413094
Co 8.892203709015517 10.320042791706456 6.580894641625595
Co 6.592924073380492 8.864452528912556 5.881510251764019
Co 6.282759334587237 4.716197798227532 5.108635774240069
Co 4.644865198583752 9.600895336564903 4.53793651629661
Co 10.060495795903512 4.091554961107402 7.820323170752872
Co 8.367147765217029 9.375208064961921 4.420361967659806
Co 7.965507671334156 6.954088581114968 4.483208195385615
Co 9.691163500718767 4.74805029638791 10.00578885145503
Co 8.513007122230125 6.689412377837249 11.52289184716491
Co 6.590477188426745 11.23288449568204 4.8327319923738745
Co 8.730061534677453 5.1722684338518725 6.416148677949876
Co 9.126237211737275 7.793735941343761 6.737981082760311
Co 5.158426992120655 8.612943167630226 8.056041013711669
Co 7.967980963991909 3.151682263914299 9.351967433070067
Co 10.751185245275863 6.419718852964209 8.001878910863425
Co 7.596044866714911 8.50092881659566 8.390801021808057
Co 4.472523642283931 5.097220417006995 6.566424380935184
Co 10.773767918662182 9.189456307399638 8.141106748661317
Co 6.5683978839512935 4.164035004179236 7.796326502821605
Co 4.174696724499235 7.568507018917806 6.162406825097624
Co 7.856096785807433 2.9157399570088467 6.405746340002695
Co 9.592053893013956 7.82200171318776 9.687743639444832
Co 6.021850208378949 10.376022304270036 9.590631034838584
Co 8.834043555959344 10.529845253819865 9.085012017293932
Co 5.2887618104310485 6.3402343088208495 8.577303057126182
Co 6.716268263389557 4.972474406345178 10.480868864676905
Co 6.621892252863666 7.659665465999712 10.358743531100636
Co 8.128670659528003 5.890168422070196 8.759955337035278
Co 6.676457982238607 6.569174164100606 6.635068977732652
Co 8.222012161298455 9.354056610170726 10.995721410101298
Co 4.474257750299488 10.49606862366696 6.798553229961152
Co 5.473232848202197 6.920228224198408 4.261888643783835
Co 6.74576955736659 10.872165436100513 7.3180843879693285
