31
Energy = -175.23020029 eV
Co 7.380475448943528 5.457207230823069 1.9157317512902818
Co 6.10013817848446 3.3875278607871286 6.645742455837004
Co 9.13047363244997 5.943209820157167 5.183398796554692
Co 5.08045778084573 9.068090832664467 8.437733377306321
Co 5.608075531898739 5.9199608729043245 3.35161901626733
Co 3.35811289428208 7.327630330687969 7.0396634376489
Co 6.8354002166735155 4.917800530018265 8.215789847330262
Co 4.848188543605903 11.080768072558916 7.443984880405715
Co 3.2624936117130505 7.973383035606962 4.657744313324331
Co 4.4495614575146805 2.067062537661417 5.768301922982041
Co 3.2432531993822886 4.066987320350829 6.0756782782855545
Co 7.624343019110451 6.957370758935352 3.733492801626301
Co 4.2567158603211945 9.290946722497154 6.167665300929834
Co 7.317350571069622 8.209487812014686 8.333650686232279
Co 4.25393472962049 3.0573189858678904 7.898443822829992
Co 4.970961425354037 1.8351911284533928 3.4907114326385527
Co 4.676288248146352 5.280140215727813 7.462084460577265
Co 8.252109234262413 3.9860392137559386 6.188772490987796
Co 6.041802546143577 3.6577000389817313 2.5171876644266584
Co 5.641039786359347 6.731827055864306 9.094645038729734
Co 6.669142846195017 5.660097879116789 5.689762056618738
Co 8.422948199990453 6.2734470913203335 7.327571465853379
Co 5.6454436396981516 7.475180788333177 6.856052761480409
Co 6.821067416434087 2.4388207678238647 4.651176492434276
Co 5.02094417240775 3.967783507459375 4.579867554521952
Co 5.649995080679781 8.041515723378986 4.608488684607725
Co 6.508468210147355 9.703059325184327 6.645482405086959
Co 7.670798643117843 4.464467741506646 3.9463467038003435
Co 7.910869467639784 6.438700618937905 9.612974627255715
Co 7.779171591598936 7.9220107292531425 5.850666054897075
Co 4.2614266209340865 6.090717256391368 5.301021222258445
