34
Energy = -195.21495641 eV
Co 2.8273513124433545 7.619526925325696 6.7184370964381035
Co 4.711096514037644 6.683424355668233 7.765116310144547
Co 2.562176385071911 5.25670751109064 6.8885654062047275
Co 4.942787519604494 8.331404242095745 5.893904759404852
Co 1.015845586714993 6.608924791170518 5.782136123372135
Co 6.3150957152844915 8.310826000381347 7.725357266451479
Co 2.9660247128188892 7.553226415038084 4.394135050877255
Co 4.293863468749143 6.066250766080223 5.5435625577853
Co 4.779656614487359 4.385800204682248 7.461669812083258
Co 6.721219046095631 5.587340137060862 8.310838816933757
Co 3.0030361687738703 2.9318242294697097 7.206787226578298
Co 1.4690733312121325 3.5587071214684043 5.532996209008892
Co 5.412893556581404 7.41926570773458 3.8512028424949944
Co 7.350617952700319 8.49491913215019 5.458432395937507
Co 6.661640146455609 6.429119195011103 6.167300351171176
Co 8.399621329059986 7.465206488803105 7.4212246154050066
Co 2.2400586312729263 5.344877729519551 4.424666858283763
Co 2.717875241314289 3.303691079364295 3.348771882217386
Co 2.8222611082583042 1.7261263616845546 5.239294197331476
Co 4.114237519841025 3.716437784462404 5.116394628721937
Co 7.619980270624354 6.8406404708362345 3.8043337724111717
Co 6.380130206506437 5.766760317620847 2.1608948779630532
Co 6.057786421607817 5.02778500192308 4.32202514965754
Co 5.132563667233607 2.1759105808964385 6.487950466875279
Co 4.060361327085266 5.667924821645099 3.0751673859159223
Co 6.809433545154496 3.9279301990599524 6.541945631552425
Co 8.675339142481588 5.207351348252187 7.036234618632907
Co 5.04479435483765 3.63331221220075 2.688098652335334
Co 4.559640904557086 1.6818425579507263 3.7791898654395926
Co 9.214338299176092 6.780700482964977 5.372380840072646
Co 6.415065973816678 2.7339208713867835 4.589155848057982
Co 7.42444650646692 3.7675190175017925 2.7261178729439766
Co 8.94468239915439 5.464865249916684 2.682353646805712
Co 8.322227069533115 4.619947421008842 4.7556342730715695
