35
Energy = -201.00319654 eV
Co 9.731035547973129 8.347578233145144 3.8494458296869536
Co 9.742091935961206 7.982184099636538 8.500023954732184
Co 6.241213081382036 8.522147591262383 10.355206833540493
Co 6.034158874224531 9.831467373780246 6.223012967574444
Co 4.2295729287588 8.45327373548706 5.790463053760615
Co 5.353409393540638 8.55020586519324 8.114010634649217
Co 8.280733995071024 7.019957439977448 10.713021962565552
Co 5.812508358237599 6.4682366796274104 11.11969167708779
Co 7.126134706506208 4.996112589182456 5.2589529335849745
Co 7.896334413373363 9.21657032508635 7.492414020949846
Co 5.306922243727947 6.074028916279208 8.857685650922287
Co 7.205400545913096 5.069805056057547 9.899655127155444
Co 9.243087479868887 4.683121132305757 6.344623167486871
Co 4.922643980821159 5.35470161973101 6.5170560804533375
Co 7.039337595303095 5.096374677086605 7.531490053888784
Co 10.120256107935617 8.380131554700725 10.805526661690834
Co 6.013055894044673 8.437602631218803 4.118212568512227
Co 8.984014840223582 4.822960216905569 3.9545978616559316
Co 8.554379777000284 6.8708647531428495 6.560081040079579
Co 10.107824811046523 8.52311907279836 6.231246364387954
Co 7.855802400542648 6.918231415428706 4.190416330451801
Co 8.03479865529849 9.01217583177056 5.219770172964389
Co 7.322145035317023 7.255373350271221 8.639930719851744
Co 3.8394966932263452 7.896484228972873 3.624234312608823
Co 10.838514578380664 6.3425321416089595 7.267441389244685
Co 4.066252903728294 7.6906761315722925 9.868622059331644
Co 3.629400216480832 7.0254042069803155 7.518420286645762
Co 3.2275904606044588 6.35732728448519 5.269839949982617
Co 6.448734885312705 10.433927542723698 8.771776319758338
Co 9.08745906113091 5.555344401012847 8.624303660396478
Co 8.268962145919163 9.335143814793934 9.789261995964061
Co 10.774786526753857 6.411727994911608 9.815601944354688
Co 5.340420675640443 6.182017838953263 4.325547977584031
Co 10.205548436513965 6.433439999248451 4.953400512675439
Co 6.266616227406714 7.288079059987938 6.224691807427515
