38
Energy = -219.78757074 eV
Co 4.754199945758676 8.458700732900832 9.412036278287225
Co 7.371070049653548 7.668748616558481 8.61453518190003
Co 5.629513845806591 6.272127770011229 9.684415331889134
Co 7.8781771823772555 5.459917211280137 9.30695430609846
Co 6.016028318579552 9.48335311398766 7.718203576228383
Co 3.456100286686134 6.508143126107438 8.461994770984289
Co 3.613829658283083 8.74736977912407 7.392300433410135
Co 8.122328831894215 6.079205632338436 7.012552416914054
Co 6.166685929941244 5.047841612475808 7.778863716740578
Co 4.291991427199289 4.4087419381925175 9.134818147337157
Co 5.389985174178706 7.275752755975128 7.528789591533512
Co 7.3543963895137425 8.198206164135772 6.212340452417682
Co 6.432241775669111 3.6248635265352873 9.59354690553618
Co 7.919838363334339 3.6554110016475088 7.486112028846485
Co 5.165918589628508 8.590215864091984 5.498917796200401
Co 2.346247351929574 4.614324686024554 5.219117296770512
Co 4.0502604421312896 4.815068219794657 6.846798273405804
Co 3.5117548115451434 6.909001865293888 5.949312239615053
Co 5.364772709123442 2.8718552377865434 7.543676490241616
Co 2.121182697658345 6.601657016463366 4.128830356736323
Co 6.103384069466237 6.255525122625373 5.613730852120871
Co 6.3089816254626205 3.759632192026155 5.642253088075993
Co 4.388657342064992 5.204792468082467 4.2878494810693155
Co 8.597879233535219 4.377215301858449 5.3711399945115605
Co 4.218949977231662 7.499766413431671 3.6581978097796344
Co 4.106682660094913 2.9834277319082894 5.373413900304552
Co 3.029805160345154 3.5293263956434315 3.255620113600808
Co 6.913670775393826 5.152604387442572 3.763388286239359
Co 8.475176786874869 6.658171855635197 4.704484121275477
Co 7.735196468040727 2.969876249218959 3.6935151761374456
Co 5.427436566063837 3.2518888650662316 3.397103518167534
Co 6.560638603069946 7.602851795028893 3.716029946950798
Co 3.1029621769019156 5.627510081977867 2.3011497479268357
Co 4.559832480432781 4.030410005829765 1.4375715688747799
Co 9.108118930498485 4.881380441521774 3.127769739068526
Co 5.41824713333662 6.051485517425826 2.1910408228172016
Co 6.929779336427251 4.185823268957898 1.6980158457561263
Co 7.772316885317865 6.418925622674547 1.982443151534966
