36
Energy = -207.35387381 eV
Co 6.008115327621402 4.33729345700922 9.019570054006511
Co 6.053805868844988 6.853612283883923 9.691694555999868
Co 7.788872993437806 3.416059994599148 7.576508162958413
Co 6.286317170216694 9.240999515148966 9.815460497003562
Co 7.456868945900461 5.756523927317969 8.073800725464872
Co 5.654945441965592 4.015140443442308 6.738326002174506
Co 4.979280417330792 6.133521280406766 7.787855647331485
Co 7.722185683108522 8.010928691930909 8.586109359286574
Co 9.599543553616092 4.889731406266389 7.259548173034866
Co 4.484498268936368 8.257692083791023 8.706924916980471
Co 8.775167573707124 1.65287213679255 6.516108490661789
Co 3.478650218334356 4.735239546631588 6.544798721297091
Co 2.7896209393988123 6.808232880994622 7.634141382838229
Co 9.063171050221994 6.99432051031315 6.646071787477155
Co 7.573726279666092 5.091231708679195 5.7726307752953465
Co 9.34436235676438 3.546737550323217 5.464760127446694
Co 6.051982594537385 9.44870906898449 7.51835800083834
Co 7.0818871625257325 2.6892632645925114 5.380160003456909
Co 8.57958311307143 9.26820683690441 6.924719335768671
Co 4.49040393174712 2.7955739316129558 5.237535572086968
Co 6.772541142504019 7.483676777511203 6.409905022104195
Co 4.297485430176152 8.077924561308375 6.355176194779977
Co 5.1196682154576445 6.010537451616798 5.361380628053054
Co 7.010604005984708 9.836476141658217 5.368679823593255
Co 2.7580935300717284 6.621942454226725 5.312581949550763
Co 8.120214062433996 4.072681750696133 3.601548697107831
Co 8.352341832699048 8.029389007748335 4.684716224873899
Co 9.438827760038007 5.856238516122931 4.598827244104294
Co 5.84310919004142 4.217421282414998 4.043816702377258
Co 4.755783934316425 10.00955509692237 5.358744233014536
Co 5.8359525818802185 8.131466005932333 4.3343051077971095
Co 3.5228495235854385 4.6612659610443785 4.173624857730566
Co 7.17349014432069 6.255262920599749 3.767359439943133
Co 3.616933854256765 8.226180960211018 3.9177752419222576
Co 4.828419919522453 6.304382261151665 3.045386516935619
Co 2.506812097675615 6.402842084098979 2.9989995331336883
