37
Energy = -212.19016339 eV
Co 9.661604410492815 7.245731230870392 6.260737320815438
Co 9.139661478517876 7.177120935645523 8.566876094876582
Co 10.319320593095146 5.361045037862931 7.51605512545687
Co 8.753886769398607 9.191954596465871 5.420424063096108
Co 6.823872775087799 6.97613610115843 9.186070648374972
Co 7.069174854811362 4.9117021624547474 10.257657971099919
Co 8.028298320377244 9.028744192461058 7.597179593634307
Co 7.8075830622304485 7.160973173875946 4.5236642365881075
Co 5.74764495105076 8.515310799715397 7.799042364778868
Co 8.765012867411984 5.154417781928653 5.8293401208116995
Co 5.824322104949921 5.385142556954433 7.508221006737372
Co 5.938589829703762 3.538827710662352 8.796503269662093
Co 7.933445229459599 4.452404191297411 3.7142613677745953
Co 7.469398225451588 6.94665562406942 6.860062633183934
Co 7.3197319999543975 3.5346090353332187 6.712099458993155
Co 6.497409508594619 8.973940076836541 5.619953444687254
Co 4.813496571944112 7.976881380186182 9.868146598868215
Co 5.501641445018363 7.913604394788967 3.733362144060998
Co 6.381403917437766 5.128912247043892 5.2182118029564
Co 4.950065067241259 5.637176677167069 9.748292705777237
Co 3.164587466825179 7.315019047891232 4.623397631200102
Co 3.8483459900004835 8.753723287789503 6.271543860253823
Co 6.601797098623831 6.089217570002883 2.7533631094814695
Co 5.2247570167441495 7.054129153160787 5.870334766843113
Co 6.329924885536448 2.875197272548862 4.631606829501099
Co 5.316767091645656 5.47547784037143 0.9724298585510789
Co 5.789085113778455 3.817483503337918 2.5990125456725233
Co 3.723329914637852 5.207744268439914 5.900872773076946
Co 3.9189267967901187 6.995711614916902 7.950951935357042
Co 2.132145124350081 6.643581234792103 6.592286038485821
Co 5.001293295235546 3.3506354155736178 6.52788211032045
Co 3.657141661599271 4.599330276658087 8.114642263205742
Co 4.065594840957253 7.053525315344138 2.1105531307957244
Co 4.559357906258311 5.625404325847308 3.7748219743793214
Co 3.670902890396668 4.4754035430336785 2.03114471054595
Co 4.1050749838874525 3.418440779863678 4.2722184445837215
Co 8.169627757498533 5.062909460643077 8.290999862506498
