35
Energy = -200.53678562 eV
Co 2.591382200769075 3.7563758731012724 6.2529401019360265
Co 8.089820815501115 9.596939163567976 10.394642321406295
Co 2.940856293770321 7.536493224606583 7.233665785368361
Co 7.4880213402657585 6.251063674223634 5.408000047765435
Co 10.479055661406216 6.574880790035927 9.207577060151882
Co 8.411832807902499 7.269305244478791 9.856359669629814
Co 6.629487302872191 4.088447468835167 5.41675215443583
Co 4.807858531279306 3.3699734097444614 6.8796049741301175
Co 10.516598112997006 7.845776682618234 7.264025754472544
Co 4.730758818192401 9.107260388977224 7.7444150548322295
Co 6.294819728134207 9.682623214718031 6.061076614256341
Co 8.719318563780305 4.47361132066086 6.538368077261415
Co 10.750080677911523 5.368482258006564 7.2757384738086825
Co 3.2706856109842968 5.8863945732977365 5.669663267110982
Co 6.86630251584838 4.026061974031911 7.776573283185802
Co 6.649410481775612 8.114169717951205 4.338194333809704
Co 6.523395463148875 7.6692650787897705 7.1904586273916795
Co 4.605600039277995 6.97498642511887 8.68084821247754
Co 4.693936196476494 7.858837033670389 5.683603478046785
Co 8.965897854229159 11.097181500140632 8.869105181477448
Co 5.378007887822057 6.047351258545095 4.3895147824923555
Co 8.209149247957107 10.814983634243266 6.586400976099509
Co 4.346386045560493 4.012282493873514 4.7392368248858965
Co 6.616634409527382 10.455906213620022 8.349927228451591
Co 8.827260571276032 4.783863979235458 8.987676869340795
Co 5.382853316758795 5.6511844013608235 6.729228071872337
Co 10.300044977497157 10.07419851139556 7.273290505863738
Co 9.794425908082369 6.515894858017894 5.466765100239254
Co 8.468073900828774 8.495497538467356 5.809791603189539
Co 6.690346782070606 5.97279933346127 8.9355002278683
Co 8.626146954513604 6.551403355754839 7.570518415064765
Co 8.363031109676283 8.974381463000444 8.098069964068285
Co 6.307202951828122 8.393561613183483 9.45952705972546
Co 10.183986912127256 8.932797359801274 9.471410375057907
Co 3.4437531590227883 5.090560456174881 7.880300649160646
