32
Energy = -182.53934069 eV
Co 7.928871676147547 9.609461261061167 9.170126852832896
Co 7.408436497045984 7.380698349646359 9.072809788397045
Co 5.595268970816767 8.769122471995821 9.573934447740072
Co 9.625785811887793 7.992301506105816 8.875920075049624
Co 5.456747340842273 6.555005333347125 10.237743763028874
Co 8.899392104990195 5.701673382702565 8.329902064224294
Co 6.600678096374362 9.067832152297463 7.418775093330416
Co 6.816175504063336 5.031835748688632 9.171728690807932
Co 5.4292286163410495 6.730755631461512 7.723627609671361
Co 10.253615474022263 6.947173937147391 6.9110424443502065
Co 8.206742213049138 3.531542788265898 7.967935484280934
Co 4.230963207615528 9.064688216422168 7.779037049955835
Co 10.334511205003606 4.588418191272239 6.920125643359038
Co 3.5226506616520634 7.178566646203577 9.065651979058199
Co 8.949979418107477 9.155340567004986 7.016758542321487
Co 4.3630933064105095 4.95579572490144 8.865203146932984
Co 2.231432014499487 5.509799629822813 8.065876764519816
Co 3.1206502476649365 7.225989995924891 6.750783391947964
Co 5.120520952094597 8.14356496431598 5.8057920920598205
Co 7.816690007046112 7.150959606447959 6.641204210903342
Co 7.270833761009973 8.862657344127928 5.063993863974498
Co 9.969921751925531 5.722572873752375 4.8899975531038855
Co 9.508972448414351 8.12617707418796 4.956428306968276
Co 8.13899811502253 4.879524667778343 6.092028232990631
Co 6.081571951988041 4.305363809537664 7.179036016845106
Co 3.957586977631423 5.0969915356227835 6.521251933728656
Co 3.848170158219204 6.562488364076118 4.639105864787277
Co 9.862113000373906 7.080934387516919 2.9913107097877134
Co 5.949601151083377 5.918607654782588 5.45558730934182
Co 5.870078927399437 7.5664476318104485 3.685758807005183
Co 8.05946705258163 8.452504624586398 2.9420563987869444
Co 7.868507234102216 6.5720828924148735 4.242923413732977
