35
Energy = -197.36583262 eV
Co 5.84179683489128 9.914030433743623 5.815260617355481
Co 8.393379147061623 4.3456207613705855 4.192182654031408
Co 4.3868844684855075 2.3792165009789557 4.2329123396512705
Co 4.608026179413869 8.545568020249954 7.167250015761413
Co 6.396097062292831 5.4247845034602244 5.27240076624532
Co 6.495729346427959 3.069182330374572 4.518844718802716
Co 2.625287997186549 9.0256899836555 3.6724620349734693
Co 6.594050038801073 2.2702041419622034 6.691439813521049
Co 4.527084770714674 4.604245163133341 3.805941696289989
Co 10.081255161396687 5.808123052226899 3.7150925840004145
Co 2.982012348975112 6.887124879885395 7.587691710727969
Co 9.781490923913406 5.4685222033406315 7.717011248051625
Co 4.522578571956311 10.624529289708804 3.991099991692669
Co 10.19505240157272 4.58983629209141 5.6163336232539
Co 6.124538053310333 4.2522741398573105 8.028290473300185
Co 3.276992842500251 6.7300215809227835 3.519419965930365
Co 5.608369099919875 6.607118994425838 3.397954932703207
Co 2.4049881760138945 9.152673351867136 7.602815192105473
Co 4.688078296859202 3.7040809070112117 6.047233251395215
Co 2.3828296910237516 7.829634732453684 5.588922161303672
Co 4.559515745788277 2.4763002154255984 8.100269604072343
Co 3.8544157009275883 4.733595137095864 7.856306941561789
Co 7.846182276785798 6.481752382082886 3.528737949245903
Co 3.334097382445102 10.006996671611201 5.7215845953020805
Co 8.497872718576005 2.285245328788837 5.243807286903824
Co 8.561194136012023 6.355662315004818 5.869978650283698
Co 8.237080550384256 4.078661595667616 8.973261464631305
Co 5.400023687558477 6.4051761415244055 7.349591073130964
Co 3.9057510712110113 5.971282477421312 5.608945927356858
Co 8.10740048059798 4.051505532803463 6.643619965357651
Co 4.574532784991564 8.294741062461531 4.719256685558894
Co 6.966719381876821 8.221982863395878 7.214190602882942
Co 6.716412235993296 2.272381053528304 8.96536952428632
Co 6.862710031688351 7.947336620119227 4.998145972893943
Co 7.62702128623591 6.152350224139154 7.993824849224058
