39
Energy = -226.31260691 eV
Co 8.270518589273435 8.550385798345506 5.72010457539889
Co 9.06111330783514 6.3745559300296755 5.944532189345978
Co 8.691509645358765 7.210988752712829 3.832681552537041
Co 6.553420738486949 8.001488898676083 3.6323200776508155
Co 10.148496795505864 5.573137818265882 7.840446859914952
Co 7.738814192940079 4.998834445031086 4.602756875866863
Co 9.243789066771756 7.846652317340627 7.742169089999765
Co 7.400424838792445 5.837302181427853 2.4500447288577774
Co 8.629766340403991 4.128716778773127 6.670957043213715
Co 8.786422614795713 4.0938788303759805 9.007713789386639
Co 6.444507286680582 7.579416351230679 1.3580120466916459
Co 7.052260893208909 2.8211199434522656 5.310834412630652
Co 6.947981998127021 8.281606391695824 7.81619857120938
Co 7.687738375358552 2.329054781723379 7.672568497653718
Co 6.28419749632396 3.7519535735876657 3.1732860282940454
Co 5.471459312289433 5.791761719773059 4.001595871294997
Co 5.330785024769175 5.485997487485033 1.5887180675261103
Co 7.847449665836268 6.0101455986831 8.016092787540048
Co 4.4605731947575435 7.406032757308513 2.5653611996111167
Co 6.27490561636902 4.67057445654903 6.446384974298413
Co 3.837890528209836 4.437071036232523 2.96017817799614
Co 5.4587661097835225 2.5491369119834406 7.069825394303192
Co 6.5361122297275305 6.972272472578222 5.90506218901827
Co 5.563913070532782 6.288663635936707 8.197267958860644
Co 6.479857629196992 4.03833719306204 8.663386659734801
Co 4.4609686014935415 7.929008996590206 4.851317556806411
Co 6.101754599539417 9.335046508328121 5.705200162827594
Co 4.765860061420128 3.5530405586235854 4.973654754527755
Co 4.139570850582349 5.791126777294802 6.102354023126089
Co 4.195602190651203 4.383781012338066 8.027495441370641
Co 5.0683219445690435 8.136763050189218 9.33640992180396
Co 4.564941305755611 8.277270149372471 7.1625623716882805
Co 2.946084780147132 6.3410862378683985 4.039182955457215
Co 3.1380820794194446 2.865254727144447 6.7085558390798115
Co 3.2978749626312194 6.654370602753303 8.340333944443703
Co 2.4926479707894895 7.349938201053625 6.209107648197613
Co 2.4932814194834716 4.203787162557841 4.977353168670922
Co 2.0678347300317723 5.108774951244261 7.078294229353558
Co 0.9665464386325631 5.943711498863522 5.201724860292498
