37
Energy = -210.34383278 eV
Co 9.211171578662286 5.243332994388808 6.4415414598784055
Co 8.499339391558358 7.43434443014984 7.4727423770411345
Co 8.198586911008222 3.20101265775945 8.22322543266694
Co 9.660331200106397 7.232867546559674 5.343931287087477
Co 8.768652721013643 7.072635958203299 9.775722015382794
Co 8.031355869296522 5.352149226849754 8.525137185247203
Co 7.822372650136409 7.736777056860283 3.5267139222604857
Co 8.77529659973922 5.578236120306092 3.858486797815015
Co 7.967021667335115 8.868422175293539 5.550057131389434
Co 7.134908254274956 4.18603071330225 6.499191841181382
Co 5.918857701071174 6.031001947793139 7.427039608181276
Co 6.675663394666017 5.269534982870628 10.35014082957736
Co 7.258525338657706 3.7463303748842414 4.3512613954434665
Co 7.434999945250048 6.517599419264633 5.560339509492958
Co 5.963247183464204 3.91700492325822 8.53942709619639
Co 7.717534081088654 6.455002226558998 1.6776933817668038
Co 6.624305834394597 7.341540551573499 9.236495085530596
Co 6.470513928953056 5.682707247351325 3.369866134538021
Co 5.207963561067586 5.393058839129318 5.300704503759985
Co 4.656883856963662 5.781305755225212 9.396258495396934
Co 5.683876785490972 7.5672724335148285 2.2356696858127805
Co 5.742497846298016 7.885540325899467 4.616796871508233
Co 4.639364993371537 5.508689024915083 1.9610482355368497
Co 3.8776011450064165 6.696871315530735 3.822859257040513
Co 5.192782582165275 3.13165766676287 5.802747787734362
Co 3.635677523719232 3.466757043921728 1.6564322006556231
Co 5.170342091585198 3.65203346072383 3.411924355494539
Co 4.180910465321608 7.3876983620097025 6.31313885899851
Co 4.470631984462963 8.066691281020457 8.557985423111381
Co 2.775443263755565 6.4741103459992955 8.059703591000781
Co 4.025360514871807 4.635386556253028 7.197911656019822
Co 3.1019045958274916 7.208722880669104 10.170869936279303
Co 2.4021778015830417 5.3981247747494665 2.457190261010751
Co 3.2441977004909006 4.384027329217874 4.394918685004097
Co 2.011963865022573 3.141386688163501 3.055198944231224
Co 2.4724835805897567 5.962759771071088 5.78215543570011
Co 6.285861833142734 8.301985833410306 6.988083566440173
