39
Energy = -225.82137933 eV
Co 4.160970278592545 3.8167089276357866 1.9156318903828407
Co 5.381582021072778 5.767229278393383 2.2291875499583758
Co 6.110167365613514 7.8880288205207165 2.1382719304771904
Co 3.79810273581811 7.193025493412066 3.1189884041539417
Co 6.686247476941514 3.847846825903197 2.1117830656192385
Co 5.329413015791905 1.8888068679882812 2.130884638607685
Co 3.6013730279278438 5.023449010581619 3.854869697484484
Co 7.5962720318497325 5.97704862866807 2.8474098803469734
Co 3.2108416201869137 2.6411658967077107 3.7632720926321523
Co 5.298940946185732 8.519400513045099 4.187920050595904
Co 5.878961205316075 6.0245183645002465 4.520946780447601
Co 7.175045400878203 1.8710411735409083 3.5174675168105716
Co 7.515622749378738 7.957588452412129 4.1080071427496385
Co 5.425648242353806 3.4547737733302712 4.043456609655553
Co 7.7252073242594115 4.0631245923644075 4.199681289318602
Co 5.044944415545444 1.129312407856786 4.275652865629809
Co 1.9241218378624125 6.259666641262345 4.75090643940314
Co 3.946339746188714 7.090483540838798 5.504120562793935
Co 6.518813028655077 8.705711129910334 6.172267458893322
Co 6.456910173925423 2.253577355141638 5.841968835101881
Co 8.148684000343772 6.09134574354791 5.277178625214064
Co 4.23143363591135 9.248132949936329 6.223998682679015
Co 4.107226231148697 2.426863202414541 5.943468039782295
Co 4.482408976780593 4.744208044549431 6.126776780216962
Co 2.2666330385516162 3.993156199432272 5.443852333942564
Co 8.75417640014957 8.105246183313694 6.211843090101614
Co 6.873108659738577 4.448709388060112 6.383752930087647
Co 3.9218762650810266 7.53700165841391 7.857142594475358
Co 6.005229801308327 6.572098210134133 7.048865800858567
Co 5.383012037841589 3.223617076867744 7.7843442093954325
Co 5.445025317854304 9.215960604068783 8.20656453406062
Co 2.5390736156718106 5.854343403827192 6.9732700285748015
Co 2.98360468408671 3.594406046535687 7.686528111063073
Co 8.36501730745507 6.132953701338393 7.577591115903457
Co 4.4015504750936945 5.3107947562260085 8.45957303474479
Co 7.541418450110441 8.152220764644566 8.267150239310588
Co 6.689135699768674 4.988186341749719 8.72714467636462
Co 5.75846579344424 7.092239589132746 9.369004417181445
Co 7.974605996235522 6.55321947271318 9.856467085899734
