32
Energy = -182.73472323 eV
Co 6.783048768133787 7.543336009326185 7.486834174736027
Co 8.071212181858858 6.658081808176924 9.158420367496962
Co 5.480767019537813 8.467762526861057 5.590768952890325
Co 5.87359702704667 5.620377406884036 8.833730539549636
Co 4.5518046187993315 6.832292082397046 7.177081626831943
Co 3.7644871263405895 4.860299488634919 8.12766047335863
Co 7.850170600241624 8.343704943128552 5.608434288310022
Co 7.706907377636609 4.289533636686434 9.37461266623053
Co 2.2567175377457662 6.465958700504765 7.047299565769886
Co 1.629966752800099 5.981321292800334 4.813595629420603
Co 3.3919852782184763 7.439436366625101 5.119864742659777
Co 4.582719409237615 8.548381604707965 3.4332329328664692
Co 5.671580489010639 3.296543612935864 8.907334108394824
Co 9.205215791673583 7.0141377499335045 7.070920957909795
Co 6.590904101891164 9.789056135059168 4.102686958867019
Co 7.652597929630304 5.36091280562299 7.271599265302458
Co 3.58687331295618 5.143624383366266 5.707272672530792
Co 6.090377586794116 6.133613780258515 5.487229207879528
Co 9.510260421554918 4.512292199036665 6.355707350587798
Co 7.535284195344069 3.0335037204418533 7.395061891863197
Co 8.420513915891625 6.130276917156931 5.027086042347993
Co 5.513699598616629 4.165870846029362 6.823979393857959
Co 6.733513365607352 7.562369380636306 3.685973052639788
Co 2.6581115175074452 6.969152796104657 2.9742255434404705
Co 6.911781302734709 5.186485959294691 3.335038755660713
Co 3.091388696901069 4.642118537712572 3.460358653689057
Co 7.5763214788467605 3.9049012673758137 5.198776610355935
Co 5.165228718191165 3.9234435145332287 4.460853098067835
Co 4.764857473366106 6.231998895251067 3.4436409719910213
Co 6.1181713913077544 2.186917048592332 5.725357867516983
Co 6.752410826368914 2.7285468553946175 3.378730625737776
Co 5.119633972935704 4.151266105869018 2.2196757784918564
