38
Energy = -211.2991942 eV
Co 12.67505374033538 5.3148263439548655 14.333892827493816
Co 12.714566444887053 5.549760932968856 10.369260005134963
Co 13.222904815657627 12.485396611689028 11.577501299991333
Co 10.915950746716078 7.115293286353827 10.389696628154283
Co 9.517186744833623 13.775269250438779 12.551155916829314
Co 11.792814091933508 9.469641989572994 9.755062690636006
Co 8.4318783124336 11.421865700432434 11.994883748523094
Co 7.336533586087711 8.535983406043698 8.556400165075642
Co 11.724245164845051 12.098089793964041 9.876654516118407
Co 10.900713674238062 12.003309488484632 12.083156460604783
Co 9.117500536116246 15.110338577673183 10.752571620134658
Co 14.182280900252966 6.1399231252973125 12.189387570499285
Co 13.110690130216504 7.902223041545324 10.947434887559469
Co 9.912660154724703 10.659158764136414 10.3507264417016
Co 9.22938152235149 8.801464090879591 11.645812436951692
Co 7.0100937417139635 11.771231269996393 10.010861906308495
Co 10.342401921558878 14.29569504953816 8.87077804544681
Co 8.090090243893224 11.48023187952175 6.4722177566401955
Co 10.132367380813331 10.330573493831617 13.21255562530501
Co 13.29491370084073 14.69251574511222 11.878646199152302
Co 8.061871319916229 12.93632104470988 8.085331083196314
Co 11.290071572479988 14.15943798927938 11.001892596381769
Co 11.934845734171539 13.610856121983428 13.276608140659265
Co 11.35547825158445 8.529019977328014 12.39614261570138
Co 7.487044685990534 9.568964705252796 10.438801331436856
Co 12.51498144287221 10.342349836750866 11.704789400226726
Co 11.924205042342571 6.360464606501175 12.514710901039377
Co 6.315672269344774 10.882770095602337 7.858685286222171
Co 8.482319951467684 6.9998102509334 10.304358796886763
Co 12.853361458790333 4.279219044666179 12.36829070521519
Co 14.740058814223067 5.2562295193765305 14.097492851135957
Co 10.194754531061271 12.063244172645973 8.091281597612584
Co 7.398565042071917 13.509960896401669 11.493859156606138
Co 8.610064825217933 10.531110677772563 8.504477496655907
Co 9.592386452931063 6.610840855317501 12.347006599197089
Co 9.62754653150481 8.620595861895348 9.208644530163102
Co 10.635374785866288 4.930636158761881 11.23523296550733
Co 9.162672737718975 12.887519262351795 10.201269184859909
