34
Energy = -194.2713387 eV
Co 8.809038218231114 6.488872929889889 5.885540759363641
Co 7.663388698131444 5.590480362040484 7.637146685102323
Co 8.181453038502037 8.860465998093497 5.486447937121897
Co 7.626652063350429 7.232024632905872 4.004538175527722
Co 7.548921330372291 9.309377226257062 3.165469748034307
Co 8.671461570545366 4.976115544622824 4.077995388159013
Co 6.608072272496848 7.525779324956162 6.516806576783455
Co 6.7214625490930855 5.369150253878613 5.341891630096846
Co 6.2804199847911315 7.0222072106026525 8.869115722821313
Co 7.896244878220859 3.844984051283697 2.0187946183790206
Co 6.569300471570666 5.461348343990527 2.896581870840105
Co 5.667488224864966 9.051789417515595 7.995176022811478
Co 5.77436892160495 7.657791705831237 2.644996298496286
Co 5.9376290989804 8.854077429593739 4.6810454122077205
Co 7.326364110540593 5.255682725589434 9.922701592973747
Co 8.118641588479164 3.7512508002169955 6.238323370446813
Co 7.064584629976179 3.322012608783581 4.102961307050962
Co 4.363896100972711 8.367809767459134 6.307497397852458
Co 5.600742900602341 3.534736420414045 2.0879640055040447
Co 4.822996913979254 6.690155384081942 4.5624231494685406
Co 6.556681795047294 3.7134641204041348 8.371890346059564
Co 4.323209450181903 5.691960336119763 2.401774718999933
Co 4.062258816108986 7.298478621087293 8.438298222436664
Co 5.028756547300623 5.167712925245454 9.549597306914679
Co 5.768725942221006 3.350437506330164 6.1783538618472775
Co 5.177664174391034 5.4770990807039865 7.244925788521928
Co 4.812399273513797 4.202127809865971 4.134319419041921
Co 3.1052936435666574 6.493203430077605 6.310477402470784
Co 2.8294910364395935 5.423465251623717 4.288208185062011
Co 4.2850422288848815 3.3188079258889296 8.128816647506017
Co 2.9387781078268556 5.202997798887516 8.252055637812845
Co 3.4628026893040835 4.0618868135525465 6.066846218651347
Co 1.3411024469451494 5.067930162479544 6.29171874996882
Co 1.897229851978723 3.293570299266717 7.601864189725677
