35
Energy = -202.20433653 eV
Co 8.312639349911738 7.554313126767219 6.331334769341791
Co 7.55598700390669 5.685276368907257 7.520173371651909
Co 8.486601247545334 5.247653342747693 5.302287095693351
Co 6.324374947904208 7.745357926070695 7.4668259582404
Co 8.041719750113838 7.47418132495219 4.108945856291876
Co 6.196821193837897 8.652455879616557 5.281813909085108
Co 5.66459578292229 5.962632200028369 8.94631913274526
Co 7.870577454717813 3.4890448200215793 6.716475010613382
Co 4.401380666474064 7.887964690638307 8.913651396130806
Co 6.379556836947388 6.304571888543978 5.4504133081806465
Co 5.677520141680104 4.362093822833247 7.130461648598417
Co 7.276269347647761 5.491095473108113 3.179954758490923
Co 8.441894381844119 3.5416016971297024 3.6879046009974923
Co 4.327743476985744 8.805836918783557 6.765476367852729
Co 5.945901370853677 7.433822724257035 3.207117357896056
Co 4.375201047997644 6.429042668813034 6.992022518186549
Co 2.5198585108019786 6.6780111027981395 8.52057388267158
Co 7.725267701535721 1.817282796067576 5.105533666006202
Co 3.736162077515133 4.724407640809341 8.538675088287855
Co 6.459762048397828 3.8781279602057857 4.870539443315453
Co 7.224740399492542 3.769466986596957 1.6496848717379207
Co 5.741624574848686 2.127095005301366 6.277994235044452
Co 4.200880307114739 7.399000826903283 4.819651283930742
Co 5.883920428407764 5.929958260186448 1.4067547976518018
Co 2.3648848708860903 7.54632702652146 6.35319190951339
Co 4.181698273400344 4.898116485467413 4.982300935290812
Co 3.694707748852868 3.211082925452874 6.702334192150861
Co 2.347933876518297 5.1960458508726255 6.629738480636161
Co 6.372316404479875 2.2132692381315855 3.2354122147560727
Co 3.9877828944005564 6.176500192878032 2.790391623332597
Co 5.234599456186607 4.180433322272387 2.740351143986481
Co 2.2225115595236127 6.097143126676669 4.44500411346846
Co 4.389451676204853 2.604944519374477 4.428719064934284
Co 2.108392721261859 3.569999393429465 5.025247009151686
Co 2.9318724746430505 4.168266880469057 3.030511394469389
