32
Energy = -182.84147953 eV
Co 5.0601030504180695 6.251930113771212 1.0153987339076316
Co 5.367438234244874 8.02844044793684 2.5476591611827533
Co 3.1800746481772917 6.93331827383177 2.048130444813254
Co 7.2027469861225155 6.525515360784216 3.2115775058408715
Co 3.6726218857076565 4.466982993583086 2.264624745461207
Co 6.467648558990208 4.7605819492913986 1.9085407055405688
Co 5.9216061024450735 7.729738780642775 4.890373697306429
Co 3.661761854645542 7.898314337963793 4.251497615545583
Co 4.872522722691932 5.964969080967671 3.4060288530550173
Co 8.014000584878294 4.2799829986820574 3.7527960883009874
Co 2.496045051961385 5.769124598384165 3.921242929221417
Co 8.033743415100572 6.910623433594532 5.518861028465672
Co 6.457560449546632 5.266682025293799 5.064932812213692
Co 3.5093704480574415 3.787864923691592 4.578236532534529
Co 5.6249890170688674 3.5800202143098994 3.647493412897545
Co 3.9986191423142237 6.108042532307509 5.678982704832751
Co 4.469693851648904 8.115951604330428 6.67870427589381
Co 6.944327866641169 8.389637759947515 7.004315634202428
Co 4.8400393155184975 1.9776795997192358 5.303220518200133
Co 4.960053023961629 4.058231917532715 6.4615855518029806
Co 2.6104565402091437 4.559173215047212 6.618286669382442
Co 8.532406243290188 4.6893454154001875 6.118487552820667
Co 6.982911916831852 3.007507423838241 5.538928862594055
Co 3.4612524441103463 2.4473695259595614 7.116914399605128
Co 6.043047314301196 6.321067969594131 7.063510169980658
Co 4.034846017626963 5.915616194838046 8.06447903127909
Co 8.15651969853874 6.276721905845319 7.8734402155557435
Co 5.461421532309805 7.832302772379825 8.770915378259541
Co 5.739076210903215 2.063134037400276 7.477879098276992
Co 4.743275025184879 3.8097527189654925 8.756686902205683
Co 6.951234720945466 4.17177730104801 7.725472036960981
Co 6.128970086643414 5.653430054136747 9.303099953333357
