34
Energy = -194.13796724 eV
Co 5.074965434849965 6.006155599255294 7.826291855272921
Co 6.404402126020704 6.413381487114891 3.3504381089809065
Co 5.448879002463858 8.094132957012329 4.687125531957905
Co 4.325478276212698 4.464070673587428 6.02779325610983
Co 4.525811636045631 5.6793975741461304 9.983018164456041
Co 8.353057136805239 5.771915926105589 4.321764221131321
Co 6.2577310779283 3.9642708680653262 7.1445799776109
Co 8.174347990757472 3.5668709473351057 8.420809511936216
Co 5.891225812434049 8.07971890270417 7.045875945809889
Co 9.675985332006974 5.206143509540546 8.050819226217742
Co 8.194102764886138 9.1865961770858 7.359711998901008
Co 9.56553426217294 6.622150645905692 6.14499084967917
Co 8.221833423208658 4.562410054063485 6.212805733321147
Co 8.431863082467457 6.216542975168381 9.83424192169853
Co 8.21584573224133 10.8791566481042 9.241557055310745
Co 10.290476140288078 8.773882129849673 6.3357208016489395
Co 7.649505931586893 6.460720235710621 7.644023734822976
Co 6.454515268969622 4.1625740547209285 4.479349999879676
Co 8.199468807301514 8.57380442356216 9.71919925504352
Co 6.239780879728056 6.0371615660832445 5.677467287242271
Co 6.316806212153439 9.633468070073663 8.730483647945062
Co 6.609418259276849 4.914150250327344 9.343825068365714
Co 7.752293241564087 7.885268483424734 5.320020815721757
Co 10.150383352936137 9.734819294490137 8.697259868624752
Co 7.493793301837771 11.487472179660628 7.195833265002252
Co 2.925195461279098 5.259524487904876 7.650490933712428
Co 3.973460057030625 6.8263840639496305 5.96584495779807
Co 9.67804287760101 11.03944348458941 6.877825197068944
Co 8.668244706449027 10.02399040799578 5.120540363882253
Co 6.215913335034198 7.355761655626054 9.39237886607246
Co 9.770586771382607 7.512843159246855 8.321861894296255
Co 4.427684935465061 3.867242222026561 8.57881653995742
Co 6.460207209987704 9.936809726517243 5.823803019721542
Co 4.465921908396139 5.557045481243181 4.05557167113526
