33
Energy = -188.43026776 eV
Co 5.32664569722756 3.929248616376148 10.465189716942866
Co 8.823213265247782 9.210649945783858 9.586415050682298
Co 8.709435881533793 7.051948669725466 4.633811479388764
Co 7.04231448743778 7.780854941259378 10.340995702078358
Co 6.806292999408073 9.239829414546943 8.45575764176322
Co 5.312443971071832 8.291641672469645 6.796784231209539
Co 7.250025305693725 5.379052641003789 10.02969110595335
Co 5.79844670154971 4.517741982772719 8.33073236949836
Co 6.452635419091445 7.983703350297853 4.826109744884534
Co 6.689055336567947 10.092635740892057 6.235140109655188
Co 3.587542004370529 4.579305135574338 8.922482889474924
Co 10.847454303617067 10.53043304590456 6.531619181126936
Co 6.584999165814488 3.571140187959074 6.329834564208522
Co 5.336039797160571 4.411519734427787 4.5380767876458625
Co 8.790294146956473 9.967638737200728 7.32431205175762
Co 8.253994628425191 4.868263840073627 5.341995500427973
Co 4.2558320333046025 4.579246497943767 6.573182281415914
Co 8.026237063024414 5.071428780345978 7.669243609469414
Co 9.755849441759128 6.283690019336452 6.7068843849483315
Co 6.30135498949164 5.899283037069696 6.156044573606848
Co 8.890937031982352 11.46596668662145 5.610486861954922
Co 4.825393524358041 8.320210717883741 9.23585886641172
Co 8.776535166353522 6.935163371654525 8.93481589597411
Co 10.271201030313275 8.451495957943006 5.715285425729884
Co 7.95624362316787 7.7794875830841725 6.750315058554875
Co 4.316372270419967 6.627666222100557 5.332437683593754
Co 10.321498317414132 8.34235029760583 7.975073634065595
Co 10.432262098073501 10.277011028639395 4.316450067079707
Co 8.351453338350108 9.415490419139187 4.834501616935846
Co 4.104188215006719 6.538124136567624 7.751286721861675
Co 6.773002992611095 5.973251489800715 3.8040685798553504
Co 4.987649261895984 6.129878277951916 10.053647694178377
Co 6.446753506090467 6.839960658716287 8.354370525050657
