34
Energy = -194.74317645 eV
Co 7.0266184857764165 3.8140332737917433 8.184590568826238
Co 7.07509700595712 6.287116319596551 4.190755440118133
Co 11.00498530648861 3.4913253513984883 7.751826071322053
Co 7.459935522238287 7.437955532450715 6.2837973393314845
Co 8.75109151539858 4.505487096308015 4.544344065000034
Co 5.259374412907984 7.046161140516907 9.733463152272003
Co 6.166295297245613 11.04290506443893 7.5840812452081545
Co 7.922195980652187 9.502947926490677 7.874106937575874
Co 7.034958376184927 4.827032034146335 5.986965748462839
Co 3.513644506815317 7.89284362067013 5.539331428656536
Co 10.413113941098633 5.0484446153168365 6.127328257748195
Co 9.531990329688975 7.790663816881199 7.915117864580397
Co 7.1197056348519565 5.378265186622074 9.889259578374432
Co 10.825278950055916 5.780478268166672 8.284728343933862
Co 11.100341251012724 7.292854953560497 6.358955697231012
Co 2.603946924931902 9.065442097446965 7.226936694929904
Co 9.199723518577846 6.392388887907763 9.861449879849303
Co 5.955556697244739 5.906581890549856 7.87575155699711
Co 5.514654837766455 8.344149378546623 7.398593881487155
Co 8.862960605897243 3.4532541509292076 6.770006047878278
Co 7.932323823117065 8.478359652060616 4.0696020074965675
Co 9.31599468208635 8.944766118124488 5.918760293965745
Co 5.692914961053437 8.224624374443865 4.775675382872792
Co 5.9830940831686465 9.504853835320057 9.371399941129521
Co 9.283414659804974 6.736411440941491 4.996466603843745
Co 8.51887362874179 5.689328455757966 7.597503165762323
Co 4.533594634649381 9.96045528438054 6.202603430906177
Co 7.022298220803395 9.805400476937976 5.7993048231101785
Co 9.244976411560138 4.132015633864867 9.049942122976477
Co 7.346014102865485 7.557826248494809 8.947363879834683
Co 3.742381002933561 6.844713470989273 7.645585553770072
Co 4.069026691938458 10.799974360674858 8.358051530544989
Co 5.16301924211292 6.226735908223559 5.745028330691441
Co 3.8086030786625447 8.684268541350852 9.0919312942869
