32
Energy = -183.12160251 eV
Co 9.50908763565843 5.152625127370414 5.710075462713378
Co 4.232466731743362 4.078008099153186 3.3545081151402147
Co 6.691232815380499 3.8580371623505263 3.0622020716810914
Co 8.195773483966997 5.630933928458978 3.848974031306729
Co 2.2609463368608544 7.215606087706407 4.6623137201488385
Co 3.2184643661376504 6.290173794487594 8.660097443363187
Co 7.691482368494432 6.850442311800472 7.754924237335429
Co 8.103175417395004 3.4617689036100487 4.8894411674308955
Co 5.999876533555587 7.316669731150278 6.040899204791801
Co 7.104799639310237 5.284942901357744 6.05684360608114
Co 2.8654108339395976 3.816529392786599 7.994133423100013
Co 5.0270433622259265 2.9859406721322648 7.475373579154126
Co 5.450246648258276 7.674980087472353 2.1400495457840076
Co 4.031402001685964 5.770634427356094 5.027440799144147
Co 5.909753556062594 5.923631021037479 3.735263248676093
Co 5.431847552347114 7.037803635735409 8.347714643739716
Co 6.533628632173266 4.85409638737987 8.439739680330739
Co 5.401652047314081 5.166921868683195 1.582452006632612
Co 2.0676313975128737 4.925682800121566 4.146983194580286
Co 7.309616600628488 3.092830376573274 6.988930514802533
Co 3.365166999530582 3.5830688363039016 5.704787369124784
Co 5.686940803896329 3.6561984025688785 5.224938611398926
Co 3.5954283947579686 6.305753126562055 2.8247181470220335
Co 2.258322639028844 5.58686355112261 6.4937501525054495
Co 4.499133734494654 4.502833499473305 9.42444092031021
Co 8.759516601908294 4.759740099445266 7.760177912673109
Co 8.430530063585266 7.230157294272154 5.637316537057572
Co 4.54015199175994 7.97935460167589 4.2905045531070884
Co 3.6767945941133573 7.4897924285268775 6.646267968460995
Co 4.65009753912166 5.220664050544665 7.153793517706941
Co 7.015368708252948 7.920622249986665 3.9120059117277854
Co 7.336208612890196 6.423456623012505 1.886036615944376
