38
Energy = -203.94968971 eV
Co 17.014372465586174 8.125198424064674 9.506664267167563
Co 13.75159245562889 6.0827221621554175 11.289623671943842
Co 13.143614226625944 8.306235901477516 8.995459329908147
Co 8.568526303710692 9.418629418181734 12.143950707394241
Co 10.40696988293746 13.843132554064747 14.160177073564382
Co 13.444852452008199 12.440329612446455 7.037580515689327
Co 9.29538574255415 7.7375979270478235 13.644076197838404
Co 14.517172392506055 11.864859556216185 8.795579079400945
Co 15.363338789433124 9.656223515880088 8.788136660479813
Co 11.96141706953099 13.24692384901673 8.421503042570821
Co 7.708693469319178 13.32218687442692 11.294012270444792
Co 10.0469770334332 13.530785393781875 7.215188593473385
Co 10.892825579832675 9.460341765127328 12.748517119488397
Co 13.438149992079834 10.371466323731498 10.059063252298522
Co 13.445127222524496 8.279823003260972 11.43264617944356
Co 10.05625775298273 13.541162990804809 11.926054966286008
Co 10.455225718733756 15.151252543695847 8.643991500159682
Co 11.196385279753436 8.13623918983116 14.66507420768613
Co 9.128995547642242 15.597447519347519 12.686241885777962
Co 11.15345906986469 15.318652962710745 11.392065028138733
Co 9.288719419122879 9.998268798923847 14.350273317239653
Co 15.524893241261907 9.24011172405064 11.007602029433441
Co 8.03028360482363 13.785453408547928 13.62468659263833
Co 8.714653616471743 13.287991075134764 9.01583324653842
Co 11.035709753340429 16.006749015425083 13.629403899071464
Co 13.327157322559854 5.935028323976717 8.971192575664324
Co 8.665390816600649 11.69485668915745 12.901477653224545
Co 9.010587954081528 15.137060444449823 10.406786607562756
Co 9.61329252761796 11.876050873925182 10.521575228661069
Co 9.841642120564627 7.638893800753896 11.380296359409472
Co 9.34569786441418 9.752293880525864 9.984367822731148
Co 11.745267926389824 7.257252813270463 12.635114990291154
Co 7.135615313214686 15.44055977539982 11.558995361924568
Co 7.413053993656498 11.069453684778003 10.974129669016582
Co 11.803955415290337 6.8622429324941505 10.375924797698172
Co 11.497805321337681 9.176323944352596 10.485114103990048
Co 15.059349932141847 7.294242424657559 9.735182086368061
Co 9.108367540692411 15.479027805459719 14.929825376479004
