39
Energy = -225.90283195 eV
Co 2.092383538045176 2.911040011717204 7.61754853617617
Co 4.218852985356777 4.088784576968804 7.61743748859956
Co 6.225081089600933 2.6555039087579995 0.8290855101130137
Co 3.8879022946939306 2.013831075750122 1.0150996940931116
Co 0.1919816800046511 4.36398714407773 1.737589341235466
Co 2.5586057298874256 4.569062094666134 1.4281536856168844
Co 6.604303532472862 5.6828243481858856 1.3512634834747665
Co 4.246040319343727 6.317539906638867 1.3914284998347943
Co 1.4290117939771203 2.273493803863802 2.060784808884256
Co 5.074133584341052 4.1830875592196906 2.0018976376667195
Co 1.5819731516536235 6.327858881224868 2.691702747956552
Co 5.863597314548924 7.674156662087787 2.3232543163582804
Co 5.4805487015734435 1.7474436223033207 2.898994499829156
Co 3.2728922586937688 0.6242443522453723 3.204333364460323
Co 3.391716903296496 2.9251621807096506 3.06627138088727
Co 7.077840849387445 3.566672148087192 2.97813499677183
Co 7.347686893572703 2.8980278900022265 3.677101048091295
Co 3.6205070650987934 5.447750136873226 3.483948268026342
Co 6.228694248165838 5.817804513834932 3.619376585205406
Co 1.4945314887856658 4.190819532257925 3.582676068420688
Co 5.271639427734525 7.674156662087787 4.615422814381674
Co 6.1965717991549125 7.178980266641439 5.389947394036139
Co 1.9190990621685207 5.972503974575057 5.101356520132196
Co 7.327657092690432 5.361544885802339 3.94149537350382
Co 4.327734013240286 7.451459404834858 4.04141965461452
Co 5.26603303113602 3.8661475413283917 4.432163911249754
Co 6.56279380723206 2.0410526082470843 5.0816870468042925
Co 1.7036010921529128 1.9142809268757217 4.586064474421945
Co 4.166345175451244 1.8665286723538508 5.005147555635182
Co 2.982612030610121 0.048023161892264084 5.584677169392335
Co 6.587946904690064 4.8387192147019675 5.94237726840074
Co 3.0160082937526087 3.9209598093966 5.3172707434202255
Co 0.7398415102617626 3.964017483429504 5.768739957633531
Co 4.35824237213202 5.799295262365664 5.84651606494167
Co 5.170168095953432 1.253436456808168 6.93231229396637
Co 4.727774211574424 3.5914536657478537 6.9050731488986825
Co 6.905841750480096 2.8394077486565132 7.17999779867143
Co 2.7145027155744588 2.1722425617324554 6.813920439591007
Co 2.585466975131049 4.681074122886333 7.356493192223211
