35
Energy = -202.17218094 eV
Co 3.550572177727877 6.986448348382159 6.3878057334195395
Co 7.350320940895207 9.229279817597591 6.928937107192787
Co 6.3086595553150735 8.666781291171503 8.979413972642009
Co 8.63435816077431 5.783461107208882 3.8336737057382373
Co 4.147399936278092 2.4934043891914293 4.88926290197355
Co 2.232137055558035 5.076530264672509 6.336988516888558
Co 3.4084974054109147 3.2691791909587327 7.075562298533574
Co 5.674767039055364 6.752107418820623 4.792825990605162
Co 4.305716503517093 5.274247189133587 7.903514068639267
Co 7.874089138435805 7.276959513026693 5.634809249890198
Co 4.302199069874731 9.218211950100745 6.656166929727714
Co 5.811798793634109 7.552317509730516 7.0627274000668105
Co 6.926108704050999 4.603170469118162 4.863587697921702
Co 4.465011688453019 4.801179065059471 5.523249880310976
Co 4.008024282143914 5.9766306668500455 3.3740324834510287
Co 8.946721414815576 3.47050159188242 4.653267908081084
Co 6.581397776033292 2.3365390166197226 4.58852152798686
Co 3.7823574342214923 8.270195232183667 4.501530080971488
Co 6.066045974178051 3.851452431316787 8.729593136217774
Co 7.907415340665298 3.270067810793146 6.756581527516927
Co 5.649123744380374 3.0605864916536127 6.6126604884169895
Co 2.624735646162316 4.162894223925739 4.233196335413808
Co 7.990373432746303 7.08457891748689 8.005772695056544
Co 7.4778467106931 7.836594571073967 3.4631801085378386
Co 6.053220006904249 6.282134577338508 9.13541623822106
Co 7.5274317524936984 3.7116179469319843 2.794355686802406
Co 6.598001381654923 5.355483960158309 7.030888538907236
Co 5.1575684939882205 3.889153694331757 3.3715526146081203
Co 4.114987097332468 7.60754493212543 8.61738503108223
Co 8.89519779419556 5.304923728537523 6.255740270669458
Co 6.478601719072386 5.838646750052084 2.788785624537279
Co 5.276290653384787 7.957154589433266 2.746712248627422
Co 2.1285535723983617 6.527790342373076 4.520638364405142
Co 8.23577217433497 4.779849384692237 8.560973589481481
Co 6.015878981459896 9.019674601032381 5.063551940155177
