35
Energy = -199.89724205 eV
Co 3.9271300848609934 5.505041083940853 4.701394152938788
Co 5.154148545456611 6.120457396712911 9.186270962223116
Co 6.398286548141457 2.1669001049941423 9.245375156667603
Co 7.481137145517266 7.517273715206086 2.314031676149043
Co 6.139126637121214 2.9699334584878123 6.941371303044109
Co 4.688648977908307 5.117524959590442 6.760755453747883
Co 4.6134366099606074 8.168917181756061 2.79296933057891
Co 4.398104067188686 7.912225654899325 5.1662024921405
Co 2.987849593449258 7.054970591217935 8.914117985743893
Co 9.134233647885267 4.664780076790503 4.563987435267716
Co 2.8614871439135334 6.689891216633487 6.4871355339219345
Co 8.196151550388914 3.3395193184838368 8.576513430738773
Co 8.098212863479082 8.319642457191671 6.210188929652016
Co 7.096294912258683 7.376731650262028 8.173645420877168
Co 4.9472528405154454 9.974222576816945 4.3767968088235545
Co 4.912862844975081 3.7750795754272723 8.716583313033487
Co 6.791863766898939 5.024093384995714 7.73533602285327
Co 6.6303310700640345 8.529193552442432 4.22673599794272
Co 5.714765684096562 6.677029884489167 1.2842703442518029
Co 2.9813021697114293 4.979549850011359 8.24803061830326
Co 6.33244183874013 6.809811936165049 5.988601846042471
Co 6.6675372683198795 4.676976226430131 5.089555019085195
Co 4.699740530524076 7.672736158852887 7.533381581309586
Co 8.61968896594428 5.679767594081202 9.001248795136501
Co 8.670022398633291 5.984558832075049 6.620469499062746
Co 7.045860191149467 6.733206661788855 10.40606436567075
Co 10.046855210857439 4.431363002323356 7.608051177892875
Co 2.6099776559449563 7.286979381127652 3.9701335075226973
Co 6.002029785795161 9.215072923397644 6.439149888573647
Co 7.612995873580686 5.207549003228879 2.787812543715891
Co 6.719260185556041 4.489275860143316 10.023048672233548
Co 8.330716325078258 3.584543481332972 6.319714919789013
Co 5.771453268945975 6.274675467899195 3.568590323321859
Co 8.164529958675795 6.7121075352411514 4.43037791187317
Co 3.743979147873401 6.034025740081626 2.4388330390725246
