30
Energy = -170.68255569 eV
Co 8.74911158548618 3.5150340996512477 4.163349587615282
Co 6.02246330952846 6.365591933040064 5.175836713550863
Co 5.298054123357414 6.1222480769721885 2.630674884368089
Co 5.082418180390745 3.6612147722327237 1.996569871567092
Co 6.052249440969939 8.770893918749744 5.888503352742166
Co 6.8577412429033835 5.11252260787779 7.165045659608941
Co 5.729275468149151 7.087261792547111 7.5438259405347825
Co 5.197021946393487 1.9265089042785315 4.832693697652177
Co 5.090471617164815 1.359498889759499 2.5351864435402383
Co 4.959935461517816 4.215896236172173 4.245063383004316
Co 4.588209756873015 8.976612575769016 7.856719749474842
Co 3.220477627767641 4.938368793053482 2.4748042458050867
Co 6.7692158288541995 2.6882946098289024 3.2500078218471504
Co 3.6915571654100687 6.329285250809238 4.291343955154479
Co 7.134335846172291 5.021152745196237 3.330231003285944
Co 5.250580081101486 8.115942092659834 3.815996230251096
Co 3.4409345824561894 2.702379621036629 3.382181370827843
Co 4.3898080224013505 5.2355450627302424 6.430426937835731
Co 7.530190455855748 7.410154274981694 3.8697993712200733
Co 8.286026748776283 5.524532398464255 5.235447473215497
Co 3.501984953536631 3.0297249965507507 5.9376158676356035
Co 6.872524149711882 3.549760427661654 5.473948395932005
Co 2.3643611920757923 4.4792620112102375 4.661289933169589
Co 2.214503291200679 6.0746150652260456 6.2950340065359045
Co 7.812202830684889 7.4267768141575665 6.357115232140056
Co 3.945953863820349 7.760360557263308 6.0576898678667215
Co 4.970332448259822 5.028341463419814 8.682770094676904
Co 5.390486171083663 3.240617096702978 7.222304553030772
Co 2.8231056416121465 4.284351241467789 7.767323977393471
Co 3.475224011748538 6.75800871579364 8.141957423780998
