39
Energy = -226.56357293 eV
Co 7.779581970159948 3.2364942234165213 9.948876073070771
Co 8.893158165874434 4.824907597580073 8.772965932661874
Co 10.399388529799932 6.1697095656012735 7.537948992487086
Co 8.307648823100447 6.995116359033092 8.040311585731798
Co 6.834860974793954 5.440445422733193 9.676175446431365
Co 7.2747609519982515 9.091788771936914 7.581639925111376
Co 5.879831166872135 7.231602971445089 8.308347041032325
Co 8.992226601346287 4.80929032480036 6.349995486252415
Co 8.054695094259673 3.0057450190172705 7.557818600555315
Co 5.9401120864170815 3.3639364570750288 8.647900157123312
Co 9.226662680070682 7.036207944275609 5.692401483725621
Co 8.997003731994626 5.299199435633973 4.052948834960464
Co 6.872533631550577 5.112087328785358 7.421338842198031
Co 5.150473309998739 8.88992278240581 6.571837834130949
Co 4.625566412847787 5.265086867772222 8.528550006371
Co 8.222897961437535 9.052518303843014 5.288848496949937
Co 6.623581601951791 10.627515455207728 5.945326331182633
Co 8.210184812596474 3.088333863118058 5.0485515697687555
Co 6.895740512046551 7.279911318053492 6.1720503670137985
Co 4.38899382467261 10.44493566078301 4.975236857474514
Co 4.9493509213459195 7.044155742961006 4.887475374435004
Co 6.157967260954096 3.086879629794683 6.189357795679956
Co 3.122552178188411 8.494425176625093 5.376051972335629
Co 2.5919747372277495 4.959788854740735 7.318460784257414
Co 6.10700538326393 9.024578907682963 4.328850747967774
Co 3.973841027881347 3.074145872319334 7.322536751968333
Co 6.870176601163437 5.0502456430864004 4.945245119525313
Co 3.746166921403137 6.9851104670994095 7.089588857907194
Co 7.507974035341014 7.123418419016981 3.8634490158719252
Co 4.693375888866678 4.978359024291901 6.160272956929295
Co 6.916427863191087 5.156801097064019 2.644734863437643
Co 4.0696162540312795 8.806328315285077 3.284768558897283
Co 6.20806069714664 3.1151251108435325 3.7647004545563107
Co 5.410959614224233 7.009112936265178 2.6448240010094355
Co 4.157764757543787 2.956128073783341 4.961629998043716
Co 1.7593922782587306 6.655341724002418 5.830501644004441
Co 4.750133101859338 4.991549514253234 3.6876316912684626
Co 2.963147114391088 6.716922079943249 3.7193338798424462
Co 2.6822507332328387 4.75401307390067 4.941384012449405
