38
Energy = -219.81076051 eV
Co 3.560616542017631 1.9866672218818697 7.129701698711688
Co 1.9537689597064842 5.862520287784208 6.671176808242235
Co 5.239304383209738 2.9314424918933724 2.695020721729616
Co 3.123693740801916 5.838315867154526 4.59977010411161
Co 1.1559400151468553 6.836901169014456 4.311433157659315
Co 5.272338822958376 7.0136368083749865 4.377259516681712
Co 3.5886036273809667 6.305774658041055 0.8118769681418756
Co 6.9629508745533695 1.4006080856791547 2.1697678530354954
Co 4.5247377431108715 2.3293296511511326 5.014303270050497
Co 5.2699087336100385 4.561284921852849 4.699983059121309
Co 6.7861852473724955 5.523870523005363 3.2453804234454378
Co 1.446636956410246 2.846928062259485 2.4158792388482992
Co 3.26153840138074 7.4640909693868 2.9370145094779545
Co 2.9872282194288204 1.6250908057311568 0.9142729107139984
Co 5.556106702198457 7.1901596913851975 1.908168629395212
Co 4.869534223634127 0.5894693172124084 1.7217638069417693
Co 6.773166937480519 5.759293435363081 5.800960866509521
Co 1.9406712133467046 5.36650469074833 2.497315367553811
Co 4.563496026799899 5.966188705114371 6.554362231636161
Co 5.876684336311676 1.1366638259546578 6.342683565069369
Co 2.0879069512640545 2.0974449266747146 5.166432450297738
Co 4.4199917917851765 5.410845257753241 2.6912411740457363
Co 1.1893998230830116 4.429953891419207 4.795857150737848
Co 7.448704040516097 3.6259041252062008 2.229794384047019
Co 3.393317007842643 3.8558530664986934 1.2081939754448394
Co 3.5501130377305445 4.450873931862809 8.15303061708938
Co 1.1420191797313406 7.932107735185956 6.284160636024585
Co 3.2552454627041056 7.881319244621119 5.464380832115278
Co 1.4864919022110505 3.5243849807408796 7.262686643359888
Co 5.7888540810429925 4.721643377527778 1.0279588252722704
Co 3.2391359023811086 1.3098320586780376 3.2222232341076023
Co 5.51965637105248 3.5870130845907973 6.807338898595906
Co 6.818615337347114 2.7654154843252727 4.505885503470853
Co 3.089715172070422 3.628704156896787 3.6067220372670112
Co 5.21622920393653 2.500858954984259 0.45179830567867774
Co 3.260471294581082 3.9961822296628764 6.0101521114848
Co 3.8093813611944958 0.21859471389308424 5.448203627982116
Co 5.720039094281724 0.6767263121062584 3.9942436075179937
