44
Energy = -258.39846553 eV
Co 4.416362097420025 8.49909460307305 6.186751021721271
Co 5.62128498424025 9.538264323422654 7.87406584563381
Co 6.694269747596007 8.995160062760098 3.680447881792326
Co 4.372698674676972 9.229954344099424 3.92957688596404
Co 7.766286794180788 10.218098490702124 7.101093422256343
Co 8.480546494862883 9.366335864152568 5.081205790615745
Co 5.3187131817126305 7.746046774840735 2.221395082238105
Co 5.941430653556399 10.222207813948577 5.541157618536803
Co 2.958160595050096 6.581487059011892 6.7367389878301935
Co 3.10288401396167 7.279342397190955 4.454599835536756
Co 7.6933413804852 7.636210186967107 2.0793180263626305
Co 4.144527659993615 7.709262467278626 8.500795726981105
Co 6.544682313037983 7.558529882537199 8.68169407432268
Co 7.910697080548668 7.063314092305276 4.3551077490067005
Co 5.369174230998737 6.402698100283109 6.905586455897807
Co 1.8173608526260852 5.3380145939961885 5.028796752499287
Co 5.435779808250849 7.146786909742959 4.4771836881634
Co 8.621707404292954 8.274494169929412 7.994633443214727
Co 4.08556377263563 5.8504562408162775 2.8976863813227993
Co 6.524128216520589 5.777893261752295 2.811052553186451
Co 9.45095054270404 7.478517107499893 5.998627759503827
Co 2.813863429959533 4.141680546029185 6.790189517866879
Co 7.869884332529311 6.152253459637583 7.098260139328577
Co 2.924602133047802 3.899091997014376 3.529822294609079
Co 4.019672860958957 5.281764367131725 8.543924879283958
Co 4.141523210069189 5.1702263484170725 5.135491497340136
Co 5.165383734962826 6.480686347516149 10.199665632209447
Co 6.875447657862596 8.20901444787049 6.316378443190022
Co 6.636375243850981 5.107618801661736 5.204284564561818
Co 8.924316226063123 5.6386337579241586 2.888987509633424
Co 7.769882622123403 3.8103331639212095 3.5807687991339034
Co 5.256594607969334 3.9220087837154844 6.944234358782889
Co 6.42254350348179 5.143519394065803 8.714287075358088
Co 5.310800553015591 3.826630810153101 3.50620790449434
Co 8.984037114602929 5.078670232861828 5.293174549969041
Co 4.001884535150855 2.7834555281232602 5.281360340946051
Co 3.9264851550442494 2.895809159657409 8.546127598471193
Co 5.059969528855149 4.012181630548518 10.235604965345338
Co 7.690109718894422 3.82375228190081 7.007444844484967
Co 6.455258450030292 2.66628924193878 5.276215038400377
Co 8.813414343562346 2.689036434034594 5.284049903893194
Co 5.217175833627484 1.5630574660569467 6.944136238717308
Co 6.338621500348988 2.7734256085906153 8.660846350266354
Co 7.5271542065450925 1.4923855333049678 7.003311318079167
