49
Energy = -282.54264253 eV
Co 6.055949477675026 4.774384833089663 3.1527373490214123
Co 10.29470505108178 8.25868955559333 4.740609079777073
Co 6.474915393246322 6.778993203768531 4.217793526877588
Co 7.951453861246479 8.753520095578972 4.178635444361574
Co 9.648333859753906 10.48559736779832 4.243894607135715
Co 4.867974356930312 5.218083111221974 5.015675179448097
Co 12.444263826012671 7.682240589954527 5.206572933205643
Co 4.753131150909288 7.370113003832506 5.959379952254846
Co 7.480799537046824 4.467119043332371 4.859115204888778
Co 8.69890439549921 6.566716047819221 5.04127879044501
Co 7.389605813002191 10.93773162061231 5.072512502342717
Co 10.996642798143217 6.180111882160408 6.0561841242988335
Co 5.755970150309768 9.231293081787449 4.936949044423555
Co 2.723338857015788 4.659086902457299 5.606604107254495
Co 2.5973130971511558 7.056091302166367 6.127030451665011
Co 10.926179008323627 10.77337419543413 6.252085495097426
Co 4.194822654120276 3.1185211940185837 4.5824988390341455
Co 5.91331180283005 3.4707862299454533 6.2274162351190565
Co 8.904151394168077 9.555506787673222 6.1902504906942095
Co 7.102254258630399 7.907387392150633 6.251045418016809
Co 11.330462767609786 8.641469662269454 6.898457589397025
Co 3.9345901720210295 5.535894585275456 7.345290785361615
Co 6.609609948978774 5.684039021482918 6.678434353608071
Co 3.7701609565201633 3.0823120759331455 6.886520602365449
Co 5.207654547164916 3.9766173688245354 8.471793560643244
Co 5.280796627554538 11.146847794628524 6.091840983656178
Co 7.668670568108546 8.527095451561117 8.376851675237075
Co 7.0526970396023145 10.577878263549973 7.371278748258175
Co 9.00372741455985 11.691945963269433 7.076158075530368
Co 9.351433961603748 7.431830139990765 7.193967679622049
Co 9.005018799126402 4.918891423671104 6.734930386458704
Co 11.130509585038272 4.192779361935197 7.357105377837316
Co 7.406327182394374 4.172282842675204 8.35698307919349
Co 3.533111023701472 7.668618265823099 8.263150039193553
Co 4.045168174800122 5.594609127120465 9.694354432614997
Co 5.166367868013897 9.145935688320142 7.3670201251243865
Co 5.791526627446497 6.886990126116937 8.529247232458061
Co 11.113370506618079 8.265073336860747 9.06581591728598
Co 9.568856722214901 9.863733764570245 8.417075343034409
Co 10.733984723407596 6.11804250029903 8.436139617224923
Co 9.511584967128336 4.2049718802667355 9.08249169975166
Co 2.5247498460933198 7.2715135597474205 10.255485456618842
Co 6.370581962087345 5.362410467681551 10.207927725446416
Co 8.303477329450024 6.2280735683924675 9.00939242933804
Co 5.798385386189064 9.23879566655339 9.556042119777675
Co 4.693504745260791 7.567716128048466 10.686256572686519
Co 7.965877970954812 9.836100251591091 10.172670715700873
Co 7.210343275167056 7.64400432634591 10.603048178316735
Co 6.0226506958299515 6.557402084542548 12.175222860638199
