43
Energy = -250.21405495 eV
Co 7.029061657064145 1.8882985200995666 4.06213960204391
Co 8.461167558462547 3.5156224731466392 4.848006000203416
Co 8.40232713098719 5.229275180086399 3.352718427804244
Co 10.33030271175826 4.763626257078331 4.881334972284259
Co 6.048767372913825 5.839503051015201 2.338448000217213
Co 6.2898868992174854 4.098258482611024 3.7923080003482554
Co 5.962782053834587 0.986519971185569 5.880490384679572
Co 6.603709451190386 3.171993857692248 6.207186632394552
Co 9.192118497861284 6.678679268070196 5.075794927269842
Co 7.7411420411737915 3.401291716877533 8.233303779335344
Co 7.347157743605952 7.296198297655207 3.61563208799314
Co 4.78729024990819 2.4807225927368486 4.38619604391243
Co 7.124383247319434 5.598870265645624 5.375917775373259
Co 3.972001834474996 4.538895503650891 3.523640482700476
Co 8.582586537366655 8.896979396166072 5.295206347233078
Co 5.017215397574434 6.555100174267129 4.355408839811124
Co 5.328242410722821 8.164335086203302 2.6543663337188512
Co 8.827401070078977 4.849755915372863 6.7542410393023955
Co 4.29284568840077 2.4146280517224272 6.664027557254823
Co 4.6772516562402435 4.600846228496102 5.776254071652047
Co 6.091380299476731 1.7813101323606657 8.099306414511819
Co 7.0359540310291 9.588605717668571 3.563661453148277
Co 3.766513578282528 6.436221751086329 2.2245202708854497
Co 5.3606413983505785 4.091078540910592 8.1221541218278
Co 8.041587569189216 7.1700332168622545 7.072238599072154
Co 2.609026301760949 3.9941764253312284 6.747550677807405
Co 3.9162817317825884 2.336355524793908 8.83603159379975
Co 6.399199253066751 8.240689292106776 5.594297761272304
Co 6.800995552798969 10.615381058497466 5.570302392864891
Co 7.234183159841303 5.5732096285671995 8.580183589829597
Co 5.659333683107391 6.514415753053392 7.06575705773629
Co 3.181039378415804 8.026144823825936 3.775664911983291
Co 2.8376776598554065 5.95830408136424 5.046518725354867
Co 3.1459096540108136 4.428520304435849 8.993163858314393
Co 4.798261361023041 9.569399191299015 4.4991093042390355
Co 7.371656946620177 9.399784183918952 7.460415500866732
Co 3.859964675998733 7.951025363533682 6.0044186535345005
Co 6.572958867410537 7.781729761342764 8.950011799948296
Co 3.415093334133616 6.032805142885527 7.3491499460873895
Co 4.870862368591974 6.087140528190726 9.27144711884873
Co 5.103091663516494 9.799033097991739 6.8952300369545965
Co 4.36368213810568 8.14554448361456 8.351191156642654
Co 5.756933813823994 9.94145566856957 9.07367042477352
