45
Energy = -264.65898243 eV
Co 3.012821799493962 3.708791138521574 8.246483886616678
Co 5.281297143493855 4.2145618558572435 8.75866532951081
Co 2.044024547695888 5.407285194194314 6.871090647937354
Co 3.6647686901727403 6.030560243319874 8.551582373769973
Co 5.902649736386487 6.525019567483913 9.123882844690865
Co 2.768939026049617 3.2524082482984666 5.9545713056543
Co 4.2931613972715565 8.330185631567916 8.797660234070086
Co 2.667190252982906 7.644221639145137 7.141800327533419
Co 1.4433255681372315 7.2676135935301875 4.887857463581944
Co 7.0728974805589075 3.026278047297427 7.676811207150349
Co 4.83219977896845 2.4946820819718134 7.138787292001905
Co 1.624903137248032 4.902518471280005 4.6656013441760384
Co 4.38627631153637 4.802051110162232 6.632267694639507
Co 6.724107614576436 5.378892317305687 7.18165397678294
Co 3.7824574993657762 8.831183341950016 5.555143951728463
Co 5.078676033539346 7.235964680969907 6.934744019233857
Co 6.587258867241117 8.572533008539537 8.197403095784813
Co 4.409515143812026 1.8651305182147355 4.968198126012926
Co 5.952963221452772 9.356151102239293 6.095562966698175
Co 3.466090161893654 6.464043097786274 5.240218639436809
Co 7.502667265004312 4.707157441918958 9.35583853118089
Co 8.63180969493289 2.7638320226403668 6.004742558989435
Co 8.17386446501767 6.797784818654789 8.418774887890166
Co 6.7231870338394835 1.4699433171946494 5.446631541787987
Co 6.204378446263862 3.6412301537798464 5.555058319194038
Co 3.2826222122661073 3.493712158228877 3.68552954826593
Co 7.5302375339638905 7.537759231220093 6.260888912101166
Co 4.964812088209156 5.072428091455977 4.067684645667055
Co 7.449660732212775 8.97612268666285 4.355303145865958
Co 7.293156140305202 5.639139105886895 4.6789399599212675
Co 2.914250089042464 5.809459832685025 2.9892243447861864
Co 3.4844486676108355 8.028323227041763 3.4539005686805053
Co 8.920429858097386 4.628628134434823 7.461139410929672
Co 5.60880886648675 7.475432005312117 4.578012734553615
Co 5.683606395101411 2.891537283632303 3.3499503876997716
Co 9.721422259771098 6.643790491514247 6.654860886841716
Co 7.917114659419409 3.423382348442253 3.9216605830277125
Co 5.621435036636626 8.963821819585531 2.830274278939809
Co 6.693112959236464 4.878811513863778 2.444533921282798
Co 4.444855372892555 4.381173275665667 1.8451493082924517
Co 9.059066670309864 7.213178637905003 4.475550380756095
Co 5.060046615191714 6.6897025435473125 2.3095400727464934
Co 9.439685463503832 4.863993030821189 5.198329546553648
Co 8.935046080811482 5.385088448993648 2.9431644425935692
Co 7.3059396359352275 7.185479303340984 2.843890702609842
