45
Energy = -263.79071017 eV
Co 1.1025388028448084 5.712599198263321 3.298055490655217
Co 3.5247410273405286 6.897487548516192 8.788017283858164
Co 8.840897278766457 4.506794919619766 6.6034338558655685
Co 4.695044607403568 2.89858581195798 2.532437120932233
Co 6.797149210935145 6.005541214493997 6.684288954241669
Co 7.714329679729346 5.106238724676266 8.720111042196244
Co 2.4428263136854858 8.746204131022024 4.6933768234012
Co 2.972131907086555 7.807328733849046 6.766313649317085
Co 5.35221949597474 7.972849905940333 7.3415808022500855
Co 7.4693179627234105 2.8625838698698045 7.823651820197596
Co 7.39607455768941 1.5163682666895992 5.971559436642524
Co 5.697675462690315 2.089416001323756 4.4421684286858545
Co 4.355232686917329 5.939689286539316 6.374519019896864
Co 6.248171354469145 8.179787780508544 3.2717682860818242
Co 3.5593107861890307 4.591818674134779 8.935394920463777
Co 3.0111946539775616 6.340420833365931 1.7039182370881676
Co 4.656935434683896 8.169055214081219 5.084732611508147
Co 5.89909758557223 6.203566178075425 4.442714158317578
Co 5.543279767531291 4.223582615677252 7.926003185875859
Co 1.5824776502645554 7.886996140848257 2.79163257403613
Co 6.725978831709521 3.9655322385017513 3.2837662884591663
Co 9.722048552596503 6.023711867676819 8.202009265018676
Co 1.3387984010604579 6.776864238398325 5.357639660397281
Co 6.985455899042347 8.127184699319397 5.660345067179165
Co 4.539056947442127 4.216826688516849 4.558806858161242
Co 3.906506633032921 8.295395745563672 2.740176617536389
Co 3.529210817327235 3.6406763980366246 6.774957175543281
Co 7.182777457106773 6.167578601834096 2.4172278543590866
Co 9.488581402100216 2.2936845665280674 6.717885922597732
Co 5.313779031351001 7.258040565950161 1.2948866206214524
Co 7.7562412322808445 7.455328668014219 8.154763797764051
Co 4.950411545789727 5.298629245223339 2.3851196606357394
Co 8.1258841479755 5.471722666083135 4.519259679907041
Co 8.960255618543771 6.903336694535875 6.17475215360271
Co 2.827462177799392 4.228372446112711 2.9083602831587414
Co 2.1874218426557297 5.622911460124619 7.269398592472264
Co 8.455118068347145 7.6449292235713555 3.884566065585161
Co 8.46927693918819 3.0842756909939473 4.660852822430093
Co 3.3643917399017247 2.3015024227912506 4.834201432714914
Co 5.225019207601116 2.07873197795989 6.742144143212131
Co 9.553502771158838 3.6314024147002124 8.67362632651842
Co 3.2990234195751746 6.428723157291052 4.0580439249491445
Co 2.2050899369074117 4.5417085884900095 5.136267834214935
Co 6.579766395013527 3.8326733561353112 5.773239216441426
Co 5.7120256029385335 6.317072173112821 8.885755879926462
