40
Energy = -232.86198687 eV
Co 2.133083041887317 4.054375956289309 6.235245469414102
Co 3.7630960630459507 2.6414267129442583 7.586660622900085
Co 2.741418059410337 2.4249106474540514 4.695223171513492
Co 3.052927557881259 4.67075418015476 3.8390334084040734
Co 3.6555787541912292 4.968917881551333 7.79444108177955
Co 2.795003350239904 7.19935404975372 7.605506032851033
Co 3.376411096307202 6.063731754674184 5.7307449654100955
Co 3.7779740995545104 6.8741260464966105 3.4827442009286442
Co 6.066456171415971 2.860503544626775 7.02706838416448
Co 3.047125644314717 8.362927224485464 5.412342380841019
Co 4.646299673860391 1.4738685869153654 5.630041136518701
Co 4.347685295362785 3.7743841791020794 5.690140688096465
Co 4.643439816241884 3.1105850412451113 3.3980941387282555
Co 5.143237736689967 5.055320111195452 2.1378091306526983
Co 4.934903368775796 6.763969060255612 8.663712647896853
Co 4.658872492998894 9.083318368579908 3.3819655797867103
Co 4.563004828189971 8.639022614568297 7.294934412356848
Co 5.830425809888353 5.430949033021659 6.830868588904635
Co 5.567882568718137 4.248240762661983 8.84311322901821
Co 5.471664443895416 5.311658424958101 4.369240998625847
Co 6.040649369103518 7.205387437699787 2.9355676378873907
Co 6.698724788695201 3.0965868632796107 2.3454608018439487
Co 7.576969334487813 4.436730787594381 5.499439832477898
Co 5.191807001195985 7.59831261218562 5.202421669525141
Co 6.476520041496768 2.471403255103659 4.627138869550345
Co 7.801538234614743 4.166577112613424 7.837413339149504
Co 4.837534574959675 10.022751323650711 5.444001982444474
Co 7.166393816843213 6.163594673292773 8.7959849598735
Co 6.340896451544277 8.755364812153116 8.914205157462003
Co 6.718915668902468 7.577518102300762 6.991069110537643
Co 7.406034542270467 5.124801330926803 3.079227825996558
Co 7.507783632940893 6.851500803616493 4.774198446680596
Co 8.565066527510504 3.1954930103712957 3.808881331803947
Co 6.765682240034338 9.868358072796555 6.846099353974531
Co 6.815209512370039 9.117941444753514 4.542917050413129
Co 8.146276350367787 2.3122675395377463 6.192326641521194
Co 8.539260929105142 8.022427327684778 8.32715148279247
Co 8.648624244996324 6.179428823056423 6.7807382540631425
Co 8.594447185152747 8.547034139010055 6.013009851688063
Co 9.324843512928675 5.49554615654142 4.512796370447002
