48
Energy = -282.68171145 eV
Co 5.903068096279899 7.317959858041625 1.0515395071401639
Co 6.468503569766687 5.0564348487951305 0.9961166890113465
Co 8.112410978379831 7.585808292245138 1.3683934189505467
Co 4.213504183379359 5.802455843901629 1.7679915315028307
Co 8.693457778973766 5.425954464086011 1.6297557804367393
Co 7.508694519830422 3.6600947276801508 2.6938696875856647
Co 4.830066059500753 7.784002789876338 3.037273482390482
Co 2.6185077389420695 6.852285108285122 3.065229378379237
Co 6.952292327835266 8.623837642000078 3.1740450594108354
Co 5.216796304222786 3.9911971435789786 2.776456142706408
Co 6.8467419738387445 6.232560294217002 2.9776785539948865
Co 2.806276422616619 4.422331025671512 3.278297832171834
Co 8.87362198679169 7.420911371465306 3.5884645613236006
Co 8.950001501708536 5.038135236806574 3.905124551728432
Co 4.502238528211189 5.700829774890821 4.167699801523008
Co 6.12710237185917 2.415285017313347 4.2886527800627885
Co 3.803417937393493 2.5243540770633253 4.083086630337437
Co 5.4537557517175905 9.431162797079619 4.987322738536689
Co 6.750961109446111 4.68602237805738 4.7754456119831135
Co 3.5833495254297048 7.929573750906527 4.987225532052066
Co 8.394509567133586 2.898309688651685 4.758123248017778
Co 2.2706133998903755 5.925282355849828 5.16802253202607
Co 7.756376381894249 8.846992007419052 5.361837511809294
Co 6.058218577118734 7.216243281355243 5.198131054739131
Co 4.774702206648526 3.7784070712057973 5.908823459159037
Co 5.781919931812949 0.9658957896207142 5.952883990588664
Co 4.2975567944342306 6.123042378633328 6.493831783495589
Co 4.726869657199347 8.40200820459688 7.039584571659479
Co 8.727950398968188 4.444159002951272 6.462361014390944
Co 2.4514802451645723 3.701298389560248 5.67515579278491
Co 8.265378547716583 6.526605512511297 5.616190164769691
Co 3.6113104716527356 1.6328046397541542 6.185928321157081
Co 2.472907087540464 7.521391836216495 7.016335971253905
Co 6.9469697455638535 2.96643378091171 6.5905026486232865
Co 6.624905025667555 5.373379206035833 7.04237420727674
Co 7.091981434803007 7.719943323207586 7.336573087336731
Co 6.463832659618966 9.904834093994216 7.078034687322606
Co 2.3678749327917257 5.26617583618804 7.545254136210795
Co 4.637828550551552 4.568019071902975 8.245108237678393
Co 5.168466402387639 2.2295965720524835 7.847036466453488
Co 5.665718963496936 8.562625030069077 9.082267363665407
Co 2.901360624654504 3.0072224240772303 7.935268043746202
Co 6.227520077443948 6.350583005438724 9.07392705392505
Co 6.712879442708704 3.796231200613816 8.850241959168336
Co 3.9555363354917477 6.810326787420036 8.827723910913713
Co 2.8889726860950637 4.753152085451816 9.744772334617782
Co 4.447564342003068 2.9128909905318556 9.936693847680807
Co 5.169971463172444 4.970894611566483 10.503287948050113
