43
Energy = -249.49053232 eV
Co 7.338269687206575 2.750775094651106 2.9680014221171622
Co 5.47890106960739 1.8747549881390242 4.288838438477487
Co 8.968280579942068 3.9426824204290694 4.181151199519458
Co 5.766396509289888 4.218217400951509 3.811718401787763
Co 3.6209899181456415 1.1549374736947293 5.606001652309569
Co 7.219298790115421 2.9852606844319576 5.36247144190271
Co 3.759304938486242 3.3023569363575422 4.800022828944128
Co 5.218019426934833 2.4769974428763764 6.567976319741952
Co 8.512808053261095 4.488600662136204 6.610397925926116
Co 9.91860410140328 5.7820551453675035 5.312419780616291
Co 7.546966626206808 4.986189447445139 2.429152859111502
Co 6.831219451251422 3.509422775170462 7.969177270028131
Co 5.33655155914201 5.940328287516668 2.1822745119041156
Co 3.5293741176256965 5.127597943478817 3.5726745038796595
Co 5.961441629963572 4.8524553990251125 6.252801430967854
Co 5.251925617238765 6.53367080654163 4.506104637827352
Co 2.8961279345410227 3.0627140905890404 6.864650064683859
Co 9.797158049202835 6.564358015429136 7.578532466238395
Co 7.603497921190733 5.76497577439693 4.576723179931701
Co 8.390208501396263 5.151203768920764 8.840238816609515
Co 6.906438648573719 7.450465735723844 3.0357026048532245
Co 4.498873827060361 4.1408189267672295 8.084503444148112
Co 7.601529331450749 6.587361838645517 6.879780695249934
Co 3.535999165551864 5.388352905411746 6.124913623119291
Co 10.939021386858496 7.731906411692452 5.9308607166742755
Co 5.15404017540279 8.826463211656419 3.8437135901766433
Co 8.983852977771589 7.713807545522744 4.540625482029817
Co 2.09655923949559 4.836474052097155 8.059504509931882
Co 6.179670196273089 5.785753377786143 8.592623732675934
Co 3.567178980998142 7.3569421887290405 3.012015779478054
Co 1.9122560154630626 6.361024692823821 4.583780975710018
Co 7.914728112159936 7.488728242841165 8.988471904442685
Co 5.2531507360346685 7.243023959500301 6.855918710328418
Co 8.923442931028758 8.53595745107066 6.728114774261444
Co 6.875594119802279 8.25417058876903 5.274291324968358
Co 3.4669093664518704 7.838142363316383 5.367798744690522
Co 3.760004232178561 6.340074716053258 8.465636049895819
Co 1.972589123933346 6.919525814781045 6.9645292203946205
Co 5.421113053302962 7.977638666652379 9.152905079759513
Co 6.800836627128989 8.986565686586907 7.56545075457457
Co 5.025019890944599 9.523243198032981 6.134251116320125
Co 3.553312791006329 8.562012434065856 7.726152824353369
Co 5.060704356904645 10.18208747469886 8.415662155362199
