41
Energy = -239.27421925 eV
Co 4.2937499002431485 8.640730663610292 5.936176912788013
Co 3.3214260460197678 3.8766542172691545 5.022384480497787
Co 6.40130003764418 5.1000727149002705 7.213304312678623
Co 1.7833346041214815 5.323139357299451 6.513036337037174
Co 6.546926081627863 9.095148708653522 4.630189866247551
Co 4.006707014373971 3.291809077917071 8.84717674732327
Co 5.452115879018119 2.3579337245498073 4.531248753523192
Co 8.803317865201631 5.133154908142281 7.176146831840681
Co 8.437289763023093 7.678464462963215 5.932449952554886
Co 2.5182971027544867 5.249606137346919 8.80428687165901
Co 6.834740687673319 4.487680402370993 1.4840779608556702
Co 9.955016927551936 6.106801368811166 4.934654216965407
Co 3.640232157658348 6.4460904564536445 5.344804438750586
Co 7.7659927244008315 5.4916276159740205 5.167794510153745
Co 7.269826827224149 3.267027721077835 6.075630058676278
Co 4.707713289444848 7.827003590213351 3.712907006627547
Co 5.115577979750581 5.312346745725286 9.234823367124783
Co 7.492187079145447 7.050638395023724 7.873327678120813
Co 9.36328440950847 3.8523623342743694 5.116007850904351
Co 6.376188179251655 8.934917888794136 7.0511411368925545
Co 7.265975832721294 3.641851698830238 3.7087281751132695
Co 6.327967617514938 5.992249077365231 3.218284842377166
Co 3.8971822384070745 5.639212190166887 3.2254460526780013
Co 8.023702294558905 7.523080385529919 3.6903071943478456
Co 4.922296087810046 2.914441996068631 6.688270279214072
Co 4.3373439299067025 9.101483931857466 8.347464541034068
Co 5.1647890116512505 6.272261412995386 1.3157654264615941
Co 6.384098866953806 3.254357430145646 8.513157787305976
Co 3.9874808304722813 4.973206856884313 7.10708624627028
Co 2.45372278107474 3.189637744075965 7.116187574964503
Co 5.067005218325056 3.793905841797879 2.766236615499165
Co 8.779483594469152 5.369610242080929 3.0399308094389927
Co 7.433870925892104 5.282781563618435 9.33531335699708
Co 7.703287158161187 6.581976483423993 1.3466538687190523
Co 6.0988738457237845 7.059253526586925 5.487971543491381
Co 5.448639104734333 4.674842119705506 5.007239875458128
Co 2.748738965508379 7.299337191848804 7.388219526081196
Co 6.356563532713214 8.233534742220293 2.2379529501311413
Co 6.053617102057818 7.454045763052829 9.61961353144949
Co 5.039896480160078 7.071474485980187 7.588839167895103
Co 3.6603606311792904 7.198160550767984 9.538639806001369
