49
Energy = -289.97276839 eV
Co 8.77503607664908 8.230696271135127 5.098527662882999
Co 9.695887568906747 5.9201040613627205 5.326148939165618
Co 9.683859354151974 4.86372084729133 3.26468157893862
Co 7.961286697702673 10.420182610358184 4.8623663003272695
Co 9.075915897318302 4.604196641170871 7.306910682014071
Co 8.034167465494818 6.455709343153408 3.690154766732343
Co 9.036393113209305 3.589281687357606 5.121610975186139
Co 8.361041147293014 6.946759822508973 7.008855238551054
Co 7.173496003972183 8.735132879750598 3.4931623500197038
Co 7.395527701829769 9.19726434281136 6.744677658467112
Co 8.071761159916806 5.905704379914497 9.08750721713315
Co 8.281901227951508 2.3730254662705303 7.034724279739514
Co 8.018473427034044 5.392543576266377 1.5447458412912802
Co 7.42716525865378 4.132171779660666 3.4212674674269543
Co 7.065104666360943 8.073475945475886 8.735313992411665
Co 7.4173647231646695 5.155792163574472 5.656224282994193
Co 6.465850401925308 6.99404248799681 2.013876869675431
Co 5.537237818810631 5.653714213543584 3.9594547759890935
Co 6.48530302922261 7.465416980645067 5.423431679193812
Co 5.771271018241596 9.693143347799069 5.155170143752622
Co 6.9599771265719745 3.937283839918405 8.11471111488376
Co 6.881115864056812 7.117805683761994 10.7973668362457
Co 6.831748456515928 2.702709040694179 5.261759178334732
Co 6.209486080110779 6.20684455227667 7.628711317461711
Co 4.971569307282076 8.005866198972333 3.5266453317463142
Co 5.770785660408876 4.737480096409404 1.8049111215647153
Co 4.154116822907046 6.652570372593965 1.8286967460039547
Co 6.031597865823431 5.197745035583824 9.909502684700099
Co 5.191093788071101 3.2434538497430427 3.5223872822567692
Co 3.530325704825376 4.331563143030599 4.938131452634621
Co 5.3643714459270715 4.207079115378153 6.309566257238795
Co 5.829259751554572 2.036622269497434 7.318979008461948
Co 3.4377527967272674 4.6144666478905165 2.669884969170715
Co 4.973055675620934 7.195236861407151 9.390573991927052
Co 5.082138681265556 8.391396156695889 7.260037870023804
Co 4.243966757529837 6.405481817271543 6.12224719320904
Co 3.6817429714149097 8.574386486542526 5.3088060560864045
Co 3.119298891383944 6.56570715892621 3.98571972232655
Co 5.068745249446516 3.0790568595421774 9.28015751582455
Co 4.416756667108172 2.1267316375084055 5.389937716997921
Co 2.8740028763285945 2.533892383473974 3.584471092080593
Co 4.264281152920222 5.038417169498695 8.339690620188328
Co 1.425647077259006 5.144550937360796 4.698645205410034
Co 3.054430627066542 7.078200380069085 8.059853704340497
Co 3.606311807910283 2.9953422604986706 7.391471076713107
Co 1.9341783388251972 7.1336701084480305 5.971465439733195
Co 2.7897487725132124 9.145926676321523 7.263526715140163
Co 2.3605000025007143 5.009496640450477 6.885491937208117
Co 1.926550903825547 2.90747464749549 5.731177373564042
