44
Energy = -257.61407154 eV
Co 1.4114922192979598 5.355422773322756 5.029820433980668
Co 1.6743213465567122 7.531012966182298 6.099396195696492
Co 2.1661200155213978 3.7329345585662903 6.76061139240965
Co 2.4565732036688455 2.998924095805154 4.668095978340026
Co 3.1374763371920107 7.217066084063688 4.259470145020285
Co 1.1856803130121376 5.753143521660226 7.473228446720132
Co 3.5072916544067847 4.95674201451868 4.032146460857224
Co 5.119842912393081 6.564082751712071 2.9634273375926923
Co 4.550319920977358 4.469425958525999 2.0055019726426675
Co 4.2993893101583955 1.5621256305066604 5.722931703378635
Co 3.8081786739443295 2.4219891917130107 7.800143517067953
Co 2.994758098392148 7.207774252427494 8.258110182934788
Co 4.458314576216467 3.8628052962189736 5.968188303485962
Co 4.06793125648692 8.163030211727929 6.269419884540431
Co 6.267678568219426 2.915739069943467 2.0946029509668933
Co 3.2301214117697046 5.858048740144143 6.353793058696713
Co 5.085475058697777 8.613722921367113 4.139257868075937
Co 3.3035190199106754 4.746176611488591 8.481290646726709
Co 4.470158675378777 2.633615496624905 3.660210471427748
Co 5.937069016066671 4.351718273280039 3.9929072185196692
Co 5.326264275994489 6.430186176467168 5.277584981001832
Co 6.851914096979431 5.262978457815377 1.983841731066575
Co 5.068109873991794 6.173416991831766 7.954264405441038
Co 6.289808727421178 2.522522411407631 6.58946184701837
Co 6.65649812581714 2.140355686004592 4.385876211457943
Co 7.20067948055556 7.567639992712808 2.7019111151740693
Co 6.624134996699511 4.869816817445496 6.415433364515959
Co 7.639956759428273 5.8949916364642 4.336299538823265
Co 5.06301497807016 8.522877737945247 8.33910415424566
Co 5.5212085687880625 3.9237005879505102 8.313227486165315
Co 7.205466735003663 8.194112537894977 4.885108211337553
Co 6.913696301590021 7.314682874440008 7.086729977334181
Co 9.020254241131425 6.0164483301169716 2.4544693475818944
Co 8.155856971242955 3.7692336951065 3.2593400131200663
Co 6.6502973887033825 7.230985143496076 9.458148594102843
Co 6.003822785732546 9.437983081164068 6.401422163135306
Co 7.51556008088058 5.30041313548312 8.424796777090481
Co 8.275337139980925 3.6878731398488496 5.545103818198511
Co 8.851401569316335 6.0532723115416704 6.429649294758993
Co 9.382900519349624 7.410862471664122 4.445555401067126
Co 7.410500680333931 9.204243519180983 8.39006199771085
Co 9.863648502092262 5.0631077628128915 4.47325356465261
Co 8.857277405074171 8.474676217016059 6.489976223587348
Co 8.825902120039597 7.304157475764683 8.527266190662022
