42
Energy = -245.179967 eV
Co 7.232872851365369 9.696248376869622 7.445309943920589
Co 5.628583180528949 9.167093226018759 5.850940533667228
Co 8.757792903471032 7.870865872173442 7.704125546469011
Co 7.782255021720985 8.356677551918503 5.483324298713856
Co 6.887633324011524 8.523510058967288 9.39746397204267
Co 4.3378891222541895 9.971410467538467 4.230998747387051
Co 4.909854166049176 9.003335384127983 8.117323030729795
Co 9.539591581092479 6.831039313207484 5.8032381280896566
Co 9.720275027938683 5.722390588439996 8.103855890512222
Co 6.1932797799682335 8.547482178920731 3.556700599147314
Co 8.32802053509207 7.149164876112039 3.546304145665847
Co 7.6149802764211385 6.244589110164747 9.081061905866441
Co 6.508770607904741 7.414923600252002 7.318585645455506
Co 7.005926532700752 7.634669085360308 1.6777671322642593
Co 10.22100306418812 5.81101012160667 3.9470035055394885
Co 9.831803071189048 4.511772145133525 6.088900316663142
Co 3.3637530530331294 9.063170194485943 6.3571373613889
Co 4.117271569443064 7.74395471267408 4.501009111518288
Co 5.102984408766602 6.918984837663551 9.150117674903022
Co 2.926207624891618 7.6041362312166205 8.187889598361721
Co 6.2736168258554486 6.528586954135008 4.858870483351805
Co 4.410796310601 6.518973286296117 6.73091281680358
Co 8.162137962832004 4.924111928509876 4.477614806718104
Co 7.781843116666518 5.514791117539982 6.765954870601754
Co 2.279644655337958 7.0282751337490215 5.925625922760558
Co 7.217192145934919 5.451634429227769 2.415044651679352
Co 5.171189823780558 6.520444534377371 2.7577855229381694
Co 8.068563490637395 3.9023918978666825 8.380951062652713
Co 1.3253436181799287 6.026277713024297 7.852748347320813
Co 5.872371192701483 4.847696049018103 8.278257140392617
Co 3.432981972092304 5.3330412288498446 8.617127508859664
Co 5.6622019283904725 4.403143003985468 5.98689323562146
Co 7.892952300465651 3.203950937977343 6.025930238468883
Co 3.9089381725730106 5.434357499221128 4.57268049785042
Co 7.635088446542563 3.0067837018123145 3.4564424809955807
Co 5.688607369379576 4.238678539973089 3.613705338109891
Co 2.671889451802464 4.807944287694339 6.430939916887272
Co 6.235033555621461 2.591512270552834 7.472687943655995
Co 4.0631107932401855 3.318685570346831 7.464267589550352
Co 6.005284353494912 2.288257703877064 4.967177982950413
Co 3.819948535080664 3.122981062714765 5.089183409233773
Co 4.5223942240597514 1.31293116370078 6.42201909159344
