42
Energy = -245.81172993 eV
Co 2.248628393921055 2.491576134247704 6.643641415578243
Co 2.298158995902856 4.752461939277406 7.474201461623263
Co 3.471070624392602 3.1374968474163976 8.710140487103914
Co 1.9259743563673655 4.398556582187968 5.180442197653632
Co 3.5192998177996015 2.690743833961545 4.5769651113020835
Co 4.469329276928656 1.3083827181786367 6.245736515457849
Co 1.6193753039668761 6.651544896546336 6.15788908420807
Co 3.33586093619898 7.23790209188848 7.6402006612482865
Co 4.305665539022139 3.5265724600571753 6.6274684738148
Co 3.506534370741483 4.78313821817053 3.475342048645844
Co 4.454416859255425 5.2965032946936486 8.340878438451828
Co 5.59407233965352 1.6609522223962254 4.218035315454521
Co 5.857446604570636 3.398038274400623 8.408187232047535
Co 4.545599671524183 3.0629171097057295 2.450703487818717
Co 4.832200277834008 6.605288164805697 4.101516141926483
Co 5.759740656751361 3.984241435822298 4.367537072750911
Co 3.7623021864075743 5.69045037308497 5.893244290488433
Co 3.6858548179186714 8.202146093098325 5.59968453625329
Co 6.52500368857575 2.5295546146452805 6.2659537944779
Co 2.448535199521154 6.74234928628385 4.015909493888375
Co 5.662838224287716 7.106458905896049 6.5947024459509835
Co 5.180508727180622 7.535543049615111 8.972440903751263
Co 6.7643633621136114 5.762716667661988 8.669909828299337
Co 8.042105599985552 3.9197697280381436 7.788351494910187
Co 7.840321639558326 2.4020496084500085 4.335921231302579
Co 6.798830281501608 2.952253236430989 2.3689398193517532
Co 4.016330056829129 6.558083676719772 1.9218226098373805
Co 3.9086639218862294 8.520793170691837 3.2179982645093834
Co 5.8177799339053715 8.738137778734561 4.72847274223479
Co 6.252047948354091 4.8810391536746405 6.561082621183446
Co 7.04349070319273 6.291505289173742 4.55436834360044
Co 5.97521620917514 5.271440400819982 2.4120326321300034
Co 5.3537508542175845 9.268774468642086 7.019680886760206
Co 8.314934328137017 4.360771025380905 5.503525350129317
Co 7.215105044950426 8.08629597896652 8.111908682862206
Co 6.034725724178107 7.7206287792738 2.4499331535585687
Co 8.236488801232491 6.2261166713907965 6.875805448318293
Co 8.167834232827522 4.569327844576495 3.254023597645649
Co 8.000369697049427 8.467924173307525 3.6197547028445602
Co 9.261454534481913 6.559172935548503 4.688426570610515
Co 7.796828428850059 8.223527392276663 5.876210418422463
Co 8.108213342709815 6.604716107435358 2.378163240144411
