40
Energy = -233.87232236 eV
Co 7.826184705719778 9.604834002762193 4.991767713639563
Co 5.861844926271567 10.501889528632965 5.631020427228621
Co 6.478028620636244 9.133836852730333 3.2127550873742914
Co 8.375633900909932 7.807814684431197 6.273213224655645
Co 7.782932349159463 7.351156036203645 3.9596446881693073
Co 4.452989457038543 9.47371030192786 4.212402013377876
Co 6.849756150460707 9.300463829939124 7.402016462200863
Co 5.987952062598555 8.052792276798453 5.556841666146074
Co 6.858481898014877 7.092402894401149 1.8420634593134209
Co 4.337950960046378 9.201374255618697 6.8489079622963285
Co 9.420865779132793 6.033504777516322 7.518933100738314
Co 7.874505003511744 5.2108752074464695 2.9269680403395757
Co 8.689376703919496 5.608452955103797 5.253748555846299
Co 5.1074618721267155 7.252302087774788 3.3557223946821577
Co 7.841359980210394 7.553183463881212 8.601914659687413
Co 3.5492392513263997 7.634117874671216 5.19165648706674
Co 5.448786603019951 7.538549896539559 8.092901208265799
Co 6.8315567557366945 3.129047059890072 2.604690195213519
Co 6.281717675873276 5.597771991859336 4.666828211062459
Co 7.041487666678109 6.041358210295882 6.981037117115162
Co 4.583258443756609 5.956015211124441 6.428725155389035
Co 6.34184077375894 6.639681886641482 10.087300617761018
Co 5.610725593083849 5.1262752055883745 2.4168954148011235
Co 3.8697894900670935 6.563006482335331 9.527141308476816
Co 3.0589873503924294 7.373787608988645 7.5321781927440234
Co 7.5959391362205055 3.5509130773651294 4.730051473789487
Co 3.8551953149605294 5.436197219877646 4.1662425452418335
Co 8.329980330678552 4.016245891260866 7.0111093268009785
Co 7.769353924985094 5.139355271952474 9.055851747019474
Co 2.2043430206858807 5.776228476253013 5.905656448442145
Co 5.931074770516879 3.9165892615403006 6.489411834446994
Co 5.417677307512915 5.088630464462941 8.631355462620851
Co 3.1121419159554007 4.9700109096055805 8.0191799870318
Co 5.195984122497672 3.4663101531730245 4.190443295611343
Co 3.5406475497951555 3.8498146150824906 5.942132455291467
Co 7.229344779567781 1.944604294097443 6.450708080459226
Co 6.746199343333889 3.053725648571268 8.473878597265683
Co 4.41171667460079 2.9717946031687097 7.950899961956989
Co 4.90757957461784 1.8648111864569692 5.926757379418036
Co 5.715333984335558 1.008082122368492 7.899319805215007
