45
Energy = -261.90134207 eV
Co 4.961960373095219 0.8458369106566633 0.6585831853428176
Co 6.610993834671516 0.2483035673986627 2.3879630573050092
Co 6.885880029973952 7.316674566452378 3.262126825137844
Co 6.215048762289687 3.643988957361145 4.175647505574441
Co 5.825074891501724 4.760368631978453 6.330643279527245
Co 7.1140212216793 2.462103332779575 5.894263092258193
Co 1.0968551072438721 8.21018538601553 6.606901775607574
Co 7.7935010971928715 0.17976115454125347 4.651672711938764
Co 3.4073368908724957 4.188624843755331 7.1809581466207515
Co 2.518544584400333 4.810961314514906 1.2869352453927732
Co 3.298253304532044 8.618679594985412 5.931630536807065
Co 7.531681933572794 5.500765594243068 4.69856421800632
Co 2.795953275868051 7.508701228691082 1.9571758113308846
Co 6.135344498966818 7.172122652800574 5.689283091881668
Co 5.860246810475173 2.491570736392932 1.954185863458484
Co 6.051603287467101 0.2777551060425588 6.275809638475065
Co 4.4941351362308515 6.069734358845087 7.891215229392362
Co 2.005875635759193 1.204765586940417 3.562739709488951
Co 7.7905765594060625 2.188944486853842 3.303119472129582
Co 5.639791473293762 8.618679594985412 4.253382354113611
Co 1.9804768271431312 3.5788888996964707 3.2591736122832202
Co 3.8881383076142657 6.488041974418969 5.796113557980407
Co 4.01082348452154 4.219751235158569 4.949352717782361
Co 3.747665119961143 0.4866267580394739 5.141885255771312
Co 3.917547722038124 2.34119527731011 3.7510993318248516
Co 3.376042214768323 2.4140156166515183 1.4817732802891237
Co 6.702577491297279 4.875048724781628 2.2254474541040987
Co 2.0648687434748867 6.318733088072558 7.297468959454319
Co 4.4282691902638005 4.250897958171415 2.505997521582053
Co 1.0136254606020576 3.9964321067310364 7.084957757647035
Co 3.5410721394978015 6.347115902396789 9.593954224168813
Co 0.7215111832027288 5.6039419176754635 3.3782784798559566
Co 4.77102334086478 2.391792460346126 6.239422964222081
Co 4.242617707554807 7.913848334138755 3.835268963144272
Co 5.862673254367904 1.2900071379589129 4.270767984629605
Co 5.015394531005851 6.529506208243571 1.755489604232136
Co 4.928892962355204 4.446743166962696 0.3753681261763795
Co 0.10218677716104846 6.299846373866931 5.6431617402687
Co 5.379490025168377 5.870856943484562 3.984899168340337
Co 4.210636780438193 0.2635640860003826 2.7074734336020585
Co 3.0407550744198812 5.858564936795031 3.3533347681105936
Co 0.19738924161882143 3.66650072189546 4.848943993965513
Co 1.849073043252801 7.502079067440358 4.52300229857913
Co 2.3197955938771453 2.5445015146130636 5.586841916768982
Co 1.9262418756975146 5.0496411140986845 5.324391266607741
