45
Energy = -263.53942226 eV
Co 3.632417619485476 2.058110026821188 5.69558675474281
Co 4.784742009206224 2.153883091023255 3.602610759518105
Co 4.8183417111893005 2.6477425444549856 7.622966413120837
Co 5.9881334818186085 2.0847096218608736 5.6566303225708525
Co 3.756414161271486 4.035474938786763 4.5167741548075755
Co 4.979092200617183 4.308863028711972 2.5183665464453173
Co 6.5610658416143295 3.7224015318309625 4.0587174183059425
Co 4.974290648243568 6.022472954169969 1.0776985650882704
Co 3.1342484829352792 4.1704852322480885 6.813264574445706
Co 3.5337864537235837 6.088735610970962 3.0578575314666625
Co 5.398299276178731 5.821678752656479 4.364320904863116
Co 3.1290726836153704 6.125952826776536 5.544890653183017
Co 5.680176466226891 3.0581198562446046 9.690636104936702
Co 6.895671235584643 5.945218047704509 2.529985438748039
Co 6.761653029820496 7.656394720826073 4.600833753898803
Co 7.779292268344196 3.594142314380489 6.135831184936485
Co 6.93231241009287 4.301434050859642 8.254166927696623
Co 2.911364024918388 6.429448498296825 7.904023391377215
Co 5.4733600770831075 4.382656745187794 6.207272175834928
Co 4.142582092710178 7.962006928286807 4.542905725782525
Co 5.33784787217227 7.650798196855603 2.5773824255618174
Co 3.592511592322916 10.111647943077175 5.071868741707328
Co 7.11113944247876 2.04923547140149 7.770222183103326
Co 8.781472576289897 7.261748686085919 3.2998369333201745
Co 7.236263402595662 6.013454627165248 6.470485108342521
Co 5.030674679803047 6.893033871639569 6.722089720921196
Co 8.183594827685337 5.320311409712539 4.440544513303344
Co 5.654825829238798 9.730180298813293 3.7990911612952054
Co 4.43206830772401 6.929024841253398 9.63637542051281
Co 7.753139733207192 9.630756700696747 4.983521803400741
Co 2.8904695306990993 8.526485181679174 8.9672213731816
Co 4.638707312194369 4.940817421401534 8.460127756146525
Co 9.110797957867408 3.6743807756437916 8.124374215267881
Co 10.375993883499483 6.011936801563957 4.5091728189792475
Co 3.302974998796803 8.500972105980491 6.7489785422948225
Co 7.346651638869595 8.84234966090653 2.5847723435617227
Co 6.064254464011472 5.257616863322734 10.363056425369225
Co 5.160877150559343 8.679236815533207 8.310841095990611
Co 5.489600689225003 9.370488187736296 6.060201303686819
Co 8.97736265771108 7.530691632780568 5.6025218734031945
Co 7.295214594298527 8.36200345511923 7.0406076514999985
Co 9.496662398189823 5.239250721795606 6.53706600185224
Co 8.861155984076678 6.915972137452847 7.983867580099906
Co 8.387633900144564 5.4081613087657425 9.58778793115006
Co 6.57267193350598 6.745951903143987 8.684616056891779
