42
Energy = -225.65466416 eV
Co 12.289149683817815 15.225889920518732 14.539382211506728
Co 11.519233197219789 7.939770349152966 9.582222692481903
Co 8.569357168238897 10.729933007566409 9.428791046554943
Co 9.0992267980568 11.576640475475914 11.878646514534637
Co 9.278183556739837 9.263401518769792 4.946395906244916
Co 14.436179232460264 11.395933206072247 7.73662373483838
Co 15.015045076438708 7.288268123543462 7.687342900200459
Co 10.645477097303209 11.657688684122865 13.896627864968002
Co 8.475085027283567 12.24249284792447 14.12079141054985
Co 7.642665078362013 10.389901984348828 13.301445760030678
Co 8.95690016500375 9.175976452110238 7.170075867839706
Co 3.2821621268845615 11.99374729885198 12.940606800698543
Co 12.899666193799638 8.353691674217878 7.7057896973214755
Co 2.214648938973639 11.589497065677927 11.059943589703373
Co 12.690920665623297 6.527991407276384 10.939166637852088
Co 13.591630634803932 11.532787009741742 13.909804369271475
Co 6.985626012808604 8.842580314662138 9.541700915331724
Co 5.1329604706112075 10.693626578253935 12.685745334239114
Co 12.189008898569266 13.197057405534345 13.515490276629407
Co 10.638707802187502 10.165742360170483 10.50846232704173
Co 5.475540671394771 10.740480765955748 9.214642748741106
Co 7.013638392788603 10.19835649961209 7.723384186170015
Co 6.572430048169589 12.4012653828484 12.65906944386066
Co 14.297601555256742 9.382642963072358 6.261630336019725
Co 12.138068167278883 11.229970685914536 12.043373422964878
Co 14.139006796230463 13.679321913721457 14.587194222539294
Co 3.3179680941371013 11.175591221798754 9.128758041423781
Co 4.439243884434655 12.03750194915894 10.974451868527522
Co 6.780361480165459 10.799163491189246 11.029669519576121
Co 13.14403730735764 6.2687660239553455 8.634760828415395
Co 11.162678256365252 8.953647039445777 6.215441968594619
Co 7.22616777546697 9.673501513572997 5.58576899796572
Co 12.566740358834553 9.042484981954415 11.487208152408227
Co 8.544152434550659 9.31604802562179 11.346373356687236
Co 12.529970758889796 10.647064253276053 6.864973171827427
Co 14.04648583152536 7.963696386988196 9.955204581877442
Co 10.436520967263037 9.706291873416632 12.753020929063544
Co 10.839361591803769 9.968767571669764 8.260721918636785
Co 14.953935453050832 9.405136201373272 8.46692252311754
Co 9.275618295978123 8.388495412571228 9.264747489381698
Co 12.908479781626472 10.262829678631284 9.40019971567426
Co 14.281457408284522 15.812053114293455 15.01501074806019
