48
Energy = -281.89414345 eV
Co 2.9694958556152153 4.1285940301734625 9.268705072620753
Co 5.153067243087147 4.821464026857316 0.14052309980911543
Co 5.682044956513032 7.189478765338497 0.7746321629131392
Co 3.784087207064713 3.4955236388843693 1.6551764693709625
Co 3.4153108206466882 6.273004499982876 0.7548248607832196
Co 7.209783389044389 5.562908801303579 1.5429538001696974
Co 1.613421406167508 2.4308170296107168 1.5222850417362819
Co 1.6527632926560811 4.784627775364725 1.3671831861222277
Co 3.6128295160510486 1.1714531119089822 1.5054609470534939
Co 9.272649038714892 3.6588011056207064 1.4123803925041878
Co 6.027458262627498 3.2990691360820312 2.1370492052919463
Co 4.9855166172212355 5.5952861503675635 2.274852302805078
Co 4.140255040001288 7.725148261745776 2.6923737656372393
Co 6.514518084463334 7.183486531123124 3.1395828790411606
Co 2.1878403277205525 3.5633678831077975 3.5842045341962154
Co 8.560898459305044 6.252912335394619 3.7849933773460096
Co 2.1191659448594464 1.1137980024096188 3.3896298126423874
Co 3.885951208227588 9.186316587057744 3.311174434199253
Co 2.6448723980854663 5.991247975651172 3.1572322890925273
Co 6.792343170512849 4.843667224152311 3.71321787269885
Co 0.09968681055325733 2.6410440112205062 3.479724707485527
Co 0.30854723735361383 4.992321331295071 3.214606819961872
Co 4.4220845988012725 1.8133670526305072 3.5459933041127623
Co 4.526628508576838 4.099892760886289 3.9462544114439293
Co 9.272649038714892 5.945621444494108 6.026269720204183
Co 8.337289059114973 4.10233350114203 5.132616242924156
Co 6.5439550207292925 2.5385509984403276 4.356627901913006
Co 2.936907128228919 7.64688663922073 4.842649494205705
Co 5.785349019821365 0.3014406034537511 4.618076844304086
Co 1.38589165871259 1.9105184832764703 5.447886571858387
Co 6.998973213937073 6.302166051007727 5.673469354759852
Co 4.879882445756641 6.373926145852544 4.649010901705247
Co 5.713271972981779 4.249517989754141 5.986962151978994
Co 0.9409786322977423 6.467436803013458 4.937712552884894
Co 2.8350043239982208 5.2187263404616 5.378716610371594
Co 3.422027016553796 2.9448057731282553 5.660987030211021
Co 5.807352878664456 5.80989905884454 7.779831411804213
Co 0.6021965127046413 4.186305018318915 5.3846109143707555
Co 7.722009900338304 4.644146434581786 7.288973685186942
Co 3.428196128854439 0.5964257727726703 5.382271413845567
Co 5.337094002577625 1.7797705611461414 6.320253663188394
Co 3.899202023704537 6.755176206869677 6.8147002959140845
Co 7.5086586556249815 2.423378746646736 6.567234444594868
Co 1.7000788147098431 3.5762021355731104 7.261762426136613
Co 5.734771043199601 3.294597813804781 8.118951972553976
Co 1.6755094130519548 5.939926804131694 7.2011387226223
Co 3.8362571316303677 4.502821897829271 7.527441622103707
Co 3.5769453484189437 2.1334905262641057 7.7884990795173685
