43
Energy = -339.85338933 eV
Co 7.520648298626299 2.772471366134152 9.203933304496282
Co 7.633067553135712 1.0115708191184745 8.217819303055824
Co 9.451320940722441 4.311465628393178 8.274958358486119
Co 7.092311722948238 5.355429589470823 8.82942375516862
Co 8.78041624584225 6.946517712015018 8.057099192859301
Co 5.150379628949407 3.78732786712408 9.547596894071685
Co 8.51587206277237 2.5918211593633314 6.832466697077217
Co 6.573606383265537 8.135559687573178 8.710756196738428
Co 7.814739041597466 9.063933303877386 6.911892147446965
Co 6.334958352493555 3.810071864590824 7.063309869148425
Co 5.219783145317175 6.429784589631492 9.74147190853618
Co 6.4000501961584675 1.30275796766215 6.008179779758821
Co 8.180411135159709 5.113229556502699 6.2585871312473085
Co 3.0262594071306532 3.2605117349082477 7.701760620122894
Co 7.064210077820401 3.161091294368375 4.728689088235855
Co 9.184364153253279 4.006005520403302 4.6041771364739805
Co 8.250676907182557 7.482211402142226 5.365759395339142
Co 6.358000930895086 6.7428709345027915 6.650955331891388
Co 4.4181094072745415 5.37241829223438 7.635587229734579
Co 5.58117715692692 9.07613741407846 6.253744921548962
Co 5.224368068225973 1.8654172441495416 8.261616066738965
Co 4.484315128730539 2.8370379336189435 5.706557024305549
Co 5.166164903352629 1.8078656612693107 3.610303457703917
Co 7.494558123156271 9.65113448203789 4.466840020546386
Co 5.364109426521498 5.024452639068405 4.97428313381378
Co 7.529483404504199 5.532605975836372 3.897726484361237
Co 7.751950368455732 7.5767123156885425 2.689955356927605
Co 4.2269691893607195 7.974573125013329 7.9904246281960924
Co 6.058688071575348 7.557525767462058 4.006950322362587
Co 5.82521743164045 3.821748395749408 2.6686382921950162
Co 3.2317808966185306 9.294675078845403 5.8173671703086764
Co 2.641594608572537 4.675781778622514 5.663172594643498
Co 3.979230705360418 7.03588231342777 5.511171172992558
Co 3.3954176059416046 3.813449134304867 3.580032149599938
Co 4.941300097233903 9.846705953162973 4.025200047998188
Co 6.750308270534909 9.937183845660543 2.5965436632925787
Co 6.489299874808651 6.039416479801603 1.639286204715209
Co 4.331256089365033 5.942390806021126 3.0224511889471155
Co 2.043909773688002 6.557243878379265 6.877718900567459
Co 1.4512805192773477 8.172959473677684 5.07198607130305
Co 1.9948687899998492 6.202129977161054 3.9837856179653435
Co 5.251145012833566 8.404571350480058 1.7446353852755905
Co 3.515920289571243 8.388848083268304 3.288686180602547
