40
Energy = -231.97230768 eV
Co 6.074904623747711 2.2772351775840116 1.6957598361483812
Co 2.182035681083199 5.332571746855698 4.615129083358068
Co 3.2338628408374364 3.2680011334111594 5.115897645933483
Co 4.874077611457273 2.765777179745489 3.5807131157902066
Co 2.0008390325845844 7.171990892032504 6.277852335365616
Co 2.725931342937572 8.718858911803169 4.634267822101793
Co 3.21648260040791 7.0865293922175 2.9294627798161
Co 4.110509726200768 2.8987597525246382 7.270529688418193
Co 3.3080116005362106 5.1059705189969895 6.695099057204538
Co 5.656419103039928 1.9215795038775645 5.599427551426763
Co 6.304006603261591 4.358016920683807 2.467963665615019
Co 4.252898150203612 5.006720829397343 3.4846383173977764
Co 3.9318352782892774 6.746300380205997 5.071343856832761
Co 2.9351928533992986 8.983641508758227 7.3732346348957165
Co 5.316336592264107 4.230170622974668 5.593510587968097
Co 3.6676231548972424 6.973487883193449 8.190238748500771
Co 7.699183227312189 4.3435217541271545 4.3363359478587284
Co 6.428783465444001 3.0295103792581908 7.6196574622661135
Co 5.129212870405623 4.846889087047229 8.199467012432828
Co 7.134715225701042 2.213870902033962 3.694569734722549
Co 7.891289853254684 2.6344230388756027 5.896462648882097
Co 7.424184225114877 4.910223793597699 8.986863760593454
Co 4.617471606215886 8.900933038083272 5.924916899757268
Co 5.502799949713576 6.5650445465153275 2.2161272525611775
Co 5.4774465024615715 6.654183981693154 6.782998174176797
Co 6.242228861960687 6.271233364365837 4.440641319207489
Co 7.363387021124859 5.032099971535421 6.648675917951323
Co 5.893350966929618 6.739316290746682 9.2851814440494
Co 5.120690602646067 8.331820956295164 3.7097643061884935
Co 7.959647885127958 5.9641737141836515 2.7481804861323957
Co 5.409344201984787 8.625253844001813 8.040116236618742
Co 9.524044414935089 4.548488713513994 5.769016746756613
Co 8.874493692194775 3.5135245869153504 7.80640900272696
Co 8.2310297703952 6.878410992542665 9.741197228816278
Co 6.804263592262356 8.345348632429577 5.645309586306923
Co 7.462039526873641 8.058825341163809 3.4519528795088084
Co 8.459753428710288 6.648858024568019 5.311384321960763
Co 7.543005847889082 7.3337679861213925 7.615266281246861
Co 9.28650342480007 5.854974540104152 7.755863371710158
Co 1.0664416662986622 7.2459687909243975 4.114851875699273
