48
Energy = -284.57102604 eV
Co 10.215159506671084 5.802370211824586 6.8889768701875935
Co 8.254077785780494 6.572369925084295 5.698709764163874
Co 8.220318133649414 6.017594099273677 10.58401244669627
Co 2.7414555031148926 7.992439734676663 5.875042408025234
Co 9.475571682718117 7.814780409381402 9.59927385399167
Co 10.147511149923927 5.534505334261189 9.282893072613536
Co 7.0957228768612834 8.236680361422586 7.150463885018108
Co 6.940398022557571 4.437642577236855 9.237754028455646
Co 5.930850497468558 9.804793121810855 8.536086096471118
Co 11.433869016855992 7.606248082982534 5.895776511815598
Co 3.8229295758277746 5.8108646652357665 9.26943453211445
Co 4.936521073152746 4.182357433510582 7.876949348858745
Co 4.6694836366242605 8.287457350053046 7.140200085973996
Co 7.107778337168716 8.514731354795646 4.733396463766405
Co 10.731292804764262 9.887057758515956 6.143977580453007
Co 3.8619648982161916 6.374407582207813 4.478358627683844
Co 6.98285558867238 5.0368273772277306 4.229264219720192
Co 4.70695748588069 8.597917201170159 4.691197815136895
Co 8.235089279248715 6.269411084010405 8.197889644399911
Co 9.50484054291168 8.400742149795999 4.71326875958936
Co 5.844673077576364 6.977108983889533 3.318207568934999
Co 5.813050051674736 6.666991599772641 5.69836156968539
Co 4.668429901499664 8.016502488081494 9.597573391639083
Co 2.7246787746611507 7.710915639802949 8.271231064740157
Co 8.958558319510283 4.31000793530661 5.467612651686663
Co 9.532165742375977 8.107821445730657 7.157507152566985
Co 11.418762717186546 7.317347364702068 8.29641588192518
Co 8.358076894258096 9.721341502676653 8.57911971132777
Co 3.780578310282155 6.05521773130644 6.870894193711524
Co 9.60527975630281 11.401150919096258 7.5545679529010235
Co 3.5794809719202942 9.888829486026635 8.489083484487585
Co 8.369410348489314 10.012616610643446 6.131741923727952
Co 10.721917237666352 9.59269292174293 8.57282024322957
Co 7.0728602547374 7.933417855034761 9.574467049816146
Co 3.588638672100087 10.164234444136294 6.1818307947402635
Co 8.274212444119671 6.890543752322999 3.318362586850333
Co 5.792516370153312 6.117626918734259 10.566112432824193
Co 7.189274033950758 11.49158472074357 7.543366430654837
Co 8.935744451232484 4.021279506162386 7.901072769806741
Co 8.866097173796883 3.809148396954509 10.2482852940667
Co 4.955427196122951 4.46749269238672 5.469205322026869
Co 10.182503253671888 6.116144278614852 4.497669320796199
Co 5.945293866537034 10.095503677798975 6.160655468333204
Co 4.946411118502613 3.980839831757435 10.214967683101426
Co 5.794128530251719 6.366848179177196 8.183997240928724
Co 6.968843101653682 4.676594643034712 6.736134680448973
Co 8.941186548039425 4.664682730034891 3.125141638534562
Co 4.994269107486606 4.812993585699048 3.137676810274037
