42
Energy = -240.28530853 eV
Co 10.087088616047511 4.039552506743911 8.136850666597585
Co 10.072765285393576 4.265884499065264 11.025370382765223
Co 11.590035063928081 5.004430912793802 9.475297697383734
Co 11.217503040458705 7.127870864859495 10.129667217897486
Co 9.641796591580373 6.543232254388509 11.748944574776257
Co 8.386208572913493 2.8276308632399876 11.515030292334572
Co 8.239965367421977 3.6473489807193307 9.416053924311681
Co 9.156174638318676 5.834476092255266 9.609500628255214
Co 7.555982088438322 6.683801013092065 12.831882273087594
Co 7.782052628082139 4.985665288082505 11.431238028838724
Co 10.380210640303224 6.46340191072921 7.784213800872926
Co 9.498284473034245 8.439190211406608 9.657428266821118
Co 7.581090531277791 7.370438280839002 10.714565361968877
Co 9.817105464826144 4.663992523211775 5.966613464505122
Co 10.104939630116377 8.665859732234239 7.192185198859868
Co 8.08495543281478 5.1426780965552314 7.426788435745238
Co 10.49149205145506 10.352392912613439 9.179649287424883
Co 6.790702880385669 5.592594906169348 9.266201285680637
Co 7.1803043341734725 9.423020526635273 9.745266215907636
Co 10.83280730785547 10.777895681202041 6.9920107131005835
Co 8.022445775446107 8.807408525730082 6.0261886385594865
Co 5.105210908918701 8.23059471094485 3.2050188907920334
Co 3.6973595276147435 9.766103769222735 4.464512616444566
Co 5.721840058322728 10.54923604723588 3.6561234891976304
Co 4.585132077794589 11.919341262492003 5.0588594415686785
Co 4.3963787779882875 10.33091980260866 6.663134889974173
Co 3.0795365234684944 7.809873717142079 5.347528278733366
Co 4.963614701729671 6.60084841483615 4.899001503016728
Co 5.669888921908554 8.839947372888247 5.314775346508074
Co 4.458317523948471 9.53685453997685 8.891237268397049
Co 4.378770966717202 7.940049741300116 7.1789739988302745
Co 7.709915589214595 9.530655740791646 3.901238589292806
Co 6.643704097099268 10.961714466568173 5.824650174987674
Co 6.346585260594778 9.38039558749242 7.615536704041749
Co 7.116736774915851 7.290457260764166 4.285380548007804
Co 8.95024867061024 10.82640975607105 5.634138200648068
Co 6.389469349777103 6.765504108283422 6.732034965889646
Co 8.559478656693885 10.25176141369853 7.940428747107338
Co 5.765547752828842 7.63334967840466 9.134294667140576
Co 8.009432717768988 7.5674537609208485 8.180364727256707
Co 8.967063906217408 6.754030847599094 5.913992105052478
Co 7.320850211123804 5.2047248077192725 5.236821880943874
