46
Energy = -270.80524761 eV
Co 8.538408947144452 4.873393114449034 2.8199970541535664
Co 6.944978271156985 3.9305455354776155 4.18011540547571
Co 8.958954335637198 4.3442952594436175 5.2601734403424345
Co 7.353887332167835 2.2304106105706967 5.663153506941727
Co 9.489353155832376 6.514232447125226 4.03046912719708
Co 8.139604542328206 7.102381349844888 2.02584518700744
Co 4.994328079665898 4.325023942177274 2.947318964654769
Co 4.91358327275851 3.009197876216363 4.928728029448231
Co 7.5547417853945396 2.5514043820998666 8.047181551806059
Co 4.196054000505394 6.567830632575747 3.4605831997871017
Co 9.070485146717282 4.328795363018833 7.695010821785161
Co 6.585373182346873 6.064918721298943 3.2718234617696726
Co 3.117689826144117 4.629447883273701 4.407422567424752
Co 5.450365335837307 2.2994537072067502 7.067858764574281
Co 9.897369413175278 6.174941599811471 6.421130889208223
Co 5.193633614403346 5.326075771889551 5.244609965260267
Co 7.828145526206978 8.309707419248555 3.911968116019766
Co 5.761398759403789 8.06714249726209 2.4986900826996687
Co 6.954597069188146 4.286552476656074 6.598459749835626
Co 7.6821748185130625 6.349601779608676 5.49079123030964
Co 2.403036271985061 6.993038367506516 4.777413263620048
Co 5.585543574533506 2.809528153008934 9.38679242749709
Co 3.1891499636656357 3.316508005535249 6.433839158962162
Co 4.805355356000811 4.423989209572105 7.7508759752619385
Co 8.020823949027916 6.394271010012796 7.928225947815684
Co 5.746830846814129 7.750017083861251 4.888393399635594
Co 5.936465832928472 9.922540690374474 3.85773983452295
Co 3.840831980508119 8.854980416830344 4.160186294491635
Co 3.4738842575317617 2.459746391208234 8.561562725601044
Co 6.904980736064213 4.656615668228483 8.989237216080511
Co 3.8885538628533567 7.901435438830312 6.364689982033714
Co 9.311182257885983 8.32632370101693 5.696093151765428
Co 5.761446744722662 6.553345679183626 7.1639176836777105
Co 3.1005163115609067 5.664561681910961 6.527806526827091
Co 2.6614640341614617 4.592952789615463 8.628723752390341
Co 5.32842266309414 9.79222338423316 6.07538921603614
Co 4.634221229901568 4.91414065601067 9.982305367161995
Co 7.698256370108273 10.199025464031335 5.354943773673954
Co 7.211486656900754 8.449167353369935 6.766275052964615
Co 9.605227754286632 8.000536983979956 8.017009580142721
Co 6.06298682685216 6.7870619975066955 9.486101533476841
Co 3.881546902257548 6.6890166168314416 8.566856863290434
Co 8.909438837924245 10.077548789509928 7.346061703004304
Co 5.228180881756792 8.661186398177334 8.213562709618653
Co 6.704630310439777 10.518772884184347 7.844788808720074
Co 7.507538557143934 8.590128190853324 9.035880947655462
