44
Energy = -258.87024359 eV
Co 7.899825038239324 5.546176441013839 1.8278943007732074
Co 9.144389270121922 4.697350021321009 4.154197954047704
Co 9.10788202921089 7.013070962930386 4.136079090579329
Co 7.455618421862281 3.5038640640985537 3.1569823702142474
Co 5.610894628578911 6.821412472109686 2.052233567648326
Co 5.74298352012753 4.480820554782231 1.9063828401094502
Co 7.5072736965335825 7.858030967124204 2.7497928639853133
Co 5.542516212582 2.2123627495966702 2.760930420508068
Co 3.6527188618942072 5.5089417900003035 2.6209717217141812
Co 6.997371157287093 5.829729002761482 3.8422499533209855
Co 3.553097130344428 3.197474816505392 2.5078371632336514
Co 8.476709771773278 6.071570109964351 6.101004493106417
Co 8.797458542639012 2.3848403366528768 4.848687512471177
Co 9.218524085340244 3.8449311361847998 6.672201874596947
Co 7.302515204400802 3.993469859783735 5.500989864055117
Co 6.923627254259121 7.878982437151038 5.149043482902983
Co 4.776034238226637 6.7628826012783305 4.268479755162096
Co 3.474042611688465 7.860884894285134 2.6063007577923663
Co 6.399722720830723 1.9971702611712348 4.891043266373862
Co 5.49406154139427 8.86173659906808 3.5387333222553274
Co 7.086403986192272 2.434730374507239 7.233172594428542
Co 5.065512307047939 4.205355696637572 4.1698209757053135
Co 4.007291695053773 2.1895177176392617 4.777126787873324
Co 6.07309097871613 5.781045615610562 6.086790074216599
Co 2.3596441381114395 6.559596197467721 4.408981248151822
Co 2.6103434765939437 4.208440583222357 4.375542708704935
Co 5.120934770882518 1.1323890971242023 6.602424308612601
Co 3.476715760606187 8.671175060385332 4.890235260783656
Co 5.058843856713904 3.5257010432214573 6.586212448414088
Co 5.392904445708044 9.712037465227379 5.736025776229444
Co 3.746037688968711 5.452937393673098 6.033955430136196
Co 4.863386561611431 7.6881820997473 6.552427581281723
Co 7.364910117180805 4.80158346366631 7.822207963854134
Co 6.998201000878757 7.308292211238268 7.559099158451331
Co 2.661801762816402 3.1834109531637904 6.45201523641654
Co 1.7513288911316418 7.776446035397857 6.236238451516144
Co 3.8701708079370927 2.1732716989894714 8.216769682570497
Co 1.550905029191007 5.358101896553846 6.517283799529631
Co 5.623474573070701 3.553325325821123 8.825467837934113
Co 3.335885361815759 9.235012936125507 7.261469416208652
Co 5.216813020402339 5.860165173163942 8.283915409516881
Co 3.351747237292805 4.4826377293879265 8.217686468665802
Co 4.903603287652977 8.114145400298899 8.770589504875904
Co 3.024100688130013 6.859362932010631 7.848658021056615
