43
Energy = -248.67449731 eV
Co 5.834339964959611 6.52226046768228 4.224936647952919
Co 7.897549667252214 10.35430324788918 5.188315759018983
Co 8.715794629931553 8.36819435835751 4.2594020461758095
Co 5.408018722840789 10.28771546226752 5.201612381747338
Co 9.470380496485983 12.011740302746189 5.782140475430276
Co 8.080867373001082 6.406078082430888 5.342789355614091
Co 6.570819002435618 8.352142837437551 5.313302012357039
Co 10.189859443566167 9.732144413246235 5.917338638042934
Co 11.00187274726358 11.177917996259218 7.489254873692032
Co 10.424741349762252 7.382024439790384 5.40770403437797
Co 6.039397944484261 5.9224077354243105 6.365192224413579
Co 8.499796698128316 8.364213967518545 6.723954805748982
Co 7.3618200527760544 4.2774101237032465 7.018835089162243
Co 6.49608605134975 10.112794342379377 7.158479834037582
Co 11.938328519677277 8.767235185330872 7.021704275725888
Co 8.704710107591744 10.957257508387002 7.641430117613796
Co 4.399179566245248 7.590918488800548 5.785188051843983
Co 9.494622181996021 5.15558572892082 6.692605143472451
Co 7.984649410589198 6.469798357411776 8.032608129518433
Co 7.124138820637014 12.166426573542777 6.374962426447169
Co 4.2825292871564 9.408305617393138 7.116854833061699
Co 5.333864541147279 9.590283506235096 9.24473168895526
Co 6.921489936044302 11.354189972571962 9.113570366303176
Co 8.650783281214332 4.368685804586709 8.880571573650549
Co 10.239702423674604 9.214106665252249 8.480278811604537
Co 6.007084949882646 5.568094786138038 8.788226465736177
Co 7.801116217332182 9.034909599073783 8.955465806776404
Co 11.089233733185914 4.939454861534192 8.517225916755853
Co 5.998718046489666 7.819386951058351 7.604535885011024
Co 4.174480351912962 7.543570866729653 8.929575508654443
Co 10.592457719893588 6.9876866659477175 7.605239580641924
Co 10.381171539268063 3.1767328090005353 9.651474248585693
Co 7.787856811954444 5.812784407465771 10.563621069471473
Co 9.026923476240077 10.721366938412812 9.949345343757027
Co 4.766552661546771 8.573967020665096 11.256313972678916
Co 11.63588983459526 6.986622971854469 9.6923001660015
Co 6.3062100336543425 7.501183527167986 10.03483467565398
Co 10.144590154792219 5.2649458522414685 10.626570471322188
Co 6.545257942206513 7.233764991438757 12.276588312192454
Co 6.802901511133974 9.872426054236312 11.050399877920675
Co 9.406443072479899 7.319269316284005 9.63785631537348
Co 8.290722826233969 8.211953120040793 11.37254201235282
Co 10.27051523675261 7.211206414910476 11.803589114911327
