46
Energy = -269.82023028 eV
Co 0.9072609027645355 7.520964398049821 2.263457494398848
Co 1.606801400228387 2.5002892451782506 6.4786674109624
Co 5.032617310489418 8.034687726863558 4.362854287047218
Co 4.923934661233289 3.619179441809313 0.29280610409292707
Co 2.9882246139809325 6.789878587583787 6.228056228434279
Co 3.66909439864576 2.191804710312497 7.648596418826828
Co 6.146596109314016 2.843373777276541 2.1798470016642177
Co 0.44872377692238274 3.9647105084735776 0.1283796096356371
Co 7.000184829367521 1.6036193045773752 7.649529420932893
Co 1.2461956470187385 6.118916474228706 4.203867128139846
Co 3.759598756158062 5.604548068624059 4.448137424431483
Co 7.159886342951338 0.10106248573208053 5.779361163829524
Co 3.0073333559704767 8.03468772686356 1.3450899413328796
Co 5.004042884844383 7.602621508136435 4.939858154174461
Co 5.709116357772107 3.508698732911858 7.147122711238886
Co 1.4441702801498981 6.194379973888392 0.40220866446420817
Co 3.5121322767872227 4.605156575422484 7.611861130111533
Co 5.25619757707819 0.6177323706970477 2.1070474734005153
Co 4.508694495962474 4.409242073217541 2.4853563280979083
Co 6.714429075492286 1.4389730494916035 3.9560339732196783
Co 2.6202256560807027 4.183815220949857 0.8063437697342799
Co 8.174067902306819 1.5084372069195127 5.31211899970088
Co 1.9158778870802173 2.1152395793409196 8.20078370788246
Co 4.253780384937958 5.902105514645199 0.5738354016138564
Co 1.8155380111890276 1.6877588414707996 4.123840761582249
Co 4.315383266558461 1.9777607943991609 3.795918088172639
Co 5.725069422229712 3.702147376469882 4.637950466124186
Co 2.4498593950783456 3.8494058661259984 3.517698267461781
Co 1.0859940469425062 2.500990053496658 2.0585898916595955
Co 5.110765332134605 5.612001018662298 6.255962810729869
Co 3.530118840792769 2.137274936742718 1.6001110912184642
Co 1.8556793693563312 4.7558572092314035 5.911051363694115
Co 6.489819656061919 5.137417390945314 1.627880654989815
Co 3.663527602118038 3.3345327157410014 5.655294892759731
Co 3.0391944835754336 0.20262769674150743 2.8846547495996546
Co 0.5893730288743069 4.817072499360713 2.283115254901914
Co 7.709994986519673 3.9389229588877597 3.517770328374412
Co 7.56432741774968 2.6707739130130217 5.74930370330985
Co 2.643896451354039 6.0343819555687395 2.329901974843603
Co 0.34061951130402396 3.6553632050304974 4.4394121957515535
Co 2.9162200061903887 7.7972660567349505 3.86247734971652
Co 5.3602508071333785 1.4645904434091175 6.035784086654575
Co 3.198830502646181 0.7787958754079336 5.682757362848547
Co 4.794444934007424 6.983582273505975 2.5592782462199417
Co 7.35850827909511 4.966127818189638 5.833745778271007
Co 6.245967607590118 5.793794681708786 3.898850575787649
