47
Energy = -273.77826536 eV
Co 8.133331837671623 9.315720721933245 4.131450121857636
Co 7.025122963558289 7.405787712841576 5.040913352650179
Co 6.3566622348734185 5.1130643174214505 4.709696132330598
Co 7.731155186802543 11.387435705435081 5.072706249125242
Co 11.74209550136792 8.49552766202976 5.447455502234484
Co 9.611420778912313 7.8278246124114 5.118316057539743
Co 4.4265173381892575 8.409055939328653 5.393990653188614
Co 8.67121278010728 5.754794960177185 4.995819185753099
Co 5.122732939416892 4.110811139634454 6.614160718143276
Co 10.050988702536163 10.284410200241874 5.253539928439616
Co 8.787956460142082 11.777266335782945 6.988011492296403
Co 8.37330194474775 9.384733893055012 6.54363653097898
Co 3.0139303240885296 5.366318921945004 5.843968403160931
Co 6.2282918671307055 9.747271228745618 5.516582564122945
Co 10.967064225787754 6.440010657539751 6.546974330058243
Co 7.0912875237211175 5.3687438518695885 6.864799897899453
Co 2.9701131745376825 7.369256037048791 6.892839590750994
Co 5.04412906686992 6.384664022991407 6.11550056268533
Co 10.572640235639335 8.862592276908233 7.295770305991597
Co 9.36534400003736 4.468269681829716 6.702090916865184
Co 5.713220658039366 4.707767293132226 8.953728061503089
Co 10.974207960659484 11.133390286485822 7.330804601339581
Co 6.4588786612682725 8.067847084905951 7.146512056267796
Co 3.628850802058823 5.160439881789306 7.993274759842735
Co 9.269149858630392 10.652938882221232 8.919827468891805
Co 6.9685586192582125 6.62052153643896 8.94994419661947
Co 4.607128887516719 9.384123600028312 7.527762087742377
Co 9.777185573301907 3.065382827991483 8.42476438909908
Co 11.386736525474236 9.803300420752093 9.329734704594951
Co 6.77387729525321 10.541761126437201 7.733013687355444
Co 8.88174740613358 6.8810197427275455 7.248357666076668
Co 8.246195355461666 8.606226919434022 8.82768275990177
Co 11.039578720308254 7.442611631847587 8.984721556268594
Co 7.554588920003756 12.17763551875112 9.166827716395671
Co 11.816813470348979 8.197293038853172 10.972163675937963
Co 8.154865735528752 4.512091308003829 8.80283432201139
Co 4.625666112725962 7.154304486206654 8.43925590496786
Co 5.519423996223869 11.055488206905926 9.561602124619808
Co 7.266792921709157 5.289398225291889 10.86306785407389
Co 10.506501911968895 5.216355622940791 8.51973079699024
Co 5.923834303534454 8.820709192006845 9.48319679124668
Co 9.15506327994831 6.5278918466948035 9.886025828805293
Co 9.691079861376439 8.923175670178491 10.611005280944367
Co 7.532358861381148 10.175172249848648 10.526197654626129
Co 7.431552574165604 7.80789921044013 11.071003384391805
Co 5.330167391207651 6.569776432760408 10.567197587652371
Co 9.411205457548345 7.162448084928338 12.00207079293366
