42
Energy = -245.05140889 eV
Co 2.9425804394508863 9.277965439421708 5.147972200961952
Co 3.3787471531534194 7.20216515451286 8.153265132019426
Co 1.7660988432375546 7.625158328658972 6.428231485076518
Co 4.7845329771365135 5.3301870137965075 8.256658517049818
Co 5.977067090211923 4.127891806322675 9.829882396919624
Co 2.684911061187407 5.407709630949914 6.790472329621102
Co 0.972293265428634 5.8050585507665735 5.222757318465744
Co 3.6433663006587396 3.307924848695942 7.187780365269967
Co 4.0354968265249 9.146136728174069 7.167728183432918
Co 4.048251158680339 9.013975023705893 3.124447293260339
Co 6.432097213117705 9.584549245840757 7.100815155393452
Co 6.9231825369446724 6.082330690729869 9.09940983857128
Co 1.8714764305289129 3.545027659075775 5.599251395229818
Co 5.63858788585799 7.391003210260835 7.297213888211638
Co 3.874687548622105 7.099797794653178 5.685481688045201
Co 2.278317508856633 7.375233017088702 4.012315433306949
Co 5.953322238702112 3.27803372164445 7.658362895269601
Co 4.93179323826213 4.873544466930565 5.9014728166153025
Co 3.088321602145261 5.1579046119804985 4.413869501412419
Co 3.9795377584378873 2.9164601475755325 4.8900598082832705
Co 7.866381443966927 7.726440290239371 7.536784849191768
Co 7.026921655012337 5.385003419372786 6.921940214215431
Co 5.297270003890122 8.980174135386735 5.150861446390436
Co 4.484335608526351 6.823788912759318 3.340046634124074
Co 5.097732293428983 1.555209570954984 6.422636236588348
Co 7.809346298275117 2.1731198661913425 6.810957865759505
Co 7.646816957563063 8.622644059735375 5.317142427118872
Co 6.262812029013254 6.741485080917717 4.936714333855381
Co 7.952912760478619 3.952165239991633 8.597381815811083
Co 5.2668858721253065 4.529282422005147 3.567336158505567
Co 9.170310704942672 5.8852672394627135 8.048878605144916
Co 6.423756820848955 8.329621840260756 3.191845127678512
Co 6.3825094090473256 2.976956912665712 5.217714718403911
Co 8.968551498814877 4.09001048343723 6.323604643603403
Co 8.398478235025564 6.949194356362093 3.521533826097507
Co 6.547558787722711 6.098300995671163 2.427298405356563
Co 8.78502721162333 6.533701209697969 5.755947593951793
Co 7.497143183617196 4.827757106028598 4.358531710472238
Co 10.75851239953662 5.510529165419622 6.329978214183898
Co 8.607550077211332 2.832031649722654 4.4584924469063445
Co 8.62108647490751 4.926877808278707 2.3215334592915524
Co 9.826146280697339 4.938147743404862 4.2301650792487075
