43
Energy = -250.64651564 eV
Co 4.66546167893769 3.260646788029106 9.073728283277344
Co 4.4365330950714466 1.047129841972483 0.9913059537999422
Co 6.526843401825495 2.1041988523416215 1.1659707398222907
Co 6.382083407506016 4.491262641997056 1.203516811459058
Co 2.534881143712315 3.4347913835051966 1.3446750285106925
Co 4.050261196092766 5.249660745800525 1.2232538539326643
Co 3.3443677120436615 7.6321369559475585 1.548684451706405
Co 4.662122657126118 2.992307842037168 2.1801359270635734
Co 5.702819016424153 6.784307687683027 1.956865424648219
Co 5.449913322077728 1.0249767491986284 3.1592383877060004
Co 3.090769607577163 1.5119855792944799 2.9466184525413626
Co 7.697668915101007 5.226390764447123 3.2870466165952963
Co 1.924253814573616 5.631558968165493 2.2448584597884436
Co 6.95374145724131 2.892371690649667 3.4518301819444446
Co 1.0747455844820277 2.733323381296705 3.0562135252009135
Co 5.418589902494038 4.798199191601323 3.2264134974281493
Co 2.8829934092135745 4.058628338024025 3.678452782130104
Co 3.756666614976572 6.407273209011551 3.376476272033052
Co 4.686321370602678 8.522183298277714 3.389140243519282
Co 2.3494388207457395 8.087583364225363 3.870171102939343
Co 4.6967260671168285 2.7552839319039055 4.675988911138507
Co 8.703883599352347 3.792180809079882 5.0069978623105404
Co 8.02672071767758 6.13734515557218 5.605779462535116
Co 6.37673601870199 8.330544215022663 5.912675054770964
Co 6.458365892742072 2.261907672885239 6.096076624920473
Co 2.254410430431171 1.9503517518099216 5.077152996899181
Co 2.1432313492244424 6.049196679586067 5.149410876058415
Co 6.176160614469628 6.840388831361808 4.293128352957434
Co 4.465853244851937 5.3427503188380685 5.331480027407746
Co 4.0796095749132 0.5126978936182398 5.004111652175379
Co 2.990520263214222 3.891742672343376 6.18187386633183
Co 4.134717124177399 7.610724061259247 5.54888115754343
Co 6.556184377817497 4.397044396522281 5.22259656806916
Co 0.9390471528924142 3.95215706935144 5.0956174779839
Co 7.647023855838341 4.229683913784781 7.176200782669031
Co 4.0778223975315075 1.961009581738414 6.878254643015659
Co 5.989111901156161 6.2863548093003665 6.833253735250649
Co 3.5423593176621555 5.908800315992711 7.360807163655546
Co 1.3192004759490357 4.996068800724521 7.292601161025694
Co 1.426512287773162 2.515052145446345 7.205887178258612
Co 3.1720200708908957 3.7234355542095496 8.459940042785098
Co 5.239612313804919 4.001353164810444 7.247448147691456
Co 0.9683915359922045 3.6377056933387575 9.073728283277346
