47
Energy = -276.30572187 eV
Co 4.763492910592549 10.745794649447136 5.565397359247994
Co 9.594912637089816 2.904698201493126 6.637782439671792
Co 9.496330618181206 3.923731394712251 4.584373025790569
Co 7.614042548136961 4.1775573948693685 6.075046642072669
Co 5.693078391337936 5.167994266561616 5.23379417971588
Co 6.439772574685058 10.711331112813081 7.205306824492363
Co 6.2652842095652765 5.240222525221076 8.00886487630445
Co 3.377353467374099 7.676001221019081 3.163832072530467
Co 2.100902469130021 4.950680925001905 8.382363099508558
Co 7.511750466973881 2.081345041974489 7.280644915962352
Co 6.628378620878109 8.791320760986368 2.491005315795135
Co 7.281140894221739 6.747272812294632 6.299011846645702
Co 7.293641311502691 4.209839815078755 3.537891051081527
Co 8.371682079986874 4.1578844443295475 8.30225233490601
Co 1.787751570137284 4.884307743540166 6.092196835970283
Co 4.7071349009890335 9.136189669729369 7.623284877428771
Co 8.306853795363294 10.034299068564625 5.736237534057889
Co 4.997755935241796 7.042578377885493 6.652533367580659
Co 6.365515363127641 3.011990101490497 9.009984906781371
Co 4.312539389465576 4.017831705654567 8.958204694055658
Co 7.891907177133912 8.23524274704094 4.280069314372076
Co 9.490074630883827 5.452803382837745 6.5774127406138305
Co 3.6600624084232813 8.568841501206876 5.526871043701599
Co 6.190736440462612 8.949989198517189 5.74395875286312
Co 5.677751075149794 2.858533967167792 4.4006424483345485
Co 4.846479607797141 1.4602125512379964 8.0304607742584
Co 5.416792540222227 3.216930560952664 6.735017645552643
Co 4.933197905786363 5.177593672275685 3.095894770364194
Co 3.906176931977616 5.0301997785211565 6.907408758191853
Co 6.145238651943444 7.557076450748308 8.651959759116334
Co 3.844829976436174 1.6734243878226298 5.692467697477601
Co 4.112227098745941 6.396524905164152 8.802926186665179
Co 7.063713312762223 6.331681263772767 2.598877319959648
Co 3.6234951302052485 3.842463610291461 4.843778248301335
Co 7.7341129305002285 8.74605235230716 7.559048275183317
Co 6.729731672378326 10.584312487279744 4.172140798824418
Co 8.462622797570528 5.986562965124436 4.463322261039714
Co 5.1049287267677395 7.256505893648847 1.74918587684663
Co 9.346380597335791 7.768855038684801 6.105836834867104
Co 5.553776987251623 7.271337579500786 4.110166357743123
Co 4.727856230078789 9.45818048771445 3.6221870427097884
Co 2.9645017309566914 2.9574136962848883 7.371555992044145
Co 3.396867082665671 6.207963036648409 4.859180831256858
Co 6.017588519469276 1.0318172509494168 5.914730547202516
Co 7.901581342131746 2.1877101442334608 4.918054170357117
Co 8.359227208632865 6.513778795869192 8.328575313330028
Co 2.6133042897525955 7.013572756502677 7.044352861343979
