46
Energy = -240.24168991 eV
Co 11.120472975346082 5.078361021281133 12.8347811223032
Co 9.679585071381766 13.430639054982173 9.3261673183758
Co 13.960626752848356 8.078802279388828 11.948622218852316
Co 9.696564540886374 13.215113312403417 11.915131251471955
Co 8.115272784744914 3.6218987701915415 14.957802107590872
Co 7.050071930723527 4.71441095514224 13.482216496095047
Co 12.671636892370199 10.90794207708767 13.392593325737202
Co 8.902870281937203 10.623742998775244 5.609902456493059
Co 12.112070915471586 7.153126162863864 13.473026011815744
Co 7.255956606503897 13.025212249006618 7.2881196425250225
Co 5.833888921731237 13.779335940283211 10.838550946173216
Co 12.778518609253759 7.884255326620487 7.334985350195222
Co 13.501036431389672 10.183358030400619 11.238434257390697
Co 12.08550349686298 12.78894806798422 12.307854621993064
Co 13.907479321510335 7.73426167988985 9.688504319138445
Co 6.66412055188022 11.471908292473115 5.671835727782225
Co 9.068623690746938 8.950527390503371 7.133811929741833
Co 6.06247565845891 11.894257684865565 12.066267332205634
Co 11.119210995210928 9.476238088280502 6.035296234101593
Co 14.326241598719967 12.043131420674158 12.194456126210678
Co 7.1247200639126556 12.234226176409631 14.27602809031746
Co 13.278895348153759 14.603831769827437 9.404093284464494
Co 13.619796628237651 8.872662609637649 14.007364363882449
Co 14.797364907928444 13.395935264167479 10.378764745713484
Co 7.511094117916019 14.262408294843983 9.138413295795413
Co 5.341232111833471 13.206192175807645 13.704991959931732
Co 7.712346571953414 10.845063999753954 7.619749955793781
Co 6.237824182277781 11.920703426359985 9.243373539323661
Co 10.189493050099584 4.271543505405245 14.893787215698625
Co 9.120479669903869 8.392810872635776 4.966910118332792
Co 11.407220687839569 14.169924996379187 10.614739807724575
Co 11.882870168269248 6.609886845551386 9.107141331436463
Co 11.145439109104665 8.065372028291494 4.25421039905073
Co 11.610974701852319 9.111421497688916 12.477236208534809
Co 5.3183181872231176 13.22017568622431 6.113637563356039
Co 7.525248481978307 13.583118628732969 12.574867509422766
Co 9.04741251773375 5.663868997088755 13.573974154906034
Co 10.361083966259082 7.023405091260079 11.977706954771783
Co 10.753505522447146 7.1936291974704245 6.355064049127021
Co 14.104387021905666 6.283135525435817 8.068241400331258
Co 7.948551653813166 12.545105993160192 10.533008254395671
Co 12.56512427740788 6.460828396193635 11.286696600968762
Co 10.83520753172725 8.47911994103452 8.381413153986674
Co 12.850081525481212 12.297908793420655 10.257414434567618
Co 11.907328418299464 8.646804801232127 10.352278571592183
Co 5.441809294838223 13.98312791961007 8.384274789390425
