40
Energy = -229.98959208 eV
Co 10.487192900184398 6.054998545564993 4.551024717677429
Co 8.221915254859837 5.67571445154061 3.893009708921451
Co 8.984846003228348 7.663313037625674 5.106130225966546
Co 7.263135776989941 8.023088141160802 3.6576579396939857
Co 5.852386184947649 6.3065411204157815 4.239389526030709
Co 8.667592742273035 9.815307783915719 4.382105062459703
Co 6.584777665028014 4.09531192701398 4.7355699579190444
Co 5.237150094184763 10.11386640483431 6.703149191081219
Co 4.241628697715399 4.744205826002043 4.508629447953642
Co 9.305152743838592 4.693346564928616 5.895759438040507
Co 7.405219910753549 5.940950132294584 6.026761042903069
Co 8.245177155203262 2.749206867640958 5.456435055660041
Co 5.160010915198531 4.599852666363857 6.561139904611223
Co 8.20962509063471 7.843301957476489 7.380398957873832
Co 4.448748678509346 8.15529809457527 7.786614245119544
Co 6.174144352342179 8.070074999322792 5.915216873564175
Co 7.661454112465949 9.959753022985158 6.419183743887065
Co 9.926930529740137 9.222689587819177 6.61594589877223
Co 10.25448206243568 6.752685827154048 6.8942825961122
Co 6.317528541661609 9.984013434440435 4.576766170445802
Co 4.336602813791148 6.6186512690301 6.075849935828847
Co 8.744139199377168 9.92923500398859 8.58891380815104
Co 6.83169741022661 11.404209835002067 8.001824852160695
Co 6.177411662546442 6.4140832158376755 7.93147815832182
Co 6.390024538836661 9.129897888849442 8.50470519586465
Co 5.531310462415734 3.9702694571997528 8.804246329154367
Co 9.995709356129625 7.99246086539855 8.902331931196615
Co 7.300485772869257 3.8656317451836775 7.156511408549405
Co 4.058983724848013 5.829994625287089 8.472850156892239
Co 8.615639185903591 5.629846830165053 8.205113057060837
Co 7.187304656748643 10.658921205760798 10.176333646715493
Co 7.740547335709622 7.461416125920312 9.655165140029803
Co 4.628671219280979 5.131266743213384 10.609614141406325
Co 10.484285992100533 10.310609585446581 10.009291372234692
Co 8.01564938349805 3.6461549522298933 9.279011575924777
Co 8.78118003098751 9.080687890757632 10.845986708296408
Co 6.8306249073091685 5.411929169913814 10.056111585816323
Co 5.286219769830994 7.281330346326607 9.90441932113606
Co 8.958174960869664 12.036090004521009 9.46467376551752
Co 8.969258011097894 11.246812653465232 11.563418011621073
