40
Energy = -231.6349006 eV
Co 4.51288273877644 2.0645048004023714 9.217692800035293
Co 2.2961977657142074 2.9506633676474965 8.878982391535708
Co 4.16875008582869 4.449882338181922 9.556002807738285
Co 2.5745605533827036 0.8464950702961606 0.40387337033090215
Co 5.643295563537137 3.3296054115215106 1.4674237122967801
Co 3.2204158437538695 2.8193736970617507 1.3057070417468237
Co 4.725775548813141 0.9880338856043944 1.7909056131209573
Co 1.8912107332461856 4.762751456656183 1.2465385284260124
Co 0.9916073458074525 2.4611834014029093 1.254881729163175
Co 6.007554980350272 6.004052943001688 1.9893051830801929
Co 3.7837587436963545 7.243998077189168 2.1275582078053406
Co 3.980652703001679 4.9246065698636174 2.1880559663771884
Co 2.5690256085881717 1.133158672130937 2.9214343052148144
Co 6.409838051217533 1.7762712047492237 3.5869788331953685
Co 4.271417043027606 2.628548143646331 3.310398399275195
Co 5.771021006028989 8.182514048945274 3.2227838988245003
Co 1.8035372275774744 3.5039078627191844 3.272292207474795
Co 6.192832859024599 4.233957007221135 3.5846367538193866
Co 2.1106136755288127 5.941199330373521 3.443659805165737
Co 4.801181915092905 6.290898631165783 3.9684180670539377
Co 3.222199829514096 7.889738109111855 4.381166124984368
Co 3.621842029534711 4.452620048965622 4.487282396632591
Co 5.26009228390694 2.8133341315240044 5.342187770557019
Co 6.547622824418842 1.1394360493383917 6.012257749119149
Co 5.468984141124905 7.556632739107509 5.715003462706638
Co 2.693587739872815 2.2113196298567988 5.147859193717449
Co 5.789759283767499 5.171766766521911 5.920727591293106
Co 3.498731383562791 6.322512782280304 6.122093928820095
Co 1.565257382150778 4.486894506929476 5.5021550433312
Co 1.3771269728948554 6.811573966782316 5.509088727610776
Co 7.0516295449300275 6.354435441334434 4.255008093471462
Co 7.403896105590885 3.4455769704530286 5.522317811300163
Co 4.491637431632279 0.6998524391931517 4.616565086327599
Co 3.6923471000713715 3.91691014669454 6.681239847110239
Co 4.6689261561990865 5.493339947580821 8.017212985486257
Co 1.8630036021028449 2.7614085114304787 7.354565925365693
Co 2.2020668741932914 5.199785716618668 7.776829882964676
Co 5.8019096435084965 3.347475676660828 7.541687033640321
Co 4.1847409506960345 1.652859375876962 7.049096307819271
Co 3.5804913698623664 3.448903765488678 8.878982391535708
