47
Energy = -275.64953687 eV
Co 5.872773607482556 3.846944395736459 1.189595728541854
Co 4.110910906738561 2.2022142788398824 1.121120854842358
Co 3.282877480989368 4.490350361338108 1.056633946385663
Co 5.009258749112975 0.07246110319712719 2.1350466751121484
Co 0.5841453480854022 4.737395784815117 1.7109405488929406
Co 6.342491151025616 1.512012076628075 0.7009719609684731
Co 3.7729022750030157 6.451703614254715 3.6376958251565656
Co 5.7083240781563 5.975479245046827 2.34434584359416
Co 2.536937508199903 0.33720141193966174 1.8001026676543117
Co 7.2131817333781205 4.086556133672315 3.2297970540420224
Co 2.3894043825715117 6.514233532772736 1.7411038923553703
Co 4.342738882733852 4.047199023325617 2.989375918632205
Co 1.9938389336406503 8.031401836196235 3.449003498015185
Co 8.05042719431393 2.246568983600692 2.1227030094066834
Co 3.6529666203634905 1.5722833277203159 3.343309002993578
Co 7.201772416058843 0.29755632309065666 3.1143001019672534
Co 1.9282644426477307 2.751250452917979 2.0991258171976765
Co 2.136531659409475 4.820058924063584 3.3198032979906897
Co 0.29755991310515695 3.390707887123907 3.7518489632668053
Co 3.289187374484308 8.614640670586112 3.8323460146427295
Co 4.274408847376962 8.18979895964883 2.3653105809982358
Co 0.4643250776391096 6.217422381281499 3.7525682488711696
Co 5.858601108195524 2.1711827653246067 2.8493599088559067
Co 2.4221112667372586 2.9130855920533936 4.671171492721282
Co 5.385106840649284 0.5105927378510446 4.625711545447315
Co 5.904652664633395 7.583744310313825 4.230965757991025
Co 1.3460694200756715 1.0887215475639311 3.7946066331895194
Co 4.935778678491286 2.9315628512478735 5.054673124246451
Co 7.794336276696066 6.070345902511445 4.253022208387117
Co 5.682806124075216 5.211376916505922 4.5829747446539715
Co 7.210675070551293 2.0129791610464585 4.7594933596442734
Co 3.841358716657735 8.599759981512298 4.811061037479453
Co 3.440231885561492 4.786245230553774 5.373639336927039
Co 2.102003392975914 6.7982992020804724 5.44980653232492
Co 1.140620870464691 2.0371830107645352 6.197974328800579
Co 3.3137320959087946 0.983861656799291 5.724636302614239
Co 1.110487071534536 4.630437668603604 5.639596907197134
Co 4.509901499308748 6.705638555983077 5.985304359729592
Co 7.199782547760913 4.052835366658133 5.801969486484631
Co 3.244590031492058 3.081053741404802 6.954906642491669
Co 5.5217536005119765 1.7624349361349974 6.771082023771108
Co 6.767899863883362 6.484345579209214 6.357820084938428
Co 5.527377009248558 8.614640670586112 6.640556928349673
Co 5.220181225209429 4.52281761284718 6.983564162288325
Co 3.200838228607334 8.069009781252278 7.198532767055118
Co 3.039378046135077 5.555584353032113 7.498455519860389
Co 5.017238440232767 6.800446461989425 8.174805911139932
