42
Energy = -246.2576545 eV
Co 2.9307353425640854 7.451781832972105 9.19960932842517
Co 4.474471794616688 5.769248249609231 10.118935902578821
Co 3.6768313077408483 8.909106315097432 7.554924015347943
Co 2.0990931762776355 7.168427296813849 7.008393135671305
Co 5.147782662505822 7.295552104553734 8.45972507425145
Co 6.681773853096614 5.630350214815893 9.354823139827463
Co 3.5665674726498175 5.5620239062929775 7.946681075106199
Co 5.111287004366527 3.9233163704388936 8.848040857580049
Co 2.8263028120080325 8.662439826631704 5.26236996633249
Co 1.2898600118080008 6.984134507186913 4.798726295775065
Co 7.4243777408887075 7.1779968957388975 7.605352518899168
Co 5.899280611695737 8.842223664159134 6.692870764022617
Co 4.293570174094393 7.098935286334641 6.196457606635092
Co 7.348070095276198 3.3993690125758915 9.29873739702448
Co 2.7067764602332174 5.309660909038092 5.648455086868246
Co 5.848740562987207 5.402331242901083 7.129634237101568
Co 4.273279086353503 3.655398602951287 6.558203064992021
Co 5.057549292216203 8.57866427648434 4.442855199525017
Co 6.603963054340186 10.184139755098856 4.944076097385716
Co 3.452828595184384 6.801770434021655 3.9118131623403944
Co 8.16183021714142 4.8307114920758645 7.6052730165944995
Co 8.825102407271777 2.573679731621154 7.511919373471915
Co 4.9957141076987375 5.135201398587722 4.784767431040071
Co 6.580589426188748 3.095713462790491 7.0918619580094875
Co 8.925531970925137 6.373330236649148 5.840119434903921
Co 7.3382271971190445 4.574853834397452 5.323372394464764
Co 8.192613822825813 8.665310313828861 5.817357689496486
Co 3.4101439548582815 3.4626274603775644 4.271670573247874
Co 1.9497102149881276 5.082043404604453 3.4298023928304664
Co 6.6040741275127415 6.984365339875748 5.336484246806832
Co 4.135664343675641 4.943167223937543 2.5642870705196343
Co 5.7348188827592335 2.844049134989207 4.784412451276035
Co 7.3708058592959445 8.434286424593482 3.603243308082132
Co 5.752204604498253 6.692508312603965 3.0763312967314924
Co 9.565017744582375 4.0790102476905545 5.849781000163176
Co 10.279935308987746 5.51397997489296 4.117838321336593
Co 7.989560815041246 2.3211579051275404 5.361223717648681
Co 6.479148515751397 4.372545914869751 3.069234362513327
Co 4.935711813013019 2.753783225202516 2.610510953178866
Co 8.739467772482456 3.8565874129137203 3.595694997488526
Co 9.591057576210796 7.848393602110743 4.131398665885319
Co 8.083720037435423 6.1484719472344365 3.5953113607228055
