45
Energy = -263.57553652 eV
Co 4.017991569506453 1.2981552058213992 6.429435108320642
Co 1.0921476270963943 1.8407516654004927 3.3097372817000057
Co 5.640397020399638 4.902173135989891 5.170103169795936
Co 3.541082401309402 3.5675242549168047 5.861114969212513
Co 2.3754982517531635 5.7253008565370855 2.962145645407239
Co 2.4459413379098907 3.594574804994528 0.004135429272342389
Co 3.117469979221021 2.675092698686433 1.985200074054942
Co 3.959359227096861 4.924729725156593 1.2609168715105117
Co 1.1875156284740482 6.432883878724561 4.898586838973714
Co 8.214159038154135 3.5190523759329575 3.313129818587331
Co 3.9569246551239248 4.127125869673811 3.5544325938554984
Co 3.180773804763257 1.9478186330771075 4.21024943373053
Co 6.430395019733027 1.0909914367924969 6.109197537181752
Co 7.143383360171835 1.5150770415514967 3.712507484345595
Co 3.710847991859405 1.1426377262440823 0.4013595026685577
Co 1.0665779626702367 3.8326618724452124 1.9766671401444007
Co 4.872600901629531 6.328205412792742 3.2617975030569384
Co 5.160552058264582 7.225636792678534 7.732420532790663
Co 4.09206971680824 5.179411438534129 7.464567984211156
Co 2.9778352614118635 7.186712523076118 6.819391976019158
Co 1.354821896571971 7.693554344149014 2.409797377135199
Co 6.054904681438008 3.7708543413609084 2.591296671739026
Co 1.702893590708466 2.1830669585634728 6.037299931653545
Co 1.4067823527993872 1.583633895786756 0.9289644437467439
Co 3.025778007966844 7.758787487313027 4.103228261416601
Co 5.075937116539746 3.01892619426017 0.5657342061976014
Co 5.401626289766331 2.5351993675299034 4.678211019377191
Co 1.527796752926064 3.971193949338889 4.422561552072884
Co 3.5293815188363147 7.244890471206919 1.5811250784240403
Co 7.435105354189328 3.3969052790375462 5.45964039484507
Co 3.0521058217354966 2.9873019326448538 7.955585428840853
Co 7.10400473790798 2.0690991614506844 1.4396008790934707
Co 2.4413226170227857 8.11192555885228 5.005937842059481
Co 5.095540147248777 7.2424869395755485 5.483660983739841
Co 0.09728177836863315 5.670871085492617 2.9335198938308675
Co 3.3711447748025725 5.742406798276516 5.173281819729786
Co 5.543392149538636 3.1455671210803975 7.023229879262854
Co 6.105507423151807 5.7591478658219595 1.4254747144121178
Co 4.77714921754557 0.22172166018121583 4.446788839873837
Co 5.101279991839088 1.4221572991826839 2.428056942394129
Co 7.131133535992624 5.606684972229866 3.625040864055666
Co 2.845159655122966 0.360544439921695 2.56859729051075
Co 1.7918445706723993 5.756658327100647 0.7493712845396644
Co 6.430393073122666 5.300038029617198 7.198425605584245
Co 1.8024024970973032 4.894948797052226 6.716684266893977
