44
Energy = -257.33825605 eV
Co 4.1613400893265 4.594933636483033 9.459252422241796
Co 1.8087971396134794 3.9559445680283596 0.16742406605062224
Co 2.3938839335142363 6.299352447007544 0.5264535638535546
Co 5.950606377019388 2.706880463673706 0.11087993276227844
Co 6.530480163002363 5.0261455083291375 0.14216714250603832
Co 3.6883512169052293 2.4184242820809314 0.7912947888590629
Co 4.71812910333978 6.330402661492121 1.3553568468152766
Co 3.100955185177379 4.687850822905827 1.8647398061402496
Co 0.8111791138256534 5.018725064515231 2.219295960648628
Co 6.920885404032649 5.562092352204021 2.4336699686093857
Co 1.655684151951428 2.688657779922952 2.244475512991283
Co 5.334082373648037 4.031372192644943 1.7746209096207
Co 5.786784526358323 1.6877962906947497 2.515532387860173
Co 3.222538685240589 0.7855476050250895 2.5320249634697807
Co 5.766155247710372 7.480240339274201 3.1407467804477833
Co 2.4679157827361013 6.569047675904896 3.1585962308773152
Co 7.504872017667566 3.1807207374787945 2.083326691489738
Co 3.884382810819809 2.7932301878281165 3.0949256766772955
Co 0.2329166436311789 3.3858697610453965 4.111029583460414
Co 4.586637000570618 5.577502710340201 3.6775658047169166
Co 8.33191326799924 4.2845100041362425 3.9591816804874567
Co 2.2165550155499534 4.383881531700021 3.9696109850519017
Co 6.072967245858775 3.685552061660636 4.017275332959927
Co 7.063263510130783 1.8983825250791304 4.868888247187573
Co 6.979149970682748 6.123346630287293 4.722334614850775
Co 2.216158149739086 1.8764178870620152 4.504694129795963
Co 0.7648962255407336 5.656476942977802 5.137932789544276
Co 3.9013052902947245 3.465502841417408 5.204379884136555
Co 4.746315781852369 1.3350065860768503 4.748537541681665
Co 5.003598284169087 7.323970067696361 5.391913175880807
Co 1.5494940080519166 3.6349416241622126 6.16014324056136
Co 7.3690601258721475 4.023985720346295 6.089360148861266
Co 3.225083465597265 1.8576934235743512 6.721267482394186
Co 3.036843452010932 5.9695677451373275 5.571481692613831
Co 5.342747737575431 5.107233833026736 5.949825318743858
Co 5.569039987093426 2.5708617121495414 6.690999086413433
Co 3.639202730436962 4.169729655947023 7.3167348836527415
Co 6.61939456632072 6.625372291671319 7.065904528771534
Co 1.8260119401210084 5.542895997964883 7.542273053229953
Co 1.999798529662458 3.206521461863196 8.517921438623254
Co 4.2762533178329 6.376186353999332 7.662510622203086
Co 5.805930616352352 4.5680282822512295 8.157064375221028
Co 4.35026069659717 2.6343470715144024 8.801147805744728
Co 3.5030553858791933 4.833726928732394 9.459252422241796
