40
Energy = -233.2552444 eV
Co 7.609311105681142 9.677455884508632 5.208851710660478
Co 7.017237945037555 5.283222450862437 5.01124516658042
Co 5.325140526896535 7.407922082197788 8.948943588951483
Co 8.267441997238736 5.4086927046795585 7.151631215375315
Co 6.901172645422093 7.714226781457736 2.3449375942223667
Co 5.438095406765624 4.182670705035896 6.743110860985165
Co 4.75714145641923 4.064733624399727 4.354580196807532
Co 9.295770084642546 5.928074096269063 5.0515879033609625
Co 6.199806408207225 6.593127140241224 6.910730054884682
Co 2.890043540892851 4.7089974011865 6.003937669190431
Co 4.531076482795187 6.316807486767427 5.272101718032121
Co 6.452025510745222 7.703280898528515 4.726510926781876
Co 3.26838992283465 5.775611530065486 3.4027680447209185
Co 8.298329499984076 7.6403442665904615 6.306062199562668
Co 2.743586458775611 7.75633075628374 4.827539382199387
Co 1.3882107065702207 5.847672481654676 4.712198283627097
Co 8.079343947967116 5.801103689704468 2.9768667470891548
Co 6.400130851950946 8.881098916994846 7.036142748876594
Co 5.458980914748825 1.8676402384008104 4.425853539928536
Co 6.446159282140533 5.230970195433838 8.784293584893547
Co 4.8181978096868745 9.383430865225014 5.227714061812584
Co 7.161450138479948 2.9552034549167243 5.445730933564347
Co 4.429197241409562 4.945751865073988 9.85327273462037
Co 3.4625216917620496 3.5486121258256818 8.00665008168388
Co 6.720674898762748 3.7420549421349674 3.1656979592580807
Co 4.141556019982072 8.023511235988105 6.927878921135728
Co 4.516006903892008 7.9902363045185 3.3772764187819955
Co 7.657267557288683 7.352390711915221 8.56315358271915
Co 7.4957955969090095 3.274453030809947 7.732940547119786
Co 9.379047082540383 3.6269266517691396 6.281905734835081
Co 5.512569284243205 3.077232015953993 8.928641782703298
Co 8.84649144400248 3.8602234154674355 4.07892067748197
Co 5.646327789954764 5.90264539404433 3.082054040699922
Co 2.527279927089196 3.6042899589257833 4.040269171254832
Co 8.634935360074167 7.964506908890227 3.945378609064169
Co 5.707930053396713 1.8338468941438515 6.924063571793005
Co 6.232999773357622 9.63784996520353 3.337951076502857
Co 4.0471699751280745 5.817813321067792 7.824907881846897
Co 2.155686052818643 6.738799912463558 6.8120079276990975
Co 3.7579831890104356 2.548720179903151 5.862173634196144
