45
Energy = -263.57646845 eV
Co 4.955436249254976 6.003723512581934 2.4948258534061876
Co 4.098391583809104 5.368993258553432 4.960405318055292
Co 6.086290628907964 5.732322359610372 9.510108710274745
Co 3.004012750859531 4.597202486757968 3.1081808457592466
Co 9.332213209874327 6.978753339613329 3.25899007224627
Co 9.116531081258012 7.9753970414899715 5.574150920755708
Co 3.802122794624934 9.194217976133546 4.365126965480158
Co 5.249887842469475 6.429010244637892 7.084942851154601
Co 6.078533263266329 2.164335944622301 5.024285003389656
Co 8.467175766101118 4.864414606511323 2.925284131874679
Co 5.288110818468336 7.425154815262579 4.892573453300608
Co 3.26880722947097 7.1231327090071614 3.414946951637608
Co 3.0625410017269887 7.469661650203747 5.8002155386783345
Co 6.549104159770365 5.429488189785551 4.029736067326763
Co 7.18673570256239 6.742037816268957 2.0718413304190912
Co 7.3957607757006665 2.34412361801065 6.879713325733543
Co 9.660408173557455 6.457302650223755 7.249021909488144
Co 5.988314313933024 9.702443797144095 4.775410629077472
Co 5.544777588603189 7.976478952703744 8.765514005551909
Co 6.670898983321741 3.698943416723153 8.609302780876721
Co 7.232375542617522 2.7623798855542576 3.0092653158572777
Co 8.347158783663275 4.521253212571119 7.19652296125367
Co 5.10214721482847 3.665778392317185 3.4036285717057075
Co 2.746395632737114 3.145410380595769 7.4463529389928445
Co 2.297542052380849 5.080366284135825 8.989516066492827
Co 1.951358281617747 3.8680367297122067 5.164701479827701
Co 8.375049629063854 5.030170107597789 9.442692604371548
Co 2.5777224759422697 5.4119305858255915 6.802723047668141
Co 5.449275036430006 8.304715502124974 2.7027801619015146
Co 1.6519602884939102 6.0414330758330275 4.600939129156658
Co 4.633529421674749 8.905003334089443 6.727838764985892
Co 7.400064288313986 7.927293517862231 4.031062611805519
Co 6.927274350609614 8.497836401924092 6.594240243354625
Co 7.590866828041547 6.79629875599773 8.23055642142137
Co 3.3649875075823834 7.321197042240175 8.129787753154014
Co 3.9962242483756643 6.295606496815234 10.016221571097976
Co 9.44847511473846 5.539793338152012 5.058572192146156
Co 7.454504670837146 6.339967628468064 5.917636313143912
Co 7.953914745525706 3.69529582095127 4.960772485693541
Co 5.019290886247765 2.403168705606757 7.45933346717192
Co 4.026598325626934 3.069525298338177 5.476713722827602
Co 6.015053441305338 4.255314606649389 6.293939095868088
Co 6.510471123741495 4.46341012778374 1.6394925306624137
Co 4.423363254332403 4.553151951400413 8.301910735164357
Co 8.880356215627549 8.6105377095047 7.790236427683673
