41
Energy = -239.17076127 eV
Co 5.5567652029489505 7.489312723021588 5.3142172442076845
Co 6.316574439330184 5.927254197367783 3.7716353311294704
Co 8.897692205112381 9.719118013751054 4.4293989100970785
Co 7.663945427937781 7.741434198826822 4.380087229566584
Co 6.815102476294015 9.53576674214546 5.618998505999407
Co 4.139365095819744 5.741237247477739 4.950384634116527
Co 9.497466251074234 7.962362146227253 5.881731292283492
Co 8.455516856282683 5.618085981633492 4.922104559113955
Co 7.501966198901726 6.84434464309341 6.710506096506509
Co 8.749709856185566 10.901377419079779 6.403231075379882
Co 3.426698159913115 7.776476558990588 6.263936302279574
Co 7.937499786158406 9.106013640305443 7.592915482301174
Co 10.872224352187821 9.79469198665986 5.706506034116564
Co 9.862176551038822 3.874078433469441 5.507569429734073
Co 4.610432682820935 5.993887021304268 7.211926834116572
Co 10.364213546311394 5.789195488031841 6.606021999445293
Co 6.276029157453721 5.035160155202202 5.843313736563831
Co 11.520145061762006 7.847944983851623 7.178830216862704
Co 5.6081011296349015 8.145667100546959 7.638295004145805
Co 9.50090660436526 7.312648979422951 8.212640616327153
Co 4.588640933755947 9.75564157641317 6.340557263580991
Co 8.244136033565558 4.51812468383491 7.005019653973763
Co 6.375375184067743 10.860742924903386 7.505507792113367
Co 10.269724279185855 3.886710915321265 7.934266604396078
Co 7.381551837934542 7.302320056833513 9.145081360219487
Co 10.184185932412642 9.706228432917884 7.871898470910021
Co 3.4840838119743975 7.623179268429281 8.558212319856484
Co 6.462097277892791 5.300730331974571 8.397251642891662
Co 8.348398635079203 11.123609667376812 8.783631032689705
Co 4.364332622031671 9.800030641845641 8.683020203286615
Co 11.00812885841505 5.8288669824685275 8.956657191519822
Co 6.5783284567571085 9.675436128518896 9.53592874902662
Co 8.711946882824313 5.179395301561855 9.213210861277766
Co 7.346792074121696 8.181803186031763 11.301878417546435
Co 11.219464614582916 8.155547449408509 9.554787086448368
Co 5.286856342186653 7.729444999747479 10.064998061688858
Co 4.509391336828501 5.656506232824509 9.577496326609277
Co 7.896331643264956 10.594991384131347 11.12127353231781
Co 9.04448122669502 9.111297226553512 9.881944519833356
Co 6.721697668885467 5.8444164907344645 10.709109533406783
Co 9.297999294035874 6.905394445789779 10.610494830144967
