46
Energy = -269.60922037 eV
Co 5.22939838207024 2.5169551754964195 9.264210779305179
Co 7.725962807640313 2.5539649535066866 8.963699031500882
Co 6.059622362974586 4.3685158384731135 10.370534626857648
Co 6.21938209237408 1.9902257602744367 7.236973796825311
Co 3.826327996386654 3.1523438205921877 7.328092458456115
Co 4.108830840213635 4.694357377047276 9.001151514585283
Co 7.949093454215293 5.310100908024135 9.52508190972537
Co 6.403746506813681 4.192039915466003 8.079266599549797
Co 8.488713060737211 2.116236979510754 6.7395766519644225
Co 8.835697873460463 4.213608583634997 7.675521012273392
Co 5.731643136533615 6.354001386459331 8.961762603382107
Co 6.75826607129999 1.7273137062958164 4.907943709649284
Co 5.220641015756066 3.257013873542096 5.524790538989901
Co 3.0137401526038445 4.113706431409368 5.287978022479647
Co 2.4408659666707098 5.3218579953443115 7.177244321106997
Co 4.865099341726871 5.290085580237557 6.765579892246442
Co 7.506084585812221 3.989152501213996 5.718813951455738
Co 3.6324896693334554 6.990821040430047 8.074343559157867
Co 7.572662448902154 6.315014416865503 7.480779370728826
Co 9.864168361731023 3.8115592892199097 5.6067372681055385
Co 8.617068791254068 2.6945805472605158 4.032833405868926
Co 4.183631160175015 3.016723264425911 3.4814055321771002
Co 1.5724917096215507 5.8718099314862355 5.000800249429598
Co 1.7990347950844554 7.8794834399146865 6.192441277704636
Co 5.658121423506292 7.648959553436523 6.914267441492496
Co 6.495893377427651 3.639567439088519 3.4187787234123856
Co 8.424475560922298 5.003753037100344 3.698888176928565
Co 3.716768498375288 6.895915259116208 5.57619594405074
Co 2.7497723457353396 5.010558833267288 3.0493142739293315
Co 6.661468050261934 6.133282842072153 5.244526962524248
Co 9.017567704196457 6.010505531176598 5.6939270804433715
Co 4.868133397396921 4.514436655771402 1.850198962645923
Co 4.78715507885576 5.249217320207344 4.127405659627688
Co 3.760959569451934 9.03058684203585 7.01948000342716
Co 5.47792113651645 7.943230061850648 4.199144113165329
Co 7.731928376967048 8.160855570640722 5.9650789346908555
Co 2.5517400424094303 7.38412418849144 3.5622488631437284
Co 3.4988160589089032 9.152944763039379 4.763245285366842
Co 5.698021822865555 9.68644483664035 5.805376171612964
Co 6.5792953674695935 6.010198523055759 2.7005805963209455
Co 8.09264756093775 7.398188827107899 3.7948326287681224
Co 4.360504294197511 6.749791927879009 2.2834646154124307
Co 3.9361672311784055 8.991066066250296 2.4076899726110415
Co 5.3272252137022695 10.32612906070846 3.5260708025701026
Co 6.29432774272741 8.283177198351117 2.1211927806882724
Co 7.340006115373379 9.53929785893689 4.047229840296401
