45
Energy = -259.50475025 eV
Co 5.969862011557726 4.914835904514999 10.927980294332363
Co 6.8582641677895335 6.391240683033352 1.419586769634848
Co 4.612966926596907 5.513837848297203 1.449409496914867
Co 4.71910202213012 3.2156717919659608 0.7216755891891139
Co 6.629348625497197 4.046856810226617 1.7084831127852322
Co 5.254506603046708 7.513244983743318 2.5825889089723684
Co 8.793223817205508 6.641221782789717 5.014021071385891
Co 7.542762476024354 7.854220141270246 3.3385820284796037
Co 4.625766243559229 3.6470192120024114 3.0093060555356477
Co 3.0398495512736003 7.175649441456324 2.2382137256102106
Co 5.694224951660616 9.086996103342868 4.291553195195143
Co 8.992150513416927 7.686647689561205 7.259439588155358
Co 7.5277711806418335 5.485007006158994 3.439257125934396
Co 6.956281525390235 3.1853367195262665 3.8514139400804415
Co 8.264851465246679 4.280972905679021 5.433137602747768
Co 3.9069881133828503 5.684965647990499 3.7149323017043177
Co 3.635567635311562 7.927059352617278 4.399705898075344
Co 5.825213821953836 1.7936380525044386 2.399984159341387
Co 5.041752300880279 8.085932167860415 6.36353894948552
Co 7.3133569409645975 5.951045686677914 6.725268260029946
Co 7.346822728585133 8.308603220253055 5.72364819568166
Co 3.307067700697865 3.7612348974229133 5.0248092276496665
Co 5.013543163694422 2.1056561948599892 4.682441077385858
Co 8.451019806904496 8.451721633721606 9.457073212160678
Co 5.930225121912956 6.648855337944681 4.68620942729512
Co 6.719966827262484 7.861366708916717 8.030994767729009
Co 3.458320313214151 6.098317163042096 5.931470807451373
Co 8.386269720446586 6.169744312460129 8.904141660121574
Co 5.521550440163421 4.407986893831119 5.476849085494467
Co 9.655224475047683 5.460551898596557 7.010593618623172
Co 6.129640815670625 9.364282090639893 9.608284588501594
Co 2.7648843837055734 8.126915636436522 6.737662676120734
Co 7.951551942309996 3.918619630121754 7.743597433847534
Co 6.8440612395386955 2.4660478738742917 6.126118122365592
Co 4.30322717186356 8.202556513878017 8.582241343063357
Co 3.4634079088404968 4.203714754017465 7.330784758111987
Co 4.113929808528064 2.088394064401005 6.749796662868287
Co 6.443325935137943 5.069642245459381 9.270811697102646
Co 5.080750389245298 5.986053577041455 7.609642969103768
Co 6.68457581121076 7.269611718928643 10.36606444777058
Co 2.869212894308652 6.316938364477938 8.273447856263047
Co 5.63586723913933 3.4980940215283813 7.77558431117549
Co 4.620664543347569 8.292006367878825 10.927980294332365
Co 4.550888962169593 6.259219397100454 9.946440453747151
Co 4.101560710226866 4.133836498651309 9.492282109233335
