40
Energy = -231.93817068 eV
Co 5.132336274688462 4.4279186842429805 0.19986571240344947
Co 3.4482358415852548 2.596549042342924 0.5988510340107364
Co 2.125456441417489 4.673830860915849 1.0734842297029261
Co 7.975876888449301 4.130533562251049 1.4539400713932387
Co 6.075303933097994 2.8250209750552107 1.5404566777726316
Co 3.8612207749526575 6.310661830434714 1.812743728256275
Co 0.9200008013653059 6.613216707251645 2.4131245595928017
Co 4.098892515247792 4.020591970589425 2.162328053798126
Co 6.146294572643645 5.286467037019542 2.2582472994825182
Co 2.021127869578726 2.717661119673192 2.550028318683502
Co 0.07168296973708571 2.1085134079024885 4.021108858520334
Co 8.296389136048422 5.624711853894332 3.2677406908127025
Co 4.205627117666079 1.6534516297487873 2.8575217212017416
Co 2.400803911460637 5.178172493036554 3.2880773973026236
Co 8.039854072336809 3.2656238749856565 3.578726990141019
Co 2.3532075899385685 1.469508840315612 4.660491757672924
Co 6.574740327779635 1.2261188030184764 3.858542961091948
Co 5.728629143266366 3.2736104690886534 3.753197512677385
Co 6.546958968902333 7.1287662777316285 3.9101307061573247
Co 4.585093815464889 5.814509027880772 3.9997961102098354
Co 2.734094250648199 7.30817478990181 3.9141445641499377
Co 1.4343042790945355 3.688936095041108 4.903658413203126
Co 0.7300865103449793 5.930502247019591 4.746164881341997
Co 0.5942345415454706 2.201643122968199 6.375179665324661
Co 8.749488893450561 3.9625384199391447 5.371462740087346
Co 4.814888965095902 1.662674397713627 5.372635463193228
Co 5.334794651737432 6.426833071143468 6.180221931291367
Co 8.749488893450561 4.421041092242176 5.569331857369905
Co 3.5623530869077737 3.378602633798124 4.347664304132079
Co 6.7373619357953185 5.052371788721461 4.805839918752174
Co 0.22261830880426028 4.382374408549807 2.997614765882245
Co 7.765402029222295 6.708038169590233 5.960721563706681
Co 6.939758273659002 2.733160205177242 5.756674442028266
Co 4.914538485429868 4.160279218122714 5.987235658775519
Co 2.940494958034889 5.602518483328991 5.706354624012245
Co 2.97489644141432 2.79159302525185 6.659210233083092
Co 1.3190847640392092 4.472181531575707 7.027183080180787
Co 3.6651842198550337 4.781073956172507 7.772841607169775
Co 6.8818656165592875 4.724049487417985 7.118667066822457
Co 5.233631761900516 2.690433563062439 7.593247002726727
