42
Energy = -244.42177721 eV
Co 8.874558946621217 3.208720018849381 7.540198830670022
Co 3.326724439776344 5.763192109604654 9.768186559047484
Co 4.947027244652031 4.157857777120078 9.032940594042321
Co 6.755000703273704 8.12744834299921 8.157426255251185
Co 9.132896606967599 5.397639991924229 6.818830909205124
Co 7.252491110289324 5.375119877969976 8.37196124866464
Co 6.665249354107643 3.055538005655336 8.049822101779663
Co 8.871535119341257 7.253386516884393 8.095662075457946
Co 8.5821222929272 9.432519641592597 7.397637080317195
Co 5.0861140346116205 6.4891806657927855 8.475616547041884
Co 8.60387975356581 2.0878969729472328 5.412457926440647
Co 2.797056419281394 7.1830824755643174 8.01019500160495
Co 4.459176612017879 8.749802906752226 7.933428734980488
Co 7.440127284598993 4.045875341805221 5.94474369051587
Co 4.429228519149926 2.808587601801473 6.903211723250868
Co 6.392727389319833 1.7693080621187516 6.150038883922065
Co 3.223149467737563 4.909518508911807 7.619977078647692
Co 9.823955383233113 3.99427119642089 5.1430015712254376
Co 6.230399159997366 10.281869276903105 7.594655199676017
Co 7.0329546817688655 6.633289343533144 6.3684311102185625
Co 5.462578769342189 4.810155921998884 6.832991836621068
Co 3.6881237112689575 4.581229705227438 5.31039102260146
Co 2.114956750470444 6.337077370697583 5.9223487680102584
Co 2.632686219710457 8.643015417316441 6.142222441706297
Co 5.508151935878179 3.2234926267188064 4.567763105556543
Co 6.913377940086207 1.4394467219696268 3.90380387330081
Co 4.41312871990584 7.084188933658514 6.102262706503733
Co 4.798127334482568 9.672556347832904 5.873421395690778
Co 5.833162793042448 5.646606299681273 4.585896920530689
Co 8.995819918309875 7.686572388079815 5.761788651403091
Co 7.010095705086072 8.979346153231432 5.813592060405727
Co 7.822155517904285 3.54595761523289 3.7017876431843786
Co 7.171548820232454 7.544881474722081 3.946311152884318
Co 1.5760573711077996 7.8349429860229 4.234853205002775
Co 8.440331759071844 5.7368414953074724 4.455998218562092
Co 6.101681675408845 3.1040651430177486 2.271474328296514
Co 3.2740139814896536 6.324485279885691 3.885932934622668
Co 4.59703599390003 4.722393698564035 2.859823099550093
Co 3.8199817289628637 8.522822792310842 4.114813436261558
Co 5.226606777969428 7.126209826371129 2.7881672862367024
Co 5.862913097311739 9.39881866888617 3.6888570251318744
Co 6.889609119573705 5.389308661869263 2.5255959297304096
