49
Energy = -288.59284494 eV
Co 8.87319551375738 6.213009532730112 9.064927924649783
Co 8.453658213857013 7.674386528179495 7.1346689653261315
Co 9.432729365120771 5.443655306275093 6.883501044288524
Co 10.304155302225093 6.299060018748247 4.837945441700271
Co 8.474239227160362 4.006116880152625 8.52191187365311
Co 7.058541422504272 7.624265134378407 9.180732773690588
Co 6.827232325913018 5.092210255989393 9.870598166907778
Co 6.9861503109817145 5.788248342711564 7.613297834489763
Co 9.146804370271742 4.193229647152944 4.4772772001653625
Co 6.607659029226719 9.104448387479971 7.542174622710619
Co 7.752598854269873 3.830923613912212 6.254963787539386
Co 9.00761182227488 8.218904940997854 4.988802157240222
Co 8.634763954384471 6.613257376746269 3.1231656413623585
Co 7.999181888920238 6.110212423369961 5.250319819979731
Co 6.183145013597878 3.5045223477416125 8.282295967721407
Co 5.134585270895613 6.454420381710546 9.253259284243835
Co 5.839450604335667 5.268717135584963 5.443105380991559
Co 7.183512507775792 4.781166811718732 3.3498614020767796
Co 7.573721914078305 8.758038586054699 3.3373923833209314
Co 6.551686462169047 7.866228024356629 5.516097834896633
Co 7.218495124919394 10.03912421188563 5.3968989937574925
Co 4.818060923149205 9.529233175043666 6.172107940313524
Co 4.3843682668505854 4.258617503715475 9.592285861547154
Co 4.587198270676647 8.667540467979123 8.646451261495315
Co 6.112684375947759 6.872148697532726 3.443458255536533
Co 5.398238825857739 9.193603469353299 3.85035426409685
Co 4.87337246098458 7.200592750987503 6.907087744738782
Co 7.1878429321808 2.5981843929307256 4.242972807243829
Co 3.0125503869121797 6.509818588737809 8.441232560079431
Co 5.086975034099578 3.600338443542746 3.808832560218633
Co 5.676517912871492 2.9221532988656898 6.069324513316824
Co 3.9669969302030665 2.652360637374541 7.690784896938856
Co 2.3390064990083848 4.377367639134986 7.742233690340273
Co 6.511841528192551 3.0485534960902143 1.9947678354706964
Co 4.548941076063073 4.925468346834381 7.397721148696529
Co 2.8678815806689757 8.409188940793035 7.008377531554312
Co 3.831841886142783 7.886532604913003 4.862456858517515
Co 3.918052594974014 5.666462664683245 4.143212904011097
Co 5.119055264040253 5.235824119851602 2.0564032126363645
Co 4.019975392413825 7.369743626499334 2.540806375728355
Co 4.041957891490162 1.6702201999441104 5.087435696997964
Co 5.218126956536561 1.4369535501443615 3.097369543561485
Co 2.688375419582764 6.154742818789993 6.134627905242171
Co 3.3841152445632723 3.795188951094371 5.679609083127479
Co 1.9734257309995873 6.946421667615924 3.8352624091463188
Co 4.1928473612037775 3.1361631651890773 1.6235994577932165
Co 2.8701269961922105 2.9618253202005804 3.4869482052336105
Co 1.6835604687534578 4.756767454124072 4.458991918239183
Co 2.8038977784700867 5.0117727648939745 2.265883308827434
