49
Energy = -287.64450441 eV
Co 8.061493543900712 8.064329120378995 3.858691491036608
Co 5.578791801812275 7.520934159372577 4.001081975900093
Co 9.317674256695462 6.046266381161197 4.621475788205273
Co 11.527460031781498 6.591277207619193 5.246020453457358
Co 8.824052553761788 9.761568039505622 5.542766149660359
Co 8.392603759040533 4.122616715933612 3.92711026053951
Co 7.487528157403828 11.455752483402 4.810635647742266
Co 10.35021035090673 8.200239213530656 4.048179598756481
Co 4.888350283671244 8.188126993143886 6.102373619742732
Co 7.015703833184701 5.855281185948881 4.500435653738376
Co 7.225402569731384 7.725190666539231 5.9273424770693355
Co 6.29553535826763 9.576635155180224 4.683383500541322
Co 5.972950922048991 5.735834181076212 6.716141683503116
Co 9.703603350958018 7.720785578730013 6.2443029206575265
Co 4.044100711114073 6.892051317208031 7.893795631132317
Co 8.451248083823236 11.641053354189483 6.9089517222418815
Co 11.887810900660028 7.975485047948665 7.095681591696066
Co 6.758606266001793 10.10405942636904 6.9533068023030795
Co 8.116275685187636 4.404993220723698 6.1307671815301354
Co 11.257618438025348 9.556100590827107 5.6190714582112475
Co 10.247948701963697 9.895636072460348 7.708284987039588
Co 8.092855458946982 6.2914871714363 7.608496766692764
Co 4.63493652531586 10.485675012294005 6.166483455353933
Co 10.19394958060034 5.4145070626551615 6.88343806570781
Co 10.25003666253379 7.204199532026392 8.533695176401553
Co 9.342394546972452 3.410593921727841 7.780879020483434
Co 5.890039785263958 11.349184493384323 8.70749455348812
Co 8.197315811106842 10.91800858893154 9.022276978147369
Co 4.5525126144200625 9.47892133100045 8.199281848132319
Co 6.155428137323598 7.717985028908961 8.05955908894203
Co 9.390761034720077 5.144166834746883 9.31817035829827
Co 5.809354849632323 5.828532645921413 9.28551389075313
Co 8.32049683564536 8.6698632648145 7.966556837390542
Co 9.572703004070325 9.193860661932518 9.90211389241906
Co 7.2804994743154205 4.263600803531513 8.40154519410083
Co 6.6568773389600535 9.22797630883272 9.746260922336292
Co 7.952246524105607 7.150169097860582 9.902185115800975
Co 11.707196770466657 8.847393010844367 9.254080601103375
Co 4.630127394893148 10.322919852165327 10.412299912906628
Co 10.142471528123615 7.120835614105146 10.847273240529267
Co 9.111245034388377 10.992878963591227 11.225060695625674
Co 4.6950152520268125 7.904913400309052 9.965732638495114
Co 7.537349014019887 4.951308445982072 10.775562512224864
Co 9.701247510878197 4.973173231392322 11.606457243514242
Co 6.125561768324139 6.782724616955921 11.382023138669187
Co 6.871763266342274 11.090445311106048 11.061980351759171
Co 8.087095344826702 8.937646348110132 11.662400199033737
Co 5.816797612903966 9.017860661850607 11.952828190853769
Co 8.284718670999247 6.682919584401836 12.238516428200247
