49
Energy = -289.87365691 eV
Co 4.813056738034159 3.6938593200156555 0.6428473152962255
Co 5.044746016611451 6.126416979469143 1.2227622624994448
Co 2.7684044231569005 2.7581667134977574 1.004640566055768
Co 2.9603365707212403 6.893127751750951 1.7813995678165901
Co 7.118013981531272 4.991896419861346 0.9221600320283683
Co 1.810997223845023 5.012297544994607 0.6853295830458396
Co 4.763816988898064 1.231263319627064 1.041184246005994
Co 1.042228630097962 3.5056681873688578 2.4133586754959633
Co 5.009892688648641 8.292714878750349 2.834137580737477
Co 6.699291559845604 2.6208025823795693 1.6457681377575384
Co 5.658878119330742 4.421254499967335 2.638708799646315
Co 6.816737318547912 6.533425242704959 2.723738633284064
Co 2.2224091835158286 1.2738831922377627 2.7400619893519984
Co 3.2220189970474005 4.615513469874472 2.433706743814882
Co 8.015202733758267 4.299793727051313 3.0606673845682044
Co 2.3858906574983445 3.0359823619269113 4.294189232511096
Co 1.14846388531572 5.816927572556795 2.86437343306501
Co 2.4584401534169644 7.636124267380671 3.899345934991739
Co 4.065287175175591 0.20650683944408627 3.773265454335069
Co 4.486064701095453 6.3105148192096046 3.652759772827713
Co 6.196711865897737 0.7891426324819655 2.9676155170251586
Co 8.288212923481902 2.025167605543266 3.3150770239100797
Co 4.327945095291175 2.3992884481219177 2.894132702341182
Co 0.3040973003480086 1.9513884333181992 4.124711970222858
Co 0.44003251236287577 4.341956632116865 4.6514045100220445
Co 6.433679921747498 2.6927091784137183 4.411466513705345
Co 8.245913066163288 3.854268784345489 5.392906212777184
Co 4.444249146171038 4.068835670250417 4.590212772933344
Co 2.5386878276078777 5.436061928882858 4.786561274557184
Co 6.475763271237049 5.132912348661779 4.72683974742947
Co 0.6153539169401078 6.743990761486206 5.098413671789819
Co 8.503516153390638 6.110584161127922 4.756439642992882
Co 2.1996375367928347 0.851519388190695 5.156085554428789
Co 6.11879218776261 0.4891597758032288 5.224409881543671
Co 4.304165038574528 8.237334736633507 5.1209692280983
Co 4.366402684977119 1.9010496617977144 5.462665247054369
Co 4.695630054735741 5.875737764755463 6.173359556956832
Co 1.1725552297289905 2.748844424779328 6.318726341488291
Co 4.019481206770408 8.29271487875035 6.100324888587467
Co 2.666179912818493 7.150044103618133 6.408871015302775
Co 6.457191816934925 7.452267334104161 4.891699312805047
Co 3.36579206045572 3.7861748292228565 6.659430211010662
Co 5.814909032148327 3.7064752039873845 6.507773902975491
Co 1.3469878638061596 5.11588988747152 6.797583279580967
Co 7.0249942473727085 6.075802174541893 6.72261839020286
Co 2.966630204442731 1.5678175867070168 7.289229719136458
Co 5.3266988252579885 7.784935615983163 7.135915718962435
Co 3.3240018361365475 5.630959312910272 8.039161855050152
Co 1.9344025828287943 3.546879161570816 8.429782060249032
