44
Energy = -257.9772169 eV
Co 7.3808692698046645 5.674372243030595 8.144087257782996
Co 5.398754036449729 6.500898409269083 9.55193868391
Co 5.529622675242855 2.26985103853561 7.9571644337554375
Co 8.085206306836781 3.4093943274293697 7.991179430247653
Co 4.342491142759885 4.844170153378703 10.737264069214444
Co 3.770737089351741 3.6963838082545606 8.826515916068013
Co 7.182942609582468 1.7714899457522244 6.33161401182395
Co 6.021289292210431 4.192157698773882 9.226134933793853
Co 8.68219601255647 7.5503723636154545 7.137814811550245
Co 9.277608745641173 5.247974089505374 6.8931152505570115
Co 4.918307118007245 1.4310568378862145 5.7760522869948
Co 6.3654746306416135 7.712553518425758 7.779967533936791
Co 3.9733973738630755 7.824868571766575 7.918561010585928
Co 3.960370422944046 3.378961692514477 6.535496178599895
Co 5.1182031728480775 7.4661796804112015 5.731694398068535
Co 10.644750592966385 6.9341339879798 6.071845663245041
Co 6.350385859917197 3.980804942951382 6.6385076293785925
Co 3.1312656317657677 5.922738542712198 9.010241472765038
Co 8.376950606596646 3.630619644446264 5.5393854581751745
Co 6.185900481063244 2.9442184127294015 4.523783703330747
Co 2.084345715348013 4.533245639546403 7.417110250925289
Co 8.956683986488173 7.872400234575989 4.792504192727015
Co 2.945515624824682 6.4349409906507455 6.4061114356794375
Co 9.439908162414099 5.614554616104599 4.548498183326385
Co 7.091394345601957 8.778761252481942 5.831913747394616
Co 7.320434641145186 6.227701003412076 5.704994964322304
Co 5.10057416204535 9.558302124372668 6.976124254525613
Co 4.929194954070651 5.6151225473086175 7.502375657664278
Co 4.879779428445425 5.045102767970611 5.066528652523637
Co 3.850937664466131 2.987189400266246 4.182961697963398
Co 5.110606981491462 4.41911672400515 2.82648581730995
Co 5.948971073284608 6.64473957144462 3.5870130532672615
Co 3.281680744525365 8.722414488575335 5.429687069662573
Co 7.384203316310604 4.753333299281751 3.709774917334446
Co 2.497685741972971 4.626044964111176 5.030863622396227
Co 8.145147015428343 6.818397187762301 2.8776344187912732
Co 7.002183415231595 8.806102032425366 3.5677558253687134
Co 5.292153841920349 10.057511824790856 4.792453714278366
Co 3.3378325381086418 6.652240701135212 4.076167425606071
Co 6.613067938361813 5.598968337650496 1.5298588858613222
Co 2.850228455554685 4.743574841684988 2.7328856086894513
Co 6.1861582980025345 7.891418324696285 1.590829306610695
Co 4.5384203262158875 8.49808590317889 3.3558576672161733
Co 4.296905552239393 6.498268307746637 1.9219824913184507
