41
Energy = -238.61221348 eV
Co 3.472665143928417 2.9261791388966167 7.584217002247961
Co 4.683146798385598 4.553372400836971 0.3928130466205885
Co 2.380104207777801 5.2507261525120414 0.13370918625985076
Co 5.152228917847374 2.2419344618973085 1.1124955000814376
Co 3.1638732658621667 1.0792576005253103 0.9657386488459737
Co 0.17598645102867042 3.6015737162537254 1.2230685778173
Co 7.04707739262409 1.1927684728644765 2.089625912321989
Co 6.828468579019567 3.661683011261669 2.101622446185087
Co 1.1308550283145244 1.4197954266466088 2.021975452840783
Co 2.4347377689455287 3.3375283649876746 1.378014749773645
Co 2.018444626911339 7.6690531973725085 2.247401695071312
Co 4.581057793076098 4.035844643662022 2.567206752014115
Co 3.622654647599833 6.107415070268396 1.9180616301703053
Co 4.821077037597413 0.27080141168878036 2.678209416724811
Co 5.970990887728756 5.948241666505299 2.5284135326930235
Co 1.1558702345334264 5.482429034139327 2.134705000181788
Co 5.600168789104017 2.2027656548032133 3.5560871432054353
Co 7.760915964604486 2.279862399598788 4.138922433712085
Co 0.5611136327042713 3.1507319401737046 3.446166032074166
Co 2.5895382337827453 7.855214663817081 2.8854602577871944
Co 4.053576334701441 7.855214663817081 3.4916131419383816
Co 3.1592770354070594 1.9668887760634337 3.1868346705112645
Co 6.17429180455736 0.3845247601750186 4.723056364102266
Co 2.4965015213484163 4.487119099167568 3.6041392086570787
Co 2.1652412186504355 6.68442449566479 4.350480421686776
Co 1.4544798567451112 0.9178957695200698 4.46371278295943
Co 6.527018498190897 4.415596039535329 4.360544907703197
Co 4.432359031674599 5.7566869363449324 4.254009234104359
Co 6.290561041107068 6.863509716971481 4.82589092635829
Co 0.7479749467554496 4.830283089550979 5.19891477143447
Co 4.319921645455835 3.538651790644231 4.953858798926216
Co 8.111500001994182 2.447423745460184 5.7078890901895765
Co 2.1401248414854135 2.8994555144855774 5.314197329251399
Co 3.9423282816206693 1.1647336934728931 5.3197497508300495
Co 4.1163969320778815 7.276819203743819 5.895842514808262
Co 2.91446714848412 5.128958703417779 6.1407157610603695
Co 6.063396932197631 2.4949467544170667 5.9174672967266995
Co 5.309036486645934 5.123695414380255 6.3583297402731915
Co 1.8046847388391556 1.3074930584144444 6.873442797137688
Co 1.3181994645017152 3.658284056004303 7.286875791330707
Co 3.713656402141496 2.9361858559952374 7.074489849338945
