43
Energy = -250.88293098 eV
Co 6.19230812320001 5.708231510750802 0.90733035332958
Co 4.079934402449226 5.4360172696699 1.5553759410838686
Co 7.632922147891566 4.356124383523661 2.1261558208179916
Co 7.751668994951704 6.77931323474217 2.227183622125453
Co 5.3153307663277864 3.5385254284450105 2.322830489530887
Co 5.505324067141125 7.644946022266215 2.511582448558477
Co 9.884876458181836 5.2664995805964265 2.6763101625272085
Co 9.123137826050055 3.389915802908769 3.8282884491014406
Co 3.5152570464156305 6.389130801307 3.5029371648246244
Co 3.207959874939924 4.014701925784527 3.3319449310292617
Co 5.851925179523401 5.57352955990079 3.316235275474888
Co 6.732944562777493 3.5144828996664716 4.190976471931253
Co 7.246292251504492 7.729819676986583 4.31565376373325
Co 9.572923515426334 7.270984730541555 3.8415480794848023
Co 8.139918838545157 5.49033688051488 4.175794004236036
Co 5.088405090637183 7.365196399514613 4.890386313905518
Co 4.633846918017159 2.524308677628473 4.4809167294436945
Co 1.7812473602044052 5.366796113481057 4.674002435830279
Co 10.211896605436703 5.237177184974911 5.122147393350712
Co 8.398316230833256 3.9329644222927804 6.011685569843045
Co 4.743213156937896 6.538100985767883 7.150346901426042
Co 2.8405595574936857 7.378120338447413 5.575824783405476
Co 4.326458012122934 8.813732371067811 6.725698369231814
Co 0.6796107227251037 4.228162319151959 6.616577837989391
Co 4.069993013378864 2.093985492320864 6.8075644868069025
Co 4.480335991559214 4.786807131911191 5.201034775812878
Co 9.401055374126049 5.2787631581453365 7.569247960500275
Co 8.707495735268777 6.864115265649131 6.061688450860156
Co 2.6144291498956296 3.294439476394583 5.600622392801414
Co 6.17359113118455 2.972026177825826 6.316083413556079
Co 6.608959392692233 8.04547359518403 6.611735375390396
Co 6.612586959015046 5.556690246588989 6.0330771864717185
Co 0.8427210569704653 6.669593195568129 6.6092473783689165
Co 2.7102822453328455 7.5205110510190964 7.932586010969076
Co 2.7082554255970073 5.344360514822073 6.823283682437556
Co 1.11665272818293 5.34772507399825 8.554299144881483
Co 4.792087376212704 4.183103430493304 7.66597633043132
Co 7.530977080675184 6.612223308892177 8.118956736280728
Co 7.236064513689627 4.302725600126925 8.0191022063591
Co 3.4494566105738556 5.6636960816003405 9.080659787443143
Co 2.596133490591813 3.4671123719328545 8.137406382054195
Co 5.3564570948742825 7.979372565681558 8.735252590682423
Co 5.72674090653801 5.720710728007018 9.234995381770581
