45
Energy = -263.49016563 eV
Co 9.895941020561315 6.197545268449316 6.915083016168176
Co 8.71781249918842 5.744222974093556 8.953181692135775
Co 8.58548130452829 7.51393434460728 5.154273406663903
Co 7.736239062155245 5.33895792909584 11.004441219098894
Co 9.087162172599808 5.236072375518478 5.001088789036396
Co 8.056812308796825 7.44752940800261 7.405538859092145
Co 7.070906885168281 7.228647551128633 9.776235136043288
Co 8.543124085507767 6.205487113425496 2.9596494817824808
Co 8.294334222964332 4.3804639035851 7.104784985523687
Co 7.200737362726399 3.914102030815642 9.16991879143051
Co 6.124734052483716 8.010109306402484 6.073397916568728
Co 6.914317484484047 5.813713065583738 5.693104115099039
Co 7.444275131156982 3.4538992630595065 5.072005715651572
Co 6.525923541244692 5.8069264149430255 8.053888163254
Co 5.60260995434422 5.370863792941934 10.132226962299686
Co 6.617876128095431 2.7010540277564576 7.09131565626765
Co 6.367610649809806 8.889154365020019 8.19665725750965
Co 6.773652591081573 7.412104437279879 3.759194678568747
Co 8.737521446248264 3.8238095400796928 3.132281086323045
Co 4.7524296731846105 7.324654028825323 9.040759521367068
Co 7.753576758000653 4.728128697454048 1.2743665878705361
Co 4.335948122776368 9.642211154038245 8.813322365374693
Co 6.321548183315788 6.522786583865168 1.6282927233220745
Co 6.546764224453018 4.904161182933174 3.359987081854151
Co 3.490656423853329 5.30258013639794 9.099863533416066
Co 5.018110103630654 9.988598078190561 6.507628341210473
Co 4.4957431586351415 6.173628514998791 6.960185880335081
Co 6.745038505924187 2.574994803331815 2.960485668755278
Co 5.003657626113477 3.977393073533922 8.072646127110316
Co 5.659068584593383 1.9332636116052568 4.959953580181803
Co 5.145315652543519 4.093730722521588 5.684145490248359
Co 5.915647519231316 9.500529421094035 4.294817016726793
Co 3.549403950859838 8.331042179230982 7.161694812361087
Co 5.606915693571216 3.9418334572297344 1.3746488559034025
Co 2.19004781927156 6.630619261356449 7.8925237697720885
Co 4.776044413336411 6.371871567466001 4.562178415202212
Co 4.779803778616133 7.974296908436195 2.7237981594946
Co 2.9186899701186517 4.509401690167054 6.721575609936676
Co 4.587205861893098 3.355597931829238 3.423316821695663
Co 3.9149042860713372 8.557426259918838 4.86523499697782
Co 3.3367946562840016 2.657197712870929 5.255388725407664
Co 2.5640488172014217 6.669716708780697 5.626779482867862
Co 4.3160959520535735 5.580458499209856 2.4232778620728235
Co 2.979317658756461 4.7783276690680845 4.331690385826778
Co 2.687547731432444 7.014973345363042 3.356183205242186
