41
Energy = -238.95552475 eV
Co 8.98764120536394 6.131030154864195 4.002848185203224
Co 8.887396925483932 5.256076448139125 6.239206222206946
Co 9.445612273418766 3.221897577889609 7.060104156950678
Co 9.411512513063249 3.5863340638436516 4.612293111934507
Co 8.421916592506918 4.413912572299251 2.451270761148995
Co 7.166296108781178 6.638471031286498 5.383109978333036
Co 7.396283134319391 8.315495293441602 3.7984777610006297
Co 8.223682103374676 4.715685139257778 8.508820221412495
Co 6.979294285599736 6.253309351719987 2.794377916857068
Co 7.495684319670272 6.848150536051913 7.610065369181639
Co 7.610688509359474 2.537360163053473 5.763331508266611
Co 7.295033875235899 4.478272890736687 4.4682675766849185
Co 7.4592179590001475 2.549910648278953 8.069309885284202
Co 6.3316664457899074 8.768442086454337 5.911138230872107
Co 7.588725387940767 2.4396795149473913 3.3812991114164594
Co 6.666778037608895 4.551929451335334 6.845249731372812
Co 5.740738543541524 8.165628857948054 2.0581758644591908
Co 4.702298533873833 6.014740479171972 2.1763542934255016
Co 5.41889257795322 9.702937551505787 3.8412850587461453
Co 5.2380703638541055 7.350377428691357 4.188266257222525
Co 5.622644088216435 3.556273091643622 8.938095997333576
Co 4.403279597347794 4.646336422951639 7.308373278820661
Co 5.85822402663033 4.102830487145891 2.648859489116602
Co 5.817795507694931 5.831712834545885 8.819965692408742
Co 3.465283275416036 8.480207307374075 3.2063491645520488
Co 4.991539875302799 5.087599188313519 4.874695847566127
Co 5.22793344835435 7.004010474537916 6.888635823235992
Co 5.364149579782359 2.419614524270909 6.8300533432509525
Co 5.492629224866236 2.790422538117812 4.5530185603648015
Co 3.943996221955995 8.731590102643361 5.516323266213137
Co 3.0389622155145606 6.226525153678294 3.6558509349432433
Co 3.183789182896916 6.326768921898505 5.994494671173435
Co 3.3883428715314423 3.35847743348467 5.626254898760551
Co 3.4139431867896315 2.683240369105062 7.9906911742786155
Co 3.5563920939052998 3.9603551489053896 3.3520628376832287
Co 2.5315849741020116 8.171967080910397 7.26199518032523
Co 3.3941442191040965 6.384476689384255 8.406734590130645
Co 1.8500746338571419 7.839854848366715 4.889598863952441
Co 1.742142553082924 4.839036459448717 4.945250984251913
Co 2.103141684898191 4.607087909072377 7.296724318983219
Co 0.969942615573307 6.541665811412955 6.767377612755925
