47
Energy = -99.73429987 eV
Co 4.469532549133339 7.184321779671956 8.736059298740045
Co 3.5903491992545846 4.670614013328737 3.445487350480873
Co 2.9169004178612736 2.674056387246092 4.829267314045949
Co 5.969929842928507 3.6202529801676473 7.784401016035504
Co 5.497740253547631 6.177356041159769 6.934505025949698
Co 5.8650103097222805 5.3996050267494375 9.541920244456524
Co 8.184732142470429 9.112211339803036 7.988745722646972
Co 5.741032602008442 7.930091712757572 5.081573388609326
Co 4.3322371777246325 4.396441271846902 5.906718669343763
Co 1.7617366315010141 7.343365563560981 5.15722302431296
Co 7.269388516914235 3.5066452229482103 3.2869185881047565
Co 1.2901630312468912 3.534408019928231 3.4364915429440925
Co 3.777603102030574 8.20952314167155 6.59199079419047
Co 0.6470100478574916 5.799843292275658 3.503934666168617
Co 7.547748541761378 6.130181367439077 5.54948937390573
Co 2.013469577391187 4.831799167836969 1.713847684450367
Co 7.648653896040126 3.606751613470165 9.37995506712476
Co 7.580806804935476 5.447483580638096 7.902807244688186
Co 7.982613162253391 8.410088301267091 5.786571538041646
Co 2.856627618616029 6.155093791080375 7.073956990552847
Co 3.2573484318262036 2.6938125525585197 2.402949351555937
Co 8.118319432744775 5.744901354544342 10.263673185824443
Co 8.982857754369247 4.224261900857515 4.958072485147847
Co 6.022703385671676 8.494689311997703 7.296052879989128
Co 9.639431414736828 5.664493808784672 6.667271446753757
Co 6.5508215600948665 5.865594510276992 1.743863697843457
Co 3.5601101013129117 8.700895585940186 4.221017402645934
Co 8.59247022320602 3.4631232836618757 7.149242696273496
Co 9.665600470270162 4.7194954817267645 8.858422182073182
Co 2.609864468280345 6.83250224542288 2.9917543048190196
Co 4.594138740876732 2.2391346247154824 6.520035425354895
Co 4.0185078301132435 4.689908527366836 8.37897664996561
Co 5.131558105335513 2.9116291498584324 4.204982289084473
Co 1.9592623299113259 4.944960776892361 5.240299315265585
Co 9.115306151281143 7.129159953316738 8.59732504866609
Co 6.832036615089264 7.466607910770716 9.165606494051413
Co 2.5349960043650066 3.4988938477834584 7.048181874871207
Co 3.89854699751583 6.529903102596228 4.959101748583286
Co 4.113420410821334 5.796005751327878 1.3878796348351974
Co 7.313140533846636 7.615972148138194 3.4871894305095084
Co 6.785488890933563 3.790040747446876 5.658563178462945
Co 10.057798587756215 7.972812185938134 6.734866500420301
Co 5.331356844203493 3.887125835616726 2.0276972181553194
Co 8.264386719879038 5.575101442764266 3.230240333483068
Co 5.001765072359537 7.323103928932483 2.85696755956243
Co 5.900343443004176 5.413133842887771 3.9811592284754163
Co 9.518243643889852 6.985712161921782 4.649853481427333
