40
Energy = -233.85804191 eV
Co 8.745531262031427 4.656532107294605 6.1430811338642
Co 7.24423249947682 8.384408137557323 4.967580413177459
Co 3.3143603906260033 8.193216764649867 6.19134037749591
Co 9.519769528185575 10.826954971482811 7.439414470288363
Co 9.004357416935653 6.677685369051341 9.794953629072014
Co 4.824272717970596 5.178173437777357 6.164298583844106
Co 3.012906356477897 6.111302379873368 7.367687608359274
Co 5.713656251478863 11.33695964265808 7.456067261787181
Co 6.682152901561623 4.218340399572808 4.931673030056154
Co 7.530482864818412 10.4802606191765 6.240510770751312
Co 5.386329060021367 9.323127518822487 8.609948305222792
Co 8.667816385132655 4.663049021663756 3.7929552941187863
Co 7.259691526357802 8.42158310176993 7.3775357761118725
Co 4.860025265920316 5.177421905876743 8.617311222722991
Co 5.087688953862711 7.235260435907947 4.942876758715568
Co 3.557611810037161 10.199110539876177 7.430408336902433
Co 7.2551777629080565 8.353162853001981 9.826867468423556
Co 10.74815627632101 5.076572171675206 7.327823356935689
Co 9.312758057779671 8.838321706504088 6.183264168204873
Co 11.030584746752986 7.1575979013571835 8.57906019285865
Co 6.982784734846772 6.275448850524892 8.614501255400606
Co 5.070346758815189 7.229176993663945 7.426178739280864
Co 9.063695363815851 6.695879940184577 7.407619806126095
Co 7.538020876271404 10.458076387467123 8.62126111513988
Co 6.699328822302697 4.213437022805292 7.3803826830324
Co 5.378279534440064 9.36546408401155 6.195145639558024
Co 3.2993938058514627 8.208080216703237 8.60645217024262
Co 9.316045392836815 8.787724898092394 8.596037650241616
Co 6.968964755113987 6.284680275261925 6.116593779942906
Co 8.745415283607018 4.662170092568731 8.602793020423569
Co 11.301616903113585 9.151979859036446 7.399485415154039
Co 6.949664986430903 6.262684434421876 3.7458213049028366
Co 9.023920310415981 6.716737828531231 4.927371920832604
Co 5.128857872184479 7.198553347698598 9.810617857417672
Co 4.869375981217444 5.172797296365184 3.8179794192885725
Co 3.0055338410383863 6.142615978503424 5.043591828220151
Co 10.739727558626194 5.114893320677037 5.0013267368704435
Co 10.99651556742846 7.163073990665728 6.161855027014019
Co 6.985232412968115 6.286765962472455 10.967491680290282
Co 6.707816334564679 4.250112016693154 9.764938566973548
