48
Energy = -281.73056157 eV
Co 4.6155794758747355 6.770848211294943 5.900815865038198
Co 6.922726894946382 6.397971762633852 5.074043907526329
Co 6.547134499547337 6.982921315930369 7.4793980295755516
Co 2.3530895051396805 6.191683695728177 6.346749346442202
Co 1.4467519829502995 2.353114645574128 5.068178830585637
Co 3.4738740424681946 1.882789515139296 6.481534844698223
Co 2.248855295321417 4.5546817678070335 4.748122233437259
Co 1.405596413109059 7.384211475715466 2.1603420176140147
Co 0.5626468478664698 1.4894468456547953 2.939950287595058
Co 3.1834614244442814 3.47621334089489 0.6279796685944582
Co 0.7659548772690582 6.272426375488821 4.139170519240186
Co 4.494580752356042 5.931674882631337 8.073117282510722
Co 6.918340273753865 5.1512342419888695 3.010794446999386
Co 5.721555217949808 3.458160945020019 0.9842604701997276
Co 6.736614683088527 4.9824369488985445 8.861257143797296
Co 1.9013012876746533 5.546179059086862 0.21096253672490542
Co 2.2649981935868664 2.9326387372538663 2.880361412419431
Co 3.5864343625673465 6.736364397022308 1.5512853747571074
Co 0.18274029972086722 3.8988168090943973 3.486766636716351
Co 7.515325316531422 3.192186830995429 7.374034599134909
Co 2.0416571011801614 5.1916227772120065 2.409962244133209
Co 5.1101883732714235 4.90275364251889 4.593405152513439
Co 6.104712785161312 4.882161206575268 6.711900335329149
Co 3.789499304328044 4.319050097393803 6.565056887619715
Co 6.315895892388033 0.9592477427765702 2.2129789752878803
Co 3.1330471011735335 6.669754176783554 4.024917740217037
Co 8.293333991476418 5.400999058517435 7.058190123950691
Co 4.390513817022055 4.704105974150598 2.431449462567635
Co 4.553147195494391 1.455829034049598 0.1935087485351894
Co 4.174362775774104 8.927181149512705 2.0133895501526458
Co 7.396683332918064 1.5879429120600015 4.597829137210379
Co 8.93971683530459 5.5752288599718 1.755465132210746
Co 5.136798001850295 3.19589556837874 8.047925773173873
Co 1.7693281537198589 8.466392748437723 2.3478969636696685
Co 5.92918186570105 5.955257851160994 1.1261559693483112
Co 4.325387504380921 2.1267992089889063 2.318631709488532
Co 4.240651861927671 5.273445204312792 8.861257143797296
Co 2.7520032434236876 0.7610143933992347 3.8783656412586884
Co 7.560515581657756 3.9767090855775193 5.103641923010232
Co 1.7211088991286088 3.654416698036831 6.9782685119620105
Co 5.755312435999519 2.5091261755981122 5.911157658595643
Co 2.325976388528692 1.2643844306443963 1.201822945243844
Co 6.1879653193591695 3.0204483236313173 3.3896491685949375
Co 0.1019514185917723 4.618182707181288 5.689792558290385
Co 5.116482421111924 0.8645152542827397 4.218034350976723
Co 0.8253625705940637 3.477665119528754 1.1413860849414221
Co 5.3299526880961965 6.884606441929799 3.3261985312658564
Co 3.8844311527898303 2.8806452832022846 4.545365781566429
