49
Energy = -288.33073448 eV
Co 9.453309161079478 2.7340387439652662 4.154967331922445
Co 6.35725645307808 1.6262123862741358 1.3460056879086106
Co 2.7057382097852716 6.20124118137131 1.8201749091676014
Co 6.921676900974908 5.232994297757043 5.866664919232193
Co 7.057248053019639 5.818310028218549 1.694026034536741
Co 1.6526291587755013 1.285346324541754 5.242981504407795
Co 3.932218588797225 7.6681080059934 7.639179847294131
Co 2.2592561922887815 5.300385050040609 4.133421680881395
Co 8.846578875994659 3.8127015062561003 6.189074736816513
Co 4.318144331964064 3.298288696232814 7.844508356068668
Co 3.09478177396516 2.9116215576283424 4.142554613969122
Co 2.6275255742648014 5.533428908122546 8.116459506394813
Co 8.511555820124162 5.06047058752382 4.040221986827744
Co 6.571667467461604 2.9778357703629696 6.975501116544763
Co 1.6744393979119154 1.5159585979872034 2.9234098334278693
Co 2.9256065438396823 4.186696783668941 6.164740186352665
Co 5.707904244261893 0.07370109668290806 3.0013775846946293
Co 0.9094454160062653 3.4798833642443547 4.780874906652824
Co 6.039073297601898 7.30203218613373 6.491138759240197
Co 0.883799432066571 5.295422311296032 6.441314436360903
Co 5.717231996707843 3.852035959370091 1.2448046116709357
Co 2.7430753599462427 7.573732143608614 3.725251398726973
Co 3.7502262884156456 0.7327260210255443 3.957498973750952
Co 1.6898453518775525 3.801968613839818 2.3515590481265707
Co 6.755976625144884 7.0283859742453725 4.227156693243959
Co 3.6761008197433975 2.2552662821843654 1.8160122707298434
Co 7.284053880296411 3.159766755608092 4.684933524701689
Co 3.6923332304326606 1.8039899069621521 6.182713609478066
Co 5.062694177885632 3.6340329328686987 5.422318212783685
Co 6.21618509637589 4.888516162337583 3.4840303700857476
Co 5.833165028036006 1.2582594728755987 5.269838172437086
Co 0.7657765164745786 7.1010530007803 4.919613893252664
Co 4.851986532655522 5.93346325746425 0.6666205066618603
Co 7.600827868797235 1.2645924959222679 3.4155584825220093
Co 4.061265007895972 4.551374821461106 2.7641689634594786
Co 4.666948215930046 5.947944500660692 4.873347143029879
Co 4.822560535047752 5.449259911530684 7.205690087346857
Co 8.234383409850091 1.4788290850422483 5.856685456258877
Co 2.7846263446979704 6.6326343725431975 6.021668430822822
Co 1.103817776390796 5.13686188815958 0.5961845845051219
Co 3.285268461385248 4.2182264314401 0.5398004913857836
Co 4.897386557997601 6.915933496708154 2.7479983656480287
Co 5.4328170771281865 2.4470080294358763 3.286483693096015
Co 4.43614645936192 8.25925024560609 5.18930989477567
Co 7.766850907496968 3.436525553794425 2.364158247458346
Co 2.2020487026847455 8.8237942281493 5.8840463004496275
Co 1.420465532866159 2.828637578360965 7.017620351160854
Co 0.5534853923436253 5.931938593354632 2.816635671963972
Co 1.4192916917277563 7.516010639216359 7.636390350622038
