48
Energy = -282.04626654 eV
Co 1.8089833985991366 4.081999578815656 8.296322473345493
Co 4.191214510469796 3.513285449630438 8.528007977761327
Co 2.203107540544409 1.7837801258836452 0.03094652955597545
Co 5.469716318759463 5.328305089665401 0.7984595880893679
Co 5.504846723420069 3.159802643318247 1.68167747440421
Co 3.252840460923135 5.638692143478715 0.62786435277002
Co 0.3952668395440937 0.6116695503868722 0.8309491222592075
Co 2.275024755253214 8.347544892947933 1.6417924883620738
Co 0.45783666662955397 3.010248728817513 1.153435294499877
Co 4.049602659828937 1.3463038401578216 1.3756532592677062
Co 2.8114953369610354 3.5076090116526863 1.5335341190552025
Co 1.2017917184179763 5.1772225110959 1.8628328341176583
Co 5.088592414160112 7.0647170739373575 2.615533733732835
Co 4.095041104861473 4.981237707835431 2.8216783545599555
Co 6.801909210240532 5.190004937783203 2.653887281876184
Co 1.7592662206716052 1.627037302512631 2.5588694963944905
Co 7.739768453152057 2.8856234738293622 3.0623547061685317
Co 2.6207117594860074 6.978174899261089 2.4518925178910496
Co 5.851473136920364 1.3234953729203414 3.265601406995113
Co 8.453316128148748 3.8688438774659777 3.1938428496520634
Co 1.0381007903173052 8.592622298879766 3.66468584800017
Co 7.380606651042013 7.051580920675293 4.138766033510257
Co 3.7681995728721973 0.10831293708278007 3.332602491072042
Co 8.197008759163204 1.435420535001686 2.7645934488728736
Co 1.0916001527506247 6.129891172913973 4.040457362974466
Co 3.803605901683808 2.467592457191198 3.4978664967594293
Co 5.807566975570511 3.4945132064167552 4.001167367628329
Co 1.899355764209119 3.9689136605102506 3.8508187510047773
Co 3.4284990491267275 6.685414991677108 4.579711633940857
Co 5.580921570891123 5.801344529475777 4.540417880584446
Co 7.809979999453971 4.621804166858785 4.802061909276241
Co 0.5007204026334572 2.1493732412565216 4.627925144530304
Co 2.5180579223616455 1.1104605367277733 4.995479133147158
Co 3.8202890008887334 4.236355414240645 5.177556694288197
Co 0.15751630285793458 4.271343644529324 5.513937285598056
Co 5.448819965696462 7.857680736794239 5.457548371288388
Co 7.237873577171821 2.371883222694389 5.466910815524066
Co 4.6834987759832005 2.034817339405146 5.723586877580864
Co 5.8983015842347 4.129963107079864 6.256119854291673
Co 7.015128533428452 6.280341458407204 6.406605860772501
Co 2.1022201354662693 5.398056001749033 6.111847993096109
Co 2.17866167340048 3.011794667653879 6.253160134464275
Co 4.391863895203508 6.061692178995088 6.768029060409488
Co 7.922840880107761 3.9863141115258505 7.215292894017297
Co 4.008665120949257 3.796422596391455 7.562646508749867
Co 5.759670761822054 7.50826389718881 7.833843297009205
Co 6.042246222932045 2.4367527836557445 7.702528701563853
Co 6.044000884849114 5.143102157685772 8.296322473345493
