43
Energy = -251.26246098 eV
Co 9.27147529417175 5.477652968168515 3.3123644702676116
Co 8.938852337794309 7.602110496915186 2.490225335600445
Co 8.971665079154764 4.115469931167191 1.43718137079028
Co 7.5845832952774135 5.876785613963817 1.722539942393778
Co 8.145809013402689 9.240641341645768 4.021593660994142
Co 8.435292742220142 7.10066024015668 4.8532717872875715
Co 8.667351316917674 4.726599225631696 5.540486549366217
Co 8.62383383918059 3.283769860437527 3.569069667519338
Co 7.598924059092612 8.84217151279525 6.2581221526477755
Co 6.88465822323534 5.265832302956732 3.9964017477817877
Co 6.750038912260191 3.6861981745071044 2.276544896415605
Co 6.716467155390768 7.553484307967311 3.242512607608691
Co 5.308225334235139 5.732494057032446 2.2422643681284233
Co 5.8611905305960565 9.179894813205884 4.710797185642759
Co 8.019376278326481 6.416861160320547 7.103106354258745
Co 6.18983397284263 7.047381589761164 5.659730448358066
Co 8.714176699135827 2.485495143641558 5.836343174041266
Co 6.409635435502321 4.722165352064661 6.456775199096976
Co 8.256868200488901 4.006192027677121 7.776452073097228
Co 6.667610258691127 2.9917146900501663 4.799614295926115
Co 6.37346930489106 7.804961535393859 8.049070569449656
Co 5.4605805082143 9.639682824049567 6.98148423363013
Co 6.7493727296856525 3.201704994065595 9.358981880233452
Co 6.729933393887818 2.4222613975209484 7.091740619444509
Co 4.458664359400163 7.335813410900567 3.7678121380485727
Co 4.77370833290302 3.8401752219990724 3.509051988728736
Co 4.445523919270653 5.447680633302311 5.174962362871777
Co 4.049455064330651 8.02860219968543 5.982173792504694
Co 4.563257486944508 3.138667697071588 5.801251383109696
Co 3.98598964656126 8.351166196568958 8.329424602528716
Co 5.008811672212812 6.934201310309366 9.825612380480909
Co 4.674707459585834 6.222141923924305 7.512374762037904
Co 6.5329135006844465 5.425179157047918 8.79046772868353
Co 3.1311125489703913 5.502197059916114 3.0511632343148922
Co 4.986294416758554 3.68011437101217 8.0475980967691
Co 2.387752538076686 6.547451047093349 5.035162215349151
Co 2.5107250837284183 4.110271021782612 4.86980187124215
Co 2.3756545019544038 6.908517036160059 7.388238513913346
Co 3.0099965406570983 4.547527894400435 7.070013541724906
Co 2.6062384680263446 7.082778178691362 9.73649561604827
Co 3.749292264648731 5.051110517583463 9.370901812319435
Co 0.9588058705490107 5.247261293440883 6.316056486744321
Co 1.5260601627318828 5.241146020605579 8.6989506351907
