47
Energy = -276.60554757 eV
Co 8.291309601401434 9.219300940290582 8.001498163861195
Co 7.673930091686683 7.221420644929824 9.172976538315998
Co 5.985376800245403 9.033804126460506 8.29880370047577
Co 9.384541660879803 7.073805842647442 7.635300708311613
Co 6.757826728996759 5.259695757027717 10.17928395888614
Co 8.900302886118244 5.06258534921383 8.74615913909818
Co 5.392027586864104 6.829637948758081 8.98545191544775
Co 9.020277264545413 8.614959828647857 5.900979595042167
Co 6.798375611689023 9.625967626171848 6.1386518403842985
Co 4.226333850025532 7.883474808208166 7.244975929275189
Co 7.026520274290678 7.421733054103146 6.879694945050419
Co 6.7522743937926135 5.31101637393727 7.857057151584269
Co 4.564940922662766 9.93953601288884 6.341963112255063
Co 5.235176826862423 7.208600116714994 5.224423325094469
Co 7.281272019813655 3.331289362132091 9.025277581981872
Co 10.259921567745224 5.062412718655207 6.8199816282605665
Co 4.801040944717019 4.418274241683455 8.965101597128623
Co 8.779036491666862 6.23087826298754 5.553422699866681
Co 3.184671694103777 6.35602985296128 8.852724414371924
Co 7.363179679496921 7.98538435661215 4.457065529972395
Co 8.283744035771381 3.906721899530748 6.722336947918236
Co 5.385570449351488 9.269254668904777 4.211272296343447
Co 3.1841209110800692 8.345030325917554 5.1680178447436695
Co 2.3180992941024003 6.578480828612778 6.641442876829234
Co 6.643710855942945 5.210248565256384 5.3907455093638985
Co 2.2801560353037944 4.478011916367453 8.09073816523545
Co 7.774969326775319 6.019497645695781 3.3818341127256124
Co 4.367760477743207 5.437968114221457 6.899696656005315
Co 6.262670091351353 7.776686909690749 2.4251189431241884
Co 8.75220190291407 4.158243126269008 4.43837769836723
Co 4.029658819449532 7.744190059691211 3.0490549424952467
Co 5.995094132374467 3.18497702427434 7.183236108826256
Co 5.304765241288175 5.744207674566577 3.292091024952621
Co 3.245415978329855 6.0070234392884965 4.572302619368525
Co 3.730286889358956 2.9873083318771103 7.194345912629782
Co 4.745337850083318 3.8335696818969693 5.090283299170308
Co 2.400318979681138 4.246976843230467 5.77491752300268
Co 6.8283474800142425 5.41718258827666 1.3914477460841226
Co 4.885251612446501 6.508074050968172 0.9957639312401666
Co 6.717738149281605 3.847077983314625 3.1739476994439495
Co 6.956898834978511 2.684227319738572 5.101039835545895
Co 3.092943634686032 5.767539568590581 2.203758106067993
Co 5.106531569249934 1.5007717354274632 5.803625020924609
Co 3.1626883841029727 3.82446594156114 3.4240284503345557
Co 3.066375550019258 2.091954940832817 4.981894140615396
Co 4.836363926723738 4.063019273286274 1.7574895257408574
Co 4.983259070752664 2.296098698440954 3.3790159689989285
