40
Energy = -231.78765268 eV
Co 2.6960765994179052 2.0410242092662427 8.172994769865834
Co 4.529742355718362 5.0353849464022495 8.323327219039106
Co 6.6890236205923435 4.421255360296616 0.7778515379962608
Co 4.778903577772035 2.6022424531367863 0.6720799594440253
Co 5.496315497160918 6.699836849200627 1.5496043153470438
Co 2.736413646737145 3.896094628928177 1.1161798460092212
Co 0.9800672071642614 2.4297530661444733 1.2881337012815732
Co 3.115198789698805 6.225932431383528 1.8266157217961596
Co 2.9018951399013853 0.9373582923162962 1.7027722516592503
Co 4.868122761510468 4.516763058834311 2.035625183390771
Co 0.811101997365521 4.4531838828775605 2.573841655444671
Co 4.253291413641358 8.231141434313788 2.887382933804581
Co 6.513827146740524 2.8600530232982253 2.6463912743445523
Co 5.089250254192673 0.46644046794045446 2.6786688543505117
Co 4.0733413349049865 2.4708157165354923 2.8900438643158144
Co 6.842537113825244 5.322131923094736 3.161697803935376
Co 6.289958159291301 7.623333337091492 4.03262812070124
Co 1.7087716609781063 2.2755298364005507 3.435599804337822
Co 4.611816852688164 6.191007111187675 3.6816547354546763
Co 2.8685799188905556 4.493383381378457 3.431781519520562
Co 1.2478052579387644 4.653929985953692 5.090688355577484
Co 8.189580869205573 3.1592756619260194 4.27157965896797
Co 5.260144574187874 3.985120828144183 4.306306481331035
Co 3.3927155290933917 0.665079633221923 4.308683684954985
Co 5.667096791243749 1.7075375066453662 4.615531500310889
Co 5.082805680274591 8.23114143431379 5.662606230819047
Co 7.244835480196262 3.4764858879730713 5.167046994876068
Co 2.3711598241444727 6.661391188906494 4.252929441906218
Co 3.3409664976910918 2.846528441482537 5.213421783284167
Co 6.118220689086206 5.754910946863732 5.5986246538219815
Co 0.7229903879913937 3.9788701221278835 7.214110945271507
Co 3.6526435777893274 5.179986751129503 5.614951556981838
Co 6.536230974598227 1.6150390946360065 6.704838314257238
Co 4.329032797514016 7.39045810162359 5.653148939862409
Co 1.275296722199689 2.2301313510929694 5.8076381752082495
Co 5.343655405134377 3.6538903622887355 6.659486964989575
Co 4.196906999057681 1.560556103278381 6.829726596839002
Co 2.047021312891682 5.921843542787163 6.956013784480023
Co 2.996917360748769 3.7317317676391433 7.398276152889197
Co 4.500348868863343 5.774036525980422 7.594406795259892
