47
Energy = -276.15894425 eV
Co 1.9784023010423823 4.784451998983952 3.5049434438999083
Co 4.664818281760286 1.4800938397311163 3.454543314979764
Co 6.15247703836203 0.2545727465813264 4.698282258683587
Co 5.60868884408537 6.000196888236778 4.928542701825871
Co 6.974722935768223 2.3807694226663547 4.578424455842028
Co 2.766729844221857 7.059658802508575 3.3448273630658805
Co 6.758396536042825 1.5729327024405284 6.69844851573974
Co 3.805222052920679 7.5991582698216655 5.514612178443893
Co 6.794001038762442 1.3955714215899695 2.450353448635107
Co 2.9013796307849185 2.909203457261853 4.786883884706591
Co 2.5290929606147117 3.0420428177282974 0.5110777867394967
Co 4.600673881301253 1.6066756387023244 5.933945660583649
Co 4.846645268110367 5.959104924787014 7.100087527435305
Co 1.3500246040047073 4.153984561794014 5.9342166120761926
Co 2.423037503713373 5.954123967699866 7.208141520750016
Co 5.982225905960027 3.6013834738176795 2.602486444146371
Co 1.4426683204030841 2.50862735205693 3.0302540191600658
Co 5.017687129853352 3.7241503417989463 4.6998925137246115
Co 0.642666539468909 1.9678453479899263 5.0941010565570215
Co 4.9271668810458 2.116836566471425 1.0099763147833614
Co 8.891991897947447 4.147818820030677 4.000123325323569
Co 5.153369868077741 7.697147935440368 3.4486822758633497
Co 0.5998003653427746 4.086090356539575 1.6114976352190558
Co 2.3734125661844154 1.8279956805647686 6.74071071249477
Co 6.9237304130856865 3.263206991904716 0.5732450773869524
Co 6.298409617062617 3.977380377602336 6.563356192525472
Co 2.602387618489701 5.394073879815176 1.3449405568033248
Co 3.575017211252336 3.3497477677837173 2.4772656081409092
Co 0.672897021573512 1.6431462715078582 1.0248884251361228
Co 6.597264155682178 5.905982664353428 2.359027779009746
Co 2.59448575040708 0.6708632652124583 4.42905494846807
Co 3.7139076047011614 3.8267188382934334 6.921474865802314
Co 7.443831325408052 4.720944449478529 4.3015896546420835
Co 8.233972743792894 2.201421708949806 2.833960263805557
Co 6.0578167295516705 7.988508513134608 6.008512641475933
Co 5.157603060512588 2.519740747855626 8.048928749869326
Co 4.451417617002014 6.9660376637707815 1.2873348113742624
Co 0.36708560982900856 6.195559332253155 2.814052149889051
Co 3.363180631502752 5.394135918355701 5.22539658902989
Co 8.233972743792894 3.307988690456645 2.623395162973663
Co 4.385071948523979 5.456516064946158 3.000110856417254
Co 0.6380372991386926 0.3691525981376336 3.1132644026640675
Co 7.476247806086476 7.142797647101372 4.245103602701307
Co 7.392054549318798 6.051151715886255 6.386973379995551
Co 1.2506315963589862 6.425397106910188 5.082883363398089
Co 2.901257752726697 1.0756332055515185 1.9328853919473814
Co 4.870882685021435 4.604027087438423 0.7978703978068045
