45
Energy = -265.24548834 eV
Co 9.20649614737118 5.202661167492439 5.689245862066811
Co 7.089604160052784 8.669280119376037 4.581913280179826
Co 3.2445264047349256 7.849813892903714 5.9082774042771025
Co 8.990404955453258 11.419938802818812 6.9798340067490345
Co 9.230665424644965 7.268692992695821 9.4164875355215
Co 5.204577949923027 5.09956325910556 5.804223708970459
Co 3.319211615901908 5.7510031727190505 7.089847481413458
Co 5.176081843968746 11.326871519858486 7.072577115428994
Co 7.193112185051284 4.494962841094764 4.525260497503621
Co 7.071180021503674 10.760393928846883 5.816313969501837
Co 5.167398340552929 9.299546285710681 8.269480757247626
Co 9.057002651878136 5.2709943226396625 3.3455624075720682
Co 7.285539343630417 6.506392892715725 10.680993789781835
Co 7.14930694029802 8.677810022090949 7.0110610170909995
Co 5.2858218884283135 5.042790737439526 8.279041387155873
Co 5.14573529249841 7.193797345074282 4.61890396344195
Co 3.2086380672128842 9.870268273247525 7.116654701729149
Co 7.208679418502946 8.626916561280627 9.438427357836737
Co 11.11415630421287 5.939549883694131 6.886464335857635
Co 9.080814033106432 9.415842896785193 5.77405364203862
Co 11.09421440794208 8.02475552643489 8.12554620168549
Co 7.230943290319614 6.5109725638308875 8.276916035985261
Co 5.181784498597428 7.174990930870035 7.074801064000798
Co 9.187066638867313 7.266998633479917 6.976787437856819
Co 7.129020640632342 10.736884611267735 8.20967588536339
Co 7.252753387204869 4.467689366056392 6.971449537471833
Co 5.127792009814919 9.31655339424403 5.871465412976603
Co 3.298092550582958 7.838818992763027 8.315904722660743
Co 9.231586502497493 5.226773374895229 10.53880508337289
Co 9.156984082839738 9.395447685099857 8.169772851581577
Co 7.169910375638162 6.541562404352599 5.7360060444364755
Co 9.245862868027539 5.131581313122937 8.163444734894576
Co 11.026056739312011 10.061881203271493 6.933802787732149
Co 7.113117250360331 6.572219045890914 3.343467099783631
Co 9.104674474388528 7.297153199247288 4.519232684037582
Co 5.253061332578891 7.1716857002647005 9.517411788027584
Co 5.238012957350079 5.172648177481348 3.4470392688724787
Co 3.2512325825867263 5.797940385768248 4.737742675512219
Co 11.07470724504367 6.003574358401706 4.537513324509933
Co 11.027510867813364 8.046759615940058 5.716939827988432
Co 7.306152426178991 4.374535265162232 9.459818721289263
Co 11.166382637020197 5.920665159081698 9.269673417609933
Co 3.380241321873334 5.74269860061578 9.469133086278584
Co 5.41888317166213 5.127051900937285 10.646835942509332
Co 7.389843758605526 4.352439375127591 11.72151765080613
