46
Energy = -269.00740541 eV
Co 6.710161901807983 5.08073278801466 3.7263169033878762
Co 4.791918546207957 4.884664178603009 2.5389087637959116
Co 3.1716418252529452 2.589464454409864 3.7883363700698998
Co 8.243400860758529 4.871830085966693 5.491293783394261
Co 5.896967447163089 2.71547725041298 3.3807052016552004
Co 6.343814821086078 1.257306302554856 1.6186869946329676
Co 2.9207253769443704 3.9400077263835023 8.257665974726972
Co 4.714325912147176 7.112663820831629 6.587932184887841
Co 3.4321936407032494 5.034348389997335 6.361346697022615
Co 7.330644052086245 4.2469775700433 7.631033961239212
Co 4.908811678547559 1.5652132733174533 5.241898597272752
Co 3.040618994388809 2.525098075313842 6.286629275319519
Co 0.5558382843295657 5.791517850565842 4.5937182685399325
Co 0.9405122612957834 5.5982955088285635 2.1301728986018893
Co 1.8848283669485573 7.370255159576275 3.4556160544162116
Co 4.6542620115542315 3.9392683264244024 4.825804092787821
Co 5.024836380623827 5.376232707204969 8.21443142515295
Co 4.46711920444295 4.623724376125635 0.2214391721338366
Co 5.119245813753367 3.2429314203881643 7.157729535451963
Co 6.918133931262935 2.9275303096509373 5.611995377389313
Co 6.615236929969304 3.7493241451172556 1.4582046985902624
Co 7.052786502656926 0.984972988024601 4.113662802417249
Co 2.0524665086189637 1.6031700307407808 1.9715400261326947
Co 2.140398353362855 5.192112760393331 8.52312332546808
Co 6.918577119808042 6.6368384226678785 7.600392635938474
Co 5.472937295653497 2.4350978646754005 8.257665974726972
Co 4.466728242601677 2.666191858199726 1.5836833501854723
Co 1.2313941552381655 5.293273999572301 7.077923794503269
Co 2.98718828234037 2.8519541950819267 8.312874032385738
Co 1.610551412171678 1.1039563830829957 8.434007822435813
Co 3.871972313444797 0.7588160452270636 0.5387750592986889
Co 4.48250535630911 0.7745433175019267 2.9622332191918677
Co 2.986652291317273 6.527519019083119 8.123586684415473
Co 2.656523317419948 5.154221351804149 3.8869455051724726
Co 8.105086173194588 3.2227385364969634 3.57093627385304
Co 0.8264380894111301 3.2404964101026072 0.6608059297948992
Co 2.640994516241394 4.0468260498402975 1.7549972138007566
Co 4.5588311548056595 6.503312963688834 4.315855215683651
Co 6.027442074262065 5.220639575489749 6.068025720012292
Co 1.3539136035401178 1.5608419545605248 4.486130366706309
Co 3.164219607587718 6.3410178831804025 1.7880411838093246
Co 1.041723323221749 2.963051283088774 7.478024019282626
Co 2.4163896568821355 6.928545180394084 5.649447822290919
Co 0.8342673534974324 3.420398012985608 3.093653202406641
Co 1.302504047695058 3.7330521818269125 5.3540440399874525
Co 6.784881374619798 7.066158379735162 5.094879102547978
