48
Energy = -283.21837272 eV
Co 6.704754227122836 5.019787372137433 1.326896479904903
Co 5.722611220788726 7.448944222447623 1.3618684030190387
Co 5.185218961121526 3.7270887017407044 2.5280572928778784
Co 8.027641816326136 7.233164846722632 1.3727121189633278
Co 7.29800207392858 3.959626240434199 3.6666554350207754
Co 5.568546710283021 2.6245356992431557 4.606299922479684
Co 4.435566674151037 5.984215174958817 2.5399200940209425
Co 8.823189713761463 5.352520244080536 2.486480275792465
Co 6.781658495325472 6.305899261343123 3.161320153097257
Co 6.586202871368669 8.693255528793088 3.1338362385652014
Co 4.152816356604712 8.52056949193863 2.8697797564500616
Co 4.111243463687227 3.600988265282199 6.13125677684866
Co 7.753373377301264 2.346276245661506 5.469158010536454
Co 9.111520871314347 3.730931435226229 6.7783067668243495
Co 3.322090710716124 3.9467732080759603 3.9213457320230205
Co 3.6515725175850986 2.6758153388205583 8.186748345807086
Co 8.667316009732417 7.543678252089891 3.6738197478783263
Co 6.843068719194337 4.385042353552497 6.191185718110748
Co 5.283751302062713 5.0066819382392564 4.522252864285705
Co 5.130579667065947 7.366262865155499 4.464396351946183
Co 4.2177209824997295 6.05325040199693 6.418744659636697
Co 8.868759445741532 5.209308179724432 4.884346116695638
Co 2.993512499576846 6.3073576842716434 4.38209103275045
Co 5.92462594519606 2.3361909194759978 6.997523391833752
Co 2.986100194737525 5.234076784668432 8.259132897444625
Co 5.879601150503793 2.512928741487969 9.3127768945832
Co 7.211989657833517 6.736564828731676 5.4868940556478
Co 5.173672512451852 4.396461443487624 8.17378845545118
Co 9.404595344470895 7.522172750037256 5.833686970926262
Co 7.983525940148634 1.99444354693293 7.889083028170138
Co 3.3928147361782015 8.363672151682833 5.681194159606108
Co 8.625148113859641 5.9127249791910765 7.328452239030414
Co 1.940480252988735 6.8976481210812555 6.788942537042369
Co 2.1963890781005504 4.761796184115907 5.986372245601056
Co 5.609026735033268 8.232298663469013 6.588812855654498
Co 3.9393758186956407 4.024808351232071 10.116731890861654
Co 7.538145543376689 9.089314565208687 5.3307449174059975
Co 5.250189506986168 9.73977620900298 4.842605865779856
Co 6.304267283500613 6.322325839212914 7.671526378929195
Co 7.50938057666977 4.176876047056468 8.537693512265514
Co 7.857981578740227 8.176397376171574 7.568748063386639
Co 6.216774823216329 4.61335030598513 10.401430243156193
Co 3.726085030093461 7.7011697667550045 8.064357977572659
Co 6.594482061824872 10.202783860531522 7.2127962708377105
Co 4.268306765733303 9.904901561766534 7.314999633107081
Co 7.449195129670166 6.538376900153242 9.547836204802069
Co 4.899166479740228 6.317754347965538 9.57153905221793
Co 5.906616099952132 8.412355990844823 8.907638472564498
