48
Energy = -283.52615496 eV
Co 9.511162040239883 4.111991179940396 5.836679183986198
Co 10.353472800369047 6.171415561693316 4.958562856998473
Co 9.385615440526903 6.123073109379076 7.066637352013704
Co 8.178601631010608 2.643727614965498 4.50126684445113
Co 7.601604000599888 2.398222326866026 6.733562708818077
Co 8.059475168039281 4.312039960351628 7.942671919477404
Co 10.066318286735314 8.3141685603208 6.208700802220588
Co 6.46088036593666 2.9694951949841766 9.021738547874644
Co 8.645741073725862 5.104443771527628 3.823871820604522
Co 7.207420576374708 4.424071313255776 5.609818323747796
Co 8.32216597840301 7.270743071046925 5.201245951449439
Co 5.498773975198863 1.6248115924982574 7.424518691958292
Co 5.635859729891431 2.6329841077990754 5.308986358667853
Co 8.180660444965582 8.215911290981229 7.526765215473427
Co 7.205551938679214 5.587396708761685 1.8829562397108188
Co 6.584288075902553 6.25426555301361 4.025586130199686
Co 6.48740227899282 3.8747639472400355 3.3906845806413726
Co 8.2646958474939 7.414970992981905 2.8880001772733057
Co 5.273912302426113 4.060156439570534 7.276267857237725
Co 7.914324578535347 9.545952375458763 5.5887528303134735
Co 4.637557248883761 1.6681233823387176 9.593822417827127
Co 6.979412850311261 6.1642540657245455 7.042882588622695
Co 6.164997336360912 5.382294541424755 9.133144307701427
Co 8.233224594888787 6.475669454739066 9.102734230275594
Co 4.330144807545662 3.988885948608967 9.483729633232322
Co 6.4819485661806935 9.902843051951988 7.454521641373008
Co 4.882547229986575 4.926382626070588 5.036858671511929
Co 6.46464638946564 8.7508806119429 3.918160337743942
Co 3.4243703785646398 2.600738735460908 7.832093786452842
Co 6.171043844367086 7.692698733448345 8.703946971862871
Co 4.169151852096567 3.2690977197932387 3.516052153079634
Co 5.733948099190644 7.487500455707644 2.1564863837464006
Co 6.021142304550429 8.095543321066796 6.081205687256716
Co 4.398515188282137 7.049769606993928 4.202415855391264
Co 4.0931379746769 6.501382454138966 9.2618504318693
Co 4.87785442038895 5.3142033529933315 2.460430026634125
Co 4.581584589672695 6.511137261748208 6.97858869493316
Co 3.19195055849614 3.612396493014204 5.748982144152874
Co 5.167835950605256 10.132203808920904 5.441975835137269
Co 3.0203169479700755 4.941050211424411 7.787817997168274
Co 2.8602396232900453 5.245071529922314 3.598229387337786
Co 4.175546113746159 9.205132470983855 3.507315705836392
Co 4.388596467357533 8.792607797529113 7.874716706286892
Co 3.358625997750909 7.166533317423982 2.1156918595194636
Co 3.5084950157927524 8.475116403284995 5.755041913789681
Co 2.4879481437908066 7.380967956058761 7.699230401913779
Co 2.656958588923755 6.059968561048443 5.709718119454568
Co 2.121568273636334 7.640486343911239 4.021201121015773
