41
Energy = -238.46250511 eV
Co 9.770524512154076 4.802608360566839 6.615540602689998
Co 8.301736680313448 5.704679614936714 8.281921997207771
Co 10.174821892385172 6.918039571849909 7.6903400299439175
Co 8.886811477100663 7.337002517942531 9.792921599312269
Co 6.7247657578446605 6.2997203619462905 9.881672889628407
Co 8.93912775598162 2.724735234749715 5.625300012492667
Co 7.48749836511337 4.315557271341962 6.437432718017107
Co 6.129756025150937 4.570054300235903 8.42473496548565
Co 10.832322642944732 6.389534126353312 5.341829538251658
Co 10.267129754006245 4.321261993406954 4.440999959611829
Co 6.625095341652744 2.526875041881897 4.937434653227266
Co 6.912921408991799 8.628362719624388 9.784294985546834
Co 4.536614323327697 5.204242229168601 9.917343525952427
Co 8.625252997546616 6.828486570204134 5.9468225882709165
Co 5.830159104156275 2.6465852064450472 7.051948211579789
Co 6.311736235594722 6.69379028758385 7.357730899213135
Co 8.117226203799481 8.185546915186636 7.808795449756552
Co 4.002733918669298 3.5480614199551974 8.090692717071086
Co 8.015629844529975 4.179751833304373 4.040579952420211
Co 4.844575001386047 7.501363794455781 9.355088969575151
Co 3.9672092838389443 5.935674275421005 7.807421300853716
Co 9.081445833471156 6.24446800695289 3.767911945823974
Co 6.688730211793297 6.048944886729704 4.871183733369391
Co 5.09949172625584 4.74039945503723 6.137862915362123
Co 4.215793917101325 2.8155314167585166 5.254862270566584
Co 5.809815422106826 8.983679632502216 7.762768057083962
Co 2.736137594890151 4.339930214289304 6.365122688520828
Co 5.5516569905881 4.1989234834291445 3.7882689430216296
Co 3.5793664956619446 8.21362848564995 7.458539841374593
Co 7.093458690688639 5.571534373018465 2.43088534958542
Co 6.743609078207752 8.413574088086683 5.644687810965736
Co 4.650142102164849 7.202468120963565 5.501634309915064
Co 2.4470061294552474 6.658513891624952 6.026648178910051
Co 7.2835234744912 7.740101331017955 3.422789769876798
Co 5.121841434072965 6.504811225009873 3.149241727181157
Co 3.5248006326237187 5.267583222303415 4.38373050200406
Co 4.55734244426326 9.577854948452051 5.82343128590507
Co 2.2965234499486513 8.975473421108736 5.613583110652751
Co 5.194729851660674 8.741395190969477 3.738624996593148
Co 3.0084836655667764 7.632921483254384 3.8672503749271994
Co 3.326653622638392 10.009124044514731 3.843999374601312
