40
Energy = -229.08998594 eV
Co 9.323720095311712 3.65324425937812 4.585270573312955
Co 8.7378880360787 3.743411262204422 6.851859909385091
Co 7.540684618052536 4.131215472465662 8.997067540802103
Co 7.519915317378001 2.418797826002609 5.254533208316855
Co 9.501754014906027 5.7318277977619045 5.67360402644289
Co 8.471895370389072 4.8905354243151455 2.8972753209043987
Co 6.413416371486645 3.5221153564412577 7.123155896572966
Co 8.020576332397567 5.863477644243526 7.464806974178197
Co 5.064644267778102 4.435569657494808 8.869907988248567
Co 6.547210527813936 6.129850431742645 9.53471987008056
Co 7.2948078646683525 4.870322083288352 5.184451952577775
Co 5.335928238054843 3.1860110750569666 5.083653107612168
Co 6.823229860991371 3.359608486876133 3.2626437252644584
Co 4.473282064711639 5.630718789271964 10.69237674713769
Co 8.437499600608701 7.822124221828629 6.210097618832533
Co 8.292125467163167 6.872546587415643 4.014710665576352
Co 5.7137406293675665 5.827234957793213 7.0369458576617285
Co 4.028569508719951 4.095900752824526 6.751261870891983
Co 6.742302802107865 7.83165642171602 7.963521400339295
Co 2.832685897714301 5.13141040378106 8.558696678727792
Co 2.67443889672644 6.806787677825418 9.987181218708818
Co 6.326698124002481 5.8318536974739645 3.107825755528427
Co 4.660042902394874 5.516150734257501 4.825071187585093
Co 6.293826015803652 7.391516002878127 5.194230090349488
Co 7.665667459878093 9.131400358891366 4.22587131661441
Co 4.59224379126073 4.24851474714329 2.7195306547935525
Co 1.830745660832598 4.668117993218839 6.397195773644868
Co 4.687048565031342 2.106717620939873 3.277386791695851
Co 3.0539305364518525 3.734373447618229 4.525845218443546
Co 6.9001774019049895 9.585935492620074 6.426919617846287
Co 4.835257886125678 8.369995501663674 6.788443500275348
Co 4.480207408168187 6.9981855475134696 8.68642046708901
Co 5.884840435743222 8.065313901253527 2.9711666043238596
Co 3.3484580557792327 6.441142498309444 6.634453277927849
Co 6.999873654603304 11.221829633123603 4.831904088245945
Co 2.321809099950454 5.99160099409655 4.527653070313655
Co 4.039766426466477 6.5661886344209055 2.75463559138313
Co 3.9090835648024265 7.814565632114657 4.652598869824118
Co 2.446513004862542 4.8892138964936676 2.512460782390805
Co 5.3973377159895755 9.630062441748276 4.684908230609978
