49
Energy = -283.71679193 eV
Co 8.769354858310546 6.065378066812048 3.0174784356339766
Co 8.791410998759318 9.710134859040396 3.480137429793438
Co 7.307744599471516 7.802147092383042 3.3322398633188253
Co 6.507429538586243 4.360199952106691 5.9303340678461725
Co 5.948245640403395 6.305836673569034 4.438195940759902
Co 7.565774171790308 4.342036843028458 3.903132813813485
Co 10.914092394792023 5.989459875866549 4.0545625466273885
Co 9.621070237705156 7.856978310641123 4.339567165678622
Co 4.3348939773458515 7.706175437484815 5.087482592376398
Co 8.085322508444408 6.334740758750716 5.226009130000141
Co 7.680506653604912 9.009513675261822 5.340402331841628
Co 10.320627312679282 6.69280742405663 6.295755417187478
Co 8.8243282477314 2.5111853057447155 4.42836294815221
Co 6.256694710141011 6.5271099545152875 6.876659950469675
Co 9.60621744078807 4.539589888779687 5.120591270378709
Co 4.3214050062190426 5.345317741593136 5.822574413895199
Co 5.792596894683417 8.86868968171584 6.405951806023352
Co 9.785493877783543 9.550171214563953 6.09258530790424
Co 7.541291582492092 11.035852174131913 6.534780210736991
Co 4.0442564197463335 7.0818092565078326 7.308454748768177
Co 8.38280548056747 7.532592355191573 7.245644126452278
Co 7.0241726145156305 12.846735574720036 7.956525974338127
Co 8.094236420518982 2.9107743553001413 6.503599975776443
Co 8.622234255059752 5.013173896794868 7.199186151249184
Co 10.467119869673077 8.508747049929227 8.057085797696262
Co 10.51966458417864 10.871901097307207 7.988713781771915
Co 7.18200185421024 3.6705862258823245 8.637651166298047
Co 4.3294709490704575 9.44948165939283 8.05905855732975
Co 5.128651408447432 4.760122796133149 7.944842125057435
Co 3.1179796050046615 7.870578909767043 9.282792561862408
Co 8.362401888037425 9.643924428114909 8.097586527058297
Co 8.688592124689047 11.723739095523726 8.981341353610064
Co 10.012033385811833 6.277500225575759 8.62045077097773
Co 7.320484016247841 5.972352553021064 8.987213915180059
Co 6.479308047240333 8.29523883606118 8.626771975051142
Co 9.882107607104185 9.845530997463515 10.075324489713594
Co 6.182219736411112 10.697835820157398 8.41058357547633
Co 10.948595767064239 7.814307800203936 10.19161111148234
Co 9.027453389429448 4.512362685272378 9.69619026122284
Co 5.645610611279344 4.584843544993538 10.207763091974536
Co 8.682920036338881 7.799373027740878 9.795193609517494
Co 4.999994175665895 6.645395907215829 9.43664460333749
Co 6.7440826603584245 12.121068610950443 10.154664779772466
Co 6.695358895990275 7.4010294910955166 10.94210556670499
Co 7.558004681136186 5.293750113502952 11.228256302383796
Co 7.363408607019624 9.936774999300972 10.375093447328469
Co 4.933029669105784 8.970952668746571 10.22440893286996
Co 8.750503371572279 11.487396464744782 11.254070450155561
Co 6.198695535999379 9.268692942567624 12.146264946370389
