41
Energy = -238.36851949 eV
Co 5.682473120100911 9.709018208717898 6.194351687161136
Co 3.4300965849960434 8.234355126856796 6.49826313536002
Co 7.181732715274651 9.602192764708416 7.996996159396616
Co 5.264048444520203 8.08625984780815 7.853817512344306
Co 7.117434021826329 7.578985906130161 9.19566548527383
Co 3.9431503649711885 9.521055212270177 4.592760630259184
Co 2.6754961378852427 6.146289337334485 5.889874223100322
Co 4.538828923202717 5.3531800081562215 4.428186490059758
Co 4.7907129484057815 5.952805297544827 6.9633950894798256
Co 7.9093960109281465 9.553359046331614 5.453950391710269
Co 5.123383001734449 6.172781312014304 9.23508909697596
Co 3.0802884791914353 4.583483344415498 7.730887903722323
Co 8.93347309984747 8.91757064130819 9.504081640755832
Co 3.3260319650699794 7.372342473064942 3.966563061176018
Co 5.298408938796728 7.6077743113114344 5.268924154115053
Co 9.313014009368086 9.073026485554623 7.279857142431764
Co 7.441309866927272 7.63192168955682 6.748252250196661
Co 2.2130338537228558 5.300749695388891 3.773974582546798
Co 5.291708949479273 3.99588165113583 8.294064215527806
Co 6.130364970686174 9.374057261031004 3.833152902970939
Co 3.0052135572117984 3.8380199762663216 5.537207548235511
Co 5.413231203078988 7.305557910368248 2.960954109108904
Co 6.744407142843337 5.616992060846422 5.556344617324946
Co 7.512682711998404 7.542065195806064 4.2530670771820915
Co 3.87350066190332 2.347047999958893 7.179915286484913
Co 9.160281263748693 6.940673797117495 8.182470269986723
Co 9.470910458760162 7.597158705824518 5.517139055487201
Co 5.370098948623016 3.632539296928469 5.954384643020239
Co 7.039086807113007 5.561253615567579 8.00784225966567
Co 6.114843579485487 1.873914449463506 7.581459565154673
Co 4.602449014262594 5.147407880500549 2.1396344937181344
Co 3.4297092152497357 3.4529408737676075 3.2212848928575664
Co 6.73349808125594 5.441541677487092 3.1726584993175324
Co 5.725474251127339 3.374756438211202 3.5588125224286493
Co 4.245809923792327 1.9305590939127066 4.825875879011593
Co 8.970857603665216 5.727866359216722 4.049043559433215
Co 7.825662425195538 3.7887582359888796 4.60796868251091
Co 4.987322946623659 0.39059473836606656 6.312142705261878
Co 8.894957563784006 5.4778758531032405 6.395678101449302
Co 6.582062043990435 1.8056603879821524 5.2697882298162275
Co 7.529459771321571 3.5684210509451173 6.891395565408323
