46
Energy = -359.61747007 eV
Co 2.833966803670252 1.5593092038686769 9.761754033275743
Co 1.5303137193890755 3.263823337420483 0.9828509465534633
Co 4.751873497006048 0.9103237789806062 1.2775844356776127
Co 5.35804697032049 4.986631325880134 0.7164568027660764
Co 2.780949032936078 5.316670789758585 1.6614433698012065
Co 6.225830459757538 2.7243465407089764 1.6837204486191129
Co 3.9366246127559097 3.18965478220791 1.0551916161041013
Co 2.3896119616715374 1.3164530187429713 2.0614279066515726
Co 0.7746132606296912 4.990479778133424 2.9831996121238302
Co 3.037658107553028 9.423502593618725 0.8301190011861328
Co 6.680887734916315 6.848567146399494 1.243217090873114
Co 4.438592742571311 6.89555096173092 1.8079233012870364
Co 7.24519958643799 4.870334149209807 2.2810560678932323
Co 4.999485601710345 4.428395128526866 2.9272078932468184
Co 6.294813673337288 0.7639712315351606 3.342522898773847
Co 1.9368704016412073 7.073224839769655 3.1332827595843793
Co 2.5326124114987816 3.5590349448156506 3.110778410510001
Co 6.132949231187358 6.614330485869339 3.481514859497167
Co 3.7229809831916114 6.035432089742756 3.963613501782177
Co 2.5614335376744695 1.4656310719465524 4.496934405723454
Co 4.515699839551364 2.1441807690045445 3.3738459590040826
Co 0.5331178443595507 2.3807470114575797 2.9949997669722097
Co 6.895802747404436 3.123001283617718 3.9775674368048914
Co 5.687331373695596 5.0076702699088464 5.24280520533967
Co 3.4287960575410517 3.8482437740831537 5.1446658201423014
Co 5.282290059931829 2.65137750320435 5.572930111128509
Co 7.812681752440593 5.217197760694112 4.5553779778248895
Co 5.313036625847082 7.422624506790468 5.546713313317567
Co 4.742779348921022 0.47627197632571905 5.218709178546962
Co 2.7763465902413187 7.777425514261141 5.407990525513675
Co 4.23393561505201 8.333817920067768 3.5826006987981622
Co 7.02688371915217 1.2480198273028866 5.569566268169075
Co 1.6118396586687023 5.621624954896791 5.09847173955744
Co 3.8922615718404976 9.759623874357896 3.124034638952713
Co 4.275384194890204 9.423502593618725 5.807471475613368
Co 1.1507603705045064 3.267883033616632 5.120839877734171
Co 7.06545368236569 3.728763109829215 6.579665529177064
Co 3.72995568957043 5.805096221511406 6.406336622078505
Co 3.206534756158748 2.0129206911822486 6.6749787709458
Co 5.848578191291874 5.889517120955957 7.42266157488708
Co 3.9796247795741526 7.833065841959358 7.564790595411125
Co 5.435502776382889 1.487426463742004 7.521075459286689
Co 1.847451686858435 6.568977574044988 7.413043715075325
Co 2.2008551276636124 4.169067547692409 7.136034002252688
Co 4.685792007765643 3.822913381391643 7.513688152970942
Co 3.7781462364585408 5.77724626085448 8.705351532177625
