47
Energy = -275.96588924 eV
Co 3.8550419943270717 3.835355359022832 2.9899814709972876
Co 8.723718931605118 6.623649838954835 4.208604195940892
Co 5.555922787509718 5.289095345089571 4.532711840645577
Co 3.9400245037349886 1.51608957553839 3.9183340298850124
Co 7.235211366684695 3.1978814331120633 1.6962580174962654
Co 2.632504194577214 6.652832206322814 6.488299339598473
Co 6.665090895850646 7.109526215716652 3.402864478322316
Co 1.148734758048484 2.3885782740328043 6.781177929987979
Co 5.7586018996436135 1.6989027712694609 6.062284482614857
Co 4.130572936089712 8.657075333834667 5.699763485264384
Co 5.879383794991977 4.890582064196776 2.2621588603676552
Co 3.5229523566855665 7.86978940743252 1.4044505082288667
Co 6.988915643329303 6.469865868093304 5.78851915479605
Co 7.934171059874973 5.885352533655718 1.8335177285133906
Co 6.5070842196495935 8.645946776770513 5.065871822687933
Co 4.5787768590900315 0.6958787712348039 7.962878648382835
Co 1.552731602529305 2.0282795060654135 2.925105077151193
Co 2.8415104588137363 2.3171251027416893 8.593242893069013
Co 4.940836561807173 3.3221726411540384 0.8305968572140058
Co 2.2341164536771787 3.133977011312406 4.791965427332796
Co 4.817406974088597 5.492132583411388 6.792820297115287
Co 3.429000044369661 1.7477418244995457 1.591449395635135
Co 0.7985689077735096 4.686967081809868 5.767123207753383
Co 2.9246196166707805 5.422108792960564 4.664193966983085
Co 2.7508340518109318 4.280634420294403 7.031523838812604
Co 5.953740218120291 0.4116339663555471 4.1569365381891
Co 4.624709954985988 7.373378903989623 5.311231867791705
Co 2.272587017777219 3.796484520647538 1.3677193119981863
Co 6.707082673990634 3.9597351344748715 6.1051302601961535
Co 4.2662159524188406 6.472740806004441 3.0039194981453186
Co 4.47353995121779 3.5736050327233007 5.404438325003939
Co 6.516029271116143 5.025007658551674 0.08316924146015175
Co 2.222869970544737 0.25754150235073847 7.503947749720323
Co 2.108860267198389 6.0497562996692364 2.3355181076606955
Co 5.798377952491136 7.020014313917013 1.193729988283518
Co 7.716497297032006 4.651396228638756 3.87288719245056
Co 3.4080249738369384 1.869186386034663 6.441374771237256
Co 6.154298035085094 2.8645628129853273 3.8567923663217636
Co 3.9590174934485516 5.494229588310305 0.8746019844377353
Co 4.82074054605879 8.657075333834667 3.2618080074117346
Co 8.788598882614318 2.563787885113773 4.730410493445256
Co 0.8125164455592344 6.474970886814468 4.3228604939379895
Co 0.9276740334797698 4.3038547550169515 3.296192784350777
Co 5.684408973471179 1.4220632892052814 2.0980519634136927
Co 1.829738221945261 0.8175811883532637 5.079199785709736
Co 4.904275148675486 3.241466075647303 7.706531002179913
Co 2.664533365099466 7.803056212234091 4.07766473960965
