47
Energy = -275.72048841 eV
Co 4.6706179300372055 2.937030253904369 9.716778901921046
Co 2.4164500577579533 2.7092447447551153 10.37095642868768
Co 3.397241310010558 4.905960948117963 10.427633672694887
Co 5.754913110299112 4.7282342805423 0.5792791119319212
Co 6.203563288754723 2.3498002317828766 1.0781080955334938
Co 4.110242936367869 1.1052614797717446 0.6615004870757708
Co 4.065168612879312 5.581249605229711 2.0995436494464776
Co 1.9951768322368402 4.483633068156652 1.8282236847928957
Co 2.3090906683658026 1.9524586432669435 2.0828212418006524
Co 6.568560358243882 6.073227500414096 2.505226492466827
Co 4.0422772428900045 3.2607466243495913 1.360296306827022
Co 7.811519160391498 4.098883599241915 1.7147430509026107
Co 0.3102838513316034 5.426127419029898 3.198828246592785
Co 5.758651631028928 3.867725546832044 2.8066222815615935
Co 4.632005393459583 7.630148104560903 2.9128602883430825
Co 8.078772820769085 6.8075947083123305 4.136028571930859
Co 4.9266089552237835 1.5228014971332546 3.0353634936032385
Co 7.2804878228146155 2.2091643493150235 3.323702920512795
Co 1.042795197397779 3.20888741028583 3.598546404002078
Co 2.268535339974812 6.950993710021288 2.6726903732944263
Co 2.554725826600145 1.0078369155800395 4.103285276956488
Co 3.505372299692778 3.2447034822771825 3.769031183996534
Co 6.869300858416758 8.299128555573517 2.811198555103111
Co 4.914545288047657 5.545394481016098 4.351459808349232
Co 5.984052434976698 7.566447444284101 4.887300421536258
Co 7.756385300583399 4.458110474006042 4.011873482963225
Co 1.0065049825199883 7.005844090098076 4.814712010454079
Co 6.443981800084551 1.1125035441973077 5.153980422677969
Co 3.385967252205652 7.343558746178088 4.8442916559200295
Co 4.188906544190747 1.6634701042879698 5.542374803774468
Co 2.411950434933447 5.247240507500264 4.20538083716808
Co 1.9951438708729146 2.719223330064424 5.6401071871405755
Co 5.735906060140621 3.3509215250026196 5.0578507236734795
Co 0.5862566937991066 4.653884933363084 5.568382953317778
Co 7.716918307680894 3.007158209345922 6.006579278962999
Co 6.845001766684891 5.556213874758983 5.783083790493808
Co 4.720021441630364 6.4037547136171575 6.59402275714145
Co 3.7552335091410884 4.226897524939542 6.055638321267544
Co 5.83714513844033 1.9673021046677748 7.292549246121656
Co 2.2731824849924283 6.046100184236907 6.613770338790545
Co 1.6279939362309122 3.969241768500401 7.586378609647507
Co 3.5296292970662866 2.528644916551659 7.706857074296203
Co 5.868463246057555 4.228580302245266 7.342129834863065
Co 3.8310705978160153 4.971086859235165 8.309420187572508
Co 5.01634691357016 3.1776058841066286 9.268333806210865
Co 1.8193813411143316 5.757814458226752 8.955529739495924
Co 2.661516245453765 3.616023734291562 9.716778901921046
