41
Energy = -238.19362483 eV
Co 3.17431499405832 5.822036473573188 8.905445154786404
Co 2.662524962639006 6.259621285001869 1.5048156805839619
Co 2.027237364098605 4.147484218309812 0.27359761379977676
Co 6.211404862436189 2.547730599310014 0.7273812616838143
Co 4.809623137224818 6.682318657169856 0.5707981839407252
Co 4.529112677757202 4.352272802325598 0.4225836114709662
Co 3.7790121478722627 2.144658379542784 1.1487090825170776
Co 5.189022555425559 3.3858519481330007 2.529007884273516
Co 6.656402298503024 4.8536050859587485 1.6702415340285781
Co 5.5550854829431024 1.1123141323954315 2.797901807825334
Co 0.7549207044998866 4.714615499649667 2.334969499816511
Co 2.227545589111314 5.9028601715532565 3.8284882022183693
Co 3.6851938150066044 7.719573475366221 3.445704122441958
Co 6.124317699217975 7.239302307778306 3.82913866617519
Co 3.3495170374175087 1.8736718461345887 3.4796321797478535
Co 2.9224975276104233 4.037251102810024 2.2895651639084056
Co 6.880511513071415 0.8693825530248204 5.0603558531402
Co 4.734483944333556 5.812645298951366 2.608475957529979
Co 7.313842682624182 2.760941188486189 3.2072821273939605
Co 1.4247169530915413 2.3364089955901655 2.0913177400041625
Co 1.5486485665233531 3.452717633308078 4.223485922601292
Co 3.893930793629519 4.21686316697371 4.3394811614935405
Co 6.4476755776630466 4.841034173364588 4.1608648344177785
Co 1.7930480942733893 1.200375225635759 5.131745574512691
Co 5.50402437439201 2.562648508664731 4.660179138414163
Co 0.5915712121090454 5.28788559615621 5.310373533032879
Co 4.417913610795426 0.5696680968040886 5.176497029732031
Co 4.503717127497258 6.218543009673949 5.046475480880883
Co 2.657827850022826 7.355896535227887 5.711217695247195
Co 4.97545437305935 8.267574310202866 5.828542876684564
Co 3.4144749182263348 2.6782349203690576 5.915037874288955
Co 2.6237041347856103 5.038680957516732 6.263205445646179
Co 7.367394234045455 3.210861140237388 5.7265019329052
Co 1.2623311049327768 3.1177343635150874 6.502097270560768
Co 6.525596113631672 6.369898552201248 6.0721568570734625
Co 5.378873677341016 4.319772700353222 6.410284655704777
Co 3.1286464312668754 0.8609734541820323 7.173334012069386
Co 5.4279261923463675 1.9200517882946913 6.965476115196075
Co 4.298509721533297 6.2551299968158895 7.325877804250611
Co 3.772281880404509 3.7581354974046564 7.934420478087055
Co 4.280981162484623 1.748593451939481 8.905445154786403
