47
Energy = -371.37311538 eV
Co 8.22115334831752 3.052040586693523 4.115897175434152
Co 9.86830947505247 4.146161300687035 5.313222588718238
Co 7.731134556362629 7.227238556786047 8.911589310390978
Co 9.228649474544246 5.85242200131476 7.030412780055543
Co 9.216195485547342 5.30693246393826 9.306801693889655
Co 10.006298967075296 4.687019209369514 2.850879282876941
Co 7.624627121806304 5.253273410909618 2.698054775568457
Co 8.952015187342354 7.134221814696254 2.3464654943034
Co 8.396602604368193 3.29177734387855 7.091872263635335
Co 8.019635229329904 8.378739970736188 4.150597088199747
Co 7.509217389283032 7.214735382651741 6.572505071470709
Co 7.625569345257176 2.9134247121595624 9.499658294479003
Co 7.232541068698123 5.227986489524622 10.715411771549068
Co 7.13847477946683 4.8388858172244795 5.4666677408593145
Co 6.941330780592344 7.465808257956411 2.144890453920511
Co 5.213497876647703 3.6007100409931216 6.965853598512877
Co 4.952506223029983 5.703710453778875 2.2644776652460696
Co 6.383155716411679 1.6601262332148268 8.025325533182619
Co 5.911564490967485 8.855176098925817 5.429238339236781
Co 5.247777430883696 6.4809900695671585 9.40160012368639
Co 5.647098519003886 8.282398220829677 7.770953567131499
Co 7.0047747291879 5.036499585759277 8.053998167400502
Co 8.75211690583359 6.283810210005756 4.603604161203623
Co 3.7110558565139478 9.512553330291182 6.939860457532338
Co 5.4236957799472165 3.808536682751497 9.364002739626082
Co 3.987929706653719 10.079504687207216 4.490574237511209
Co 6.18375891265607 1.3000985447239586 3.4210730142709793
Co 6.868616344546536 2.0999905958156755 5.673562688406319
Co 6.282063007165776 9.765886107105393 3.1045488938884147
Co 5.248040205109154 6.091165248310381 6.820895274004464
Co 2.9949031826228785 3.322755206783903 6.454222396022885
Co 3.959096751761376 7.679147225897275 5.619298812634391
Co 2.0848793478461523 10.1605652815621 5.686159214134234
Co 3.182436221663128 7.423104586549351 8.111486265780254
Co 3.7151431055088624 4.906115083245903 8.18741812433958
Co 4.506929318969953 8.053463283367151 3.1683681226268288
Co 4.297612155871788 4.921136337223305 4.878319280389368
Co 4.295520056084129 2.173639948039111 4.789540984511134
Co 6.155669771040821 6.6206804741300855 4.379353345934071
Co 5.941133513458023 3.7371872097712697 3.4153840263898205
Co 1.9983844952845253 8.439375264376043 4.055764537260465
Co 2.7029015412918853 5.794845113219856 6.380740854440368
Co 1.5148227468320787 8.114983239635734 6.199737146074045
Co 2.7263117709295743 6.287721711266388 3.8002509591234994
Co 1.6451875504095894 4.163760959023549 4.460243595934931
Co 3.3236997117651805 3.625258273632252 2.999486624686559
Co 2.107087661363553 1.7055627947762706 4.550856883830655
