40
Energy = -230.41621747 eV
Co 9.862278616237198 4.809071462133433 5.924737435737301
Co 5.971437621220237 5.973077061097902 1.8054891262813597
Co 8.701909868115457 6.105375970009479 4.399638443502242
Co 2.9259772597129765 7.229628221098723 6.217092395175728
Co 3.447029161929597 3.4106809754924123 8.537963458852172
Co 6.604063890130795 2.8688130678659434 5.996499956327201
Co 5.517882505190243 9.323777019815692 6.739357122608058
Co 6.844573820523351 7.793115809605181 7.824999406246497
Co 9.747670150828155 8.898459599458363 7.644722444553136
Co 6.598311742568862 9.578459797735992 4.380989689794968
Co 8.861287917357682 7.1728502253953685 6.510287181806887
Co 5.530590072532669 2.8770115430581544 3.932489971964436
Co 2.932263274840743 5.0310427146987395 4.941577764530884
Co 5.19870725942346 6.743317370328594 6.382890120879642
Co 3.5821166919962386 5.292716670818509 7.277870591492207
Co 9.116771897085913 5.429486393609032 7.969201476472269
Co 7.8360132968974625 9.454019029126718 6.368921845579863
Co 3.880071243764449 3.178109769965173 6.100205327360674
Co 2.910589888431988 7.1483172386603995 3.8941758305084253
Co 8.44853432037515 3.567187287405443 4.610620181432632
Co 6.8988303341903885 4.910060422025538 3.537710421312551
Co 4.404205602711149 4.663591353183502 3.1073098389707763
Co 4.45886335144546 7.5388794054232 8.376721969763834
Co 7.456278637400074 5.113315765201689 6.130828971212418
Co 5.230750726052137 4.75812661349838 5.294445051873238
Co 4.465540183652114 8.600581986418117 4.934970194455966
Co 5.198556867220841 6.766612952020071 3.750030735747589
Co 3.1083339687241565 2.9317888300389496 3.990436026165232
Co 5.48575939301409 3.7201049148350145 7.777608144100808
Co 6.45957414721002 7.1255510146100285 9.991111241711527
Co 8.710778582194004 7.476386469022953 9.20230198924962
Co 6.916054129611 7.50397454074852 5.251132393470178
Co 7.304645816832948 7.63872502836825 3.039968279291436
Co 7.817618778651043 3.5136102573936303 7.880217967352701
Co 3.3176508807105964 9.225256153291044 7.211745940078742
Co 8.936112934484061 8.482407552632317 4.419892690395422
Co 4.607143456590962 5.472644288929288 9.36651909329633
Co 8.104341178392543 5.51378461267381 10.083662364902901
Co 7.85385085421876 9.572388332141818 8.748055366286094
Co 6.679574008363293 5.520236610997027 8.378145880088091
