40
Energy = -232.58446136 eV
Co 4.406433293342531 2.7320531433194417 0.2881741562930697
Co 2.369174554377922 1.1103162724154465 0.400100496670516
Co 2.178713185714338 3.8487771806846474 0.5313719644914666
Co 4.144456797579221 4.792926283172886 1.6143522017231167
Co 6.45842681958591 3.871539700787455 0.802447035308716
Co 4.678333029807289 0.7731860639368582 1.6325242866282623
Co 4.514786239015355 7.060596788123639 2.504013161778605
Co 2.2420615810309554 6.3050297211411035 1.7888830780396947
Co 3.065837518924166 2.3848281440397168 2.115127131455064
Co 2.3619741887795973 0.29596302117280443 2.661497556071567
Co 6.506563369645914 5.889953665842456 1.8393178382225024
Co 6.9425771010573865 1.6290898208411866 1.4146907170247514
Co 7.394868855828059 4.6496037661212215 2.0524071862135917
Co 0.7501792398365845 2.388005110130442 1.849982211645267
Co 1.7771663007351468 4.2490384299014785 2.788697893024002
Co 3.707827198351271 3.601512902322235 3.964602471204784
Co 6.415607923830033 1.1883273798756897 3.731607607724764
Co 3.151468890971669 5.834419502171111 3.8806329711338994
Co 5.379401117981955 2.868935480419025 2.5210514248967595
Co 2.4832650323039003 7.981431348422452 3.898507490058533
Co 4.134513133948099 1.1414397900648723 3.9885869479458544
Co 1.7037356550872096 2.0526651327443326 4.14622485361411
Co 7.031175702592904 6.738091993897087 3.9953530974138833
Co 0.8342729329903111 6.132408352124572 3.7570574116750124
Co 7.647315798576323 3.612566930945908 4.131244049438057
Co 5.801155180548266 3.029868870520256 5.00892247736134
Co 1.763584984734643 4.427505454379936 5.366427610378036
Co 4.818793809294115 7.115430176478317 4.873497436579571
Co 7.324805304029123 3.9273505123053205 3.115232931126377
Co 5.440725185710966 5.133620199058665 3.682487381874912
Co 2.6560548859592235 0.487512367386666 5.730067249343312
Co 3.403917949237544 2.61874517694937 5.905015703138325
Co 1.1986068316945844 2.3952844454100655 6.4312640096653055
Co 2.4944106422162564 6.631729198205013 5.900953399875047
Co 5.094669797944266 1.0562257096696788 6.175000399312665
Co 6.518083347144827 5.125479627804179 5.723444392434029
Co 4.2314354813754385 5.007115574562435 5.968701676496458
Co 5.133074249957519 3.2386979427634563 7.310845590511689
Co 2.73958747480171 4.031610461302425 7.546412249595685
Co 3.417587143291139 1.586809433920352 7.908963327944546
