48
Energy = -277.2259235 eV
Co 4.699582509725412 6.3465242148447985 5.555734083439266
Co 2.2405115875476382 3.9555366208218126 3.121826829846538
Co 8.065619206508561 4.146004798100581 1.946207347156473
Co 2.2660403361280532 5.992441703361957 4.805527129838742
Co 4.373512381135989 1.9268338363536825 6.210160587426439
Co 0.17904706887717883 7.112854267501486 1.759642932921347
Co 8.218324422909653 5.985427243542001 3.5621271168741897
Co 4.588232174397471 2.461582285903842 8.45434367009783
Co 2.7786129033529265 1.626200970252179 2.8345871208722024
Co 3.7202331488980964 7.925843540449005 3.783410478508113
Co 2.261228207069415 2.0366603207568628 5.0089568289931705
Co 3.393786396979487 9.633147973269649 5.365741243819641
Co 2.5934187841934344 0.9509052565692689 7.32452757405551
Co 1.0548880161771235 7.796528421030324 3.9518870788977765
Co 3.618681229918699 4.912773941303183 1.1419190454170325
Co 5.834668317057233 3.681899977815905 1.1129536894203045
Co 8.922702264126011 1.845970662505847 3.1370177550525904
Co 6.76300271095052 2.3712057208266697 2.8387863037225993
Co 1.273995130527174 4.107346350486391 5.5758803695827055
Co 6.046856238672763 3.179687820715458 5.117979275620421
Co 1.0375115561339572 4.858012992307335 1.287592737343664
Co 4.7994962409063575 1.1729690667195163 3.94000287149617
Co 2.321489279467972 9.633147973269649 4.319515361686013
Co 3.0203474348198434 5.627321013970978 7.000337873446173
Co 2.641203787650439 3.263297669310456 7.254601001067675
Co 4.813884665237081 0.24240886581250345 7.758248791828485
Co 0.39721641348802067 2.905596838668403 3.8197959331253597
Co 6.803522736323211 0.16122350761930693 3.333614918365784
Co 6.030635255852909 7.0560411585084655 3.61266044275305
Co 8.323851231656572 3.7638626451527313 4.285117556749113
Co 5.125702884612025 4.336706442397885 7.033638589327741
Co 5.914922304251145 0.13657474879833495 5.687036045753
Co 6.506215227286763 2.0011571252858866 7.113386728657392
Co 4.23689416773548 5.6222740597846625 3.2918010314736943
Co 5.035272926181357 1.3561800474606727 1.6708607051345854
Co 2.133891367367261 8.646043847563252 2.0525891771386484
Co 4.426834506656762 3.2736266684298543 2.8914400192863443
Co 4.124919681189251 7.269040251069127 1.4866148492547635
Co 2.198136563600532 6.393423809059393 2.4877294868429893
Co 0.31248972741914394 5.348931426615955 3.521708705547148
Co 2.849876768429638 7.85496352665463 5.946696855700941
Co 3.626259003022777 4.509467748135391 8.917393236916986
Co 6.001863023503943 5.972233530147835 1.4964129221450684
Co 7.661561662137853 1.4921704444049735 5.014597571404602
Co 3.7018210672375287 4.069187389935731 5.167891607708518
Co 2.092743384029048 6.806888584406466 0.276181350221984
Co 6.813473573955925 5.3655896524068885 5.560557081367568
Co 6.3546178738886105 4.699632585958959 3.3623574358863224
