44
Energy = -256.60349222 eV
Co 1.5032709763087186 5.858822463879966 0.6700436621376097
Co 3.6146553359115736 3.8908710292150137 0.19907765207188324
Co 4.4538208815973315 6.4098413122489175 0.9064359102814702
Co 3.1169859769679027 1.3920384771332805 0.6344516511118243
Co 0.3773911166179224 7.531192946675729 1.7873503367164394
Co 5.485290354724059 2.151925096648061 1.155253036574917
Co 1.4508633883620057 3.4522569108939853 1.3770725410472417
Co 5.439066824718575 4.4355260225448685 1.793849032647041
Co 2.6212782690105025 7.419589527528735 2.3510873286819685
Co 3.0224361831530686 5.117159757268881 2.0950836983581542
Co 6.762372691960902 6.328181028742196 2.2009118637471357
Co 7.429735019350701 3.1326601762489235 2.3006182981777217
Co 0.5460139790871545 5.362584025249042 2.797921343707097
Co 3.5644654625905354 2.8251848378033255 2.2525002092540256
Co 4.307087502994583 0.6143511498674342 2.648258430470831
Co 1.827480390172593 1.3846189354931473 2.9616151257439105
Co 8.586411181802609 3.008471481755087 3.4067419079953085
Co 6.801388166524913 0.7871831821170118 3.1621556201780647
Co 4.751067421675776 6.61225907706604 3.22527826403561
Co 6.66764466082193 4.749933033483058 3.9220213642967647
Co 1.895923984493833 3.6655336691675897 3.690615287822232
Co 0.8874901187420147 7.4342778833225855 3.981693143876103
Co 5.521529326845204 7.836795923947419 4.064921699425004
Co 3.3882088051904335 2.05916251991873 4.592266612615336
Co 3.5843797030986813 7.83679592394742 4.799739625270766
Co 7.42294123746967 0.3637028650322012 5.3209169422079725
Co 5.563017961230817 2.607348616691556 3.514830979665398
Co 4.2573977501227125 4.444358365658892 3.9806240110355264
Co 7.388419395576681 2.6996839196542184 4.977153899622191
Co 6.454224615913216 6.925881026150445 4.7307943290425385
Co 1.180995522211489 2.398428932833875 5.508198286406635
Co 5.207589142587354 0.9056968212311695 5.3800299266496925
Co 2.4588483067813334 5.9574850061879685 4.3976354591786535
Co 5.275460837930778 3.445850118671753 5.875462853523885
Co 3.2433004333059903 8.553139292497484 4.490004637155796
Co 2.8619489237681064 4.004216429825633 5.842609527584703
Co 0.6605428934538058 4.745484668454986 5.3889343623006525
Co 3.695029741997406 2.1365916108083614 6.980222348406369
Co 6.447396181113974 1.866050299784693 6.991269742225363
Co 4.616702831490829 5.939340442329806 5.803413042357033
Co 6.800821080482052 5.0610575127234885 6.198805516069668
Co 1.5861469807889146 4.0198820863611635 7.6635097558610905
Co 4.070822191239551 4.488418905777685 7.6895789943659585
Co 2.401785952574709 6.086038223266789 6.742469609517499
