46
Energy = -269.14425553 eV
Co 2.830796409235 3.1868317098270804 0.533275367719026
Co 4.6340078409156416 4.565424446635563 1.1829829185237017
Co 5.003089020986893 2.1402662858877024 0.8329297838907933
Co 2.429299092240179 5.601103769909334 0.9992673510461285
Co 6.811156940343726 3.7543235066105836 1.2821619047729558
Co 0.6385468948685606 1.9789838961066042 1.0892853500014594
Co 0.50206599789954 4.265889656737328 0.6859193222374094
Co 2.615966724129703 1.1870347111796034 1.9252415118773805
Co 4.007428820520717 2.834071906498629 2.7466008630781134
Co 3.255685144955806 5.1642021413156245 3.125699814661659
Co 6.616434704713788 6.013163744954011 2.0181965835844564
Co 5.529924797085205 4.590976477174382 3.437548307194092
Co 1.6904908095879643 3.4450911281151484 2.5423913843440453
Co 6.312197907650335 2.278097933233919 2.997180326050451
Co 2.488152493308875 7.313653264916264 3.2768317269705367
Co 4.86294383138748 0.4989695266930074 2.601659396272435
Co 0.8119657915760459 5.5657720076175075 2.7419009827198564
Co 1.07019240948884 1.6387638051709006 3.785583705274652
Co 7.05870132585451 6.350599375537196 4.370743435545742
Co 6.213677120551471 8.055458255892953 2.92001014250792
Co 4.358783761369512 6.8623958715367115 1.7741331962763076
Co 8.753888707534125 3.4137429990284183 2.5582338756492367
Co 7.819061061013616 4.2181793303413775 3.417797532725875
Co 4.679981739084097 6.894308178629288 4.106609714482783
Co 3.324501967677956 1.050018355802843 4.2893711914206225
Co 6.42424018125912 4.476391560295174 5.644848166783042
Co 0.3644815758240935 3.8082874603114454 4.600333782374723
Co 5.858033896229574 0.6266561059873006 4.83215510100295
Co 7.446079010567885 2.4370363325447393 5.065214756241711
Co 8.753888707534124 4.793506063935857 5.410909568434234
Co 1.671898665865868 5.7695208439693415 4.895413277628528
Co 4.956520749206276 2.7206675038917956 4.970231992261543
Co 1.8029631929579475 1.8287071956107872 6.151247675518547
Co 7.597376534887656 5.963739177843443 7.033103823169292
Co 4.0314852246790736 5.039385313185605 5.526881637982389
Co 2.640119436800772 3.304344486953057 4.712466299302168
Co 3.191092195257743 7.313451110336017 5.821683494049049
Co 1.3385713258088692 6.542137278869379 7.025807975497674
Co 7.922008780495337 3.675892900680136 7.255153217030006
Co 6.041127709357152 2.365222235172886 6.998958297981911
Co 4.096497199758219 0.9755351648288867 6.468638906319914
Co 1.7381203431775119 4.268665226830995 6.721217812473847
Co 3.4544174365505196 5.762033579323087 7.604078374308127
Co 5.530732620334928 4.665021709897497 7.7279563158144615
Co 5.510629106414719 6.673912275738029 6.341489459438857
Co 3.753882423626399 3.1896827505069836 7.0177729396236215
