49
Energy = -284.09761281 eV
Co 9.476992998173422 6.973079607804895 3.706009637158988
Co 9.877203976772602 5.118271495316326 5.066483381258258
Co 6.033815351478939 8.70526787437325 4.279767418190255
Co 7.27400120552094 6.682037166416381 4.094802957595149
Co 4.583346493472977 7.000475177866889 4.78515132999039
Co 9.084366378353804 7.154979936813637 5.88068577918597
Co 3.7884439400452745 4.769022181956719 5.165576858884437
Co 9.797049222368855 9.237656739348202 4.755541060517734
Co 11.5331741837298 10.750247512432527 5.639415445281707
Co 7.738044592767723 5.165353873815104 5.811945366466485
Co 8.329355411019455 11.039868971597866 5.2674862860229315
Co 6.396967006369698 10.000736513342249 6.132922434720637
Co 5.728288006071423 3.6298188013454897 6.039911251261345
Co 11.133169982254465 6.47325627635251 6.694998938188925
Co 6.801521032813789 7.621738931317175 6.159510240533012
Co 5.443821258945792 5.813071127539932 6.576507886201476
Co 3.058821368347954 6.494166089723609 6.551151413639356
Co 3.859865783045713 4.35696596235326 7.494836890910822
Co 9.896846383448255 11.273361486633345 7.053080068530534
Co 7.5346421942655235 11.229532235908104 7.796781232212548
Co 10.958220965141523 8.884336052485564 6.775495855383867
Co 12.963783454436316 9.738250873627083 7.380118053832409
Co 8.52340474716306 9.281727041297541 6.670806353768324
Co 4.637491292790804 8.37824531753906 6.682601658479284
Co 2.207159794554935 5.6282681515430095 8.395791065063579
Co 7.483517201414076 6.17497494354457 7.991818772983921
Co 5.390054049430236 2.7187996959603726 8.141824549567469
Co 12.159300463993816 7.695552960964101 8.395333406103285
Co 5.327773670974162 10.127466213749305 8.223276987459968
Co 3.3577091849177236 8.781303214587222 8.492217321261846
Co 4.313901373875514 6.661644664357914 8.60079973238178
Co 7.410448222719488 3.752245449130763 7.647029008785875
Co 9.471944659962238 5.182020713418559 7.627894132105063
Co 9.031864784081904 9.898421303795452 8.886714156186155
Co 9.69536567347956 12.023703884362492 9.27084868740157
Co 7.048115692145053 8.470533850941736 8.450993514891929
Co 5.152646619763077 8.511953570892274 9.90767295024188
Co 9.53859079817928 7.605519250023817 8.21100589373604
Co 5.726163764775225 4.85315393339614 8.937271016255567
Co 11.376913370773908 10.48178335766319 8.732088472733805
Co 7.848442885628302 4.540208857543813 9.80967574707371
Co 10.766727432884688 8.544947122160718 9.95273389618012
Co 6.997167496094025 10.129171431008812 10.079989289230276
Co 8.47018416740527 8.330893029969085 10.58384781131366
Co 9.33747364497575 6.256771874626802 10.010733127663798
Co 9.761739276032712 10.37828006209162 10.995149169152883
Co 6.659164366069628 6.704882932236907 10.191198543301995
Co 6.532807072707475 8.44609645102793 11.746067976291807
Co 8.016739051232042 5.864487780661695 11.790988921282539
