49
Energy = -289.21800303 eV
Co 4.288085909383619 2.0193468930947733 6.669102258787324
Co 3.8344261263554684 1.3287204832011201 4.488483351539377
Co 4.264668054209472 3.628518471605092 4.608301106716437
Co 3.774504203308304 7.975851472557052 8.340942000995073
Co 4.32826634795707 7.810257670678089 5.868915541038868
Co 8.118736246185405 2.62749881223439 3.8642500625897127
Co 9.739688191582584 5.940645249832095 6.596936245130161
Co 4.492878756092575 4.6521148492156 2.4535979992908072
Co 2.119233423588011 7.445920769043168 6.819641246042935
Co 4.727346310943213 6.088066834717973 9.715230598650654
Co 6.489862095255025 4.577728521768815 8.812042061135404
Co 6.7592187883668915 7.890844812927798 6.232174384578761
Co 8.432185606811444 1.9652969595729246 6.107472919815067
Co 6.120216307925755 2.0166902612938973 5.151041495431445
Co 8.667488274710824 7.82642791817283 7.7507711402770045
Co 2.187636348370459 7.316415737760437 4.5562542531424794
Co 5.755569351421018 5.826781970891426 5.092394494045995
Co 2.9086489329848377 5.68782706108043 8.180741223864967
Co 5.396936479374025 9.376683117049222 7.550922462832058
Co 7.662191907906928 9.813621585232863 7.087669699065242
Co 4.180398585837386 6.658214948060425 3.547616999738913
Co 7.326703736257702 3.946327437690721 5.746362056128656
Co 3.080536144701846 9.604264312872905 6.402181176189573
Co 5.227545605739147 4.1339524259320735 6.723109673113663
Co 5.12928997422567 6.274719827828291 7.490991638049882
Co 9.145202731615788 8.10486904580285 5.509133333508975
Co 3.4706260604437973 5.667107300634534 5.766316908293476
Co 2.7882172916477534 3.724566731403872 6.96386523278492
Co 6.4902137344482185 4.144477432661291 3.522088252144881
Co 7.651130559829262 9.61728611989232 4.675358700380289
Co 6.632664649408662 2.524439904495035 7.556337852527815
Co 2.422306630204127 4.9803919851991685 3.78984898281813
Co 8.767451535170922 3.9286167717052027 7.5325621723494045
Co 5.33777519097944 2.261534570744279 2.927491980720199
Co 3.003098613769961 2.7955763837641316 2.7916621775460553
Co 1.2711210488748397 5.244192580365349 5.917454896610619
Co 6.495646044858891 7.633167867398463 8.702962658831764
Co 10.230448039348046 6.385949110282377 4.203463442336641
Co 8.047702307622615 6.107514928775927 4.920319610783078
Co 5.4861592100889105 9.9570543779762 5.397787830742578
Co 2.0090462075923528 3.0056739850090626 4.949278997237456
Co 7.494543021587098 5.868048847930675 7.273835983549664
Co 9.516139530643814 4.190691240765109 5.044107130183929
Co 8.29505589230191 7.697719087095965 3.2933146338318537
Co 8.60395922489192 4.976489391272362 2.9959955546001904
Co 3.7237725720126416 9.098391174981659 4.090603832126269
Co 4.311064231328881 3.8463439168115197 8.812962158741845
Co 6.005881137994939 8.104495433214273 3.9935850245577362
Co 6.444012972659202 6.250136550503163 2.6954501288528987
