45
Energy = -262.98987781 eV
Co 3.169850630333533 10.007018557201617 6.820095106564894
Co 7.913476068551173 6.606685570680255 8.246330715811348
Co 4.847056005254944 10.377194491603841 8.482279580105002
Co 8.99749275652449 3.947896233844331 2.8495023717126773
Co 4.437870576727897 8.259064071358477 7.874357287699068
Co 6.372572923407344 7.571838765967167 6.6426069839989585
Co 7.460416969156408 10.4958770517134 5.359608707811129
Co 3.145802249486783 6.3237697365023715 8.182476566454865
Co 8.059946140596374 2.920061264371951 8.25382524801695
Co 4.536412944893958 5.947278298439216 6.076033965821239
Co 7.536175921012096 8.345322329918142 4.660102460808019
Co 6.765805200764627 4.802356230980791 6.978236137919202
Co 7.940892586939453 2.327908226603784 4.211844745052884
Co 4.897414740045827 7.78472428734782 4.582652293901967
Co 4.750535923483679 5.660046220775558 3.4586203501605377
Co 5.836963056564083 3.9174935812676246 4.894371322667125
Co 8.41380036571996 4.470358303490843 5.039535139092844
Co 6.579241253937677 8.477957839028234 8.801329805455953
Co 6.453635447168185 7.301263610613571 2.8418494134344936
Co 5.835664162407667 9.666394718823701 3.7230010943930503
Co 6.680681114574953 6.092218138448235 4.8180713270971065
Co 5.689315464490195 2.980006816650867 8.262540993385283
Co 9.118285959170707 4.743357174156094 7.314725161206412
Co 8.631546696802427 6.65539834776651 5.999194101226147
Co 3.901515029288071 4.213751485670141 7.524712947428886
Co 5.723721441459218 1.6975303487830284 4.214736937410629
Co 2.9296678427677216 7.801808202363193 6.177510252539336
Co 8.566637745371306 6.308426635916352 3.4853661609314592
Co 4.861396823280897 3.412638910352128 2.8317004638454564
Co 5.338446630865139 9.749870247957459 6.041432771065073
Co 4.56061053011022 2.3328690878468414 6.1367257040463405
Co 3.4336166095298637 9.478197226305367 4.5735725395534015
Co 6.95949617728103 2.423424405203651 6.316144624591267
Co 8.364419457727351 8.787750575457526 6.897477834882004
Co 2.3192518047901047 3.0255557050059796 6.478413045381017
Co 3.498067875438981 4.039114088840518 4.794512621417727
Co 6.881426587820138 4.747806850769209 2.816312596613831
Co 6.998771082529662 4.672279414699385 9.320283698501536
Co 4.605010163420015 4.526778972248482 9.67208044003487
Co 2.8227165249509163 6.543742034958938 4.303839710171475
Co 5.488082114956384 6.222107342307604 8.46833834074252
Co 9.287587201170373 2.665433939460582 6.205003117252017
Co 2.2084806859332433 5.421290735021748 6.233502224672286
Co 6.93271403845654 10.40878535198985 7.613947735729282
Co 6.9327298489961 2.524569945446157 2.20641672755163
