48
Energy = -282.24075708 eV
Co 2.7571889858809167 8.306887276171707 4.52528691680709
Co 2.5122521519117877 0.5226005784826236 2.037075914209326
Co 4.576026348196343 1.393315445927061 5.191124381791518
Co 0.5327979739509398 2.345564036250239 7.328304455577998
Co 7.520529860035215 6.386528860433867 2.4855885581937978
Co 4.48029841063861 1.7742574495085721 0.6976089728438699
Co 6.671567480005719 1.9284812639587767 4.213537746250014
Co 8.153395178057156 5.9906344694600655 4.74608197370912
Co 2.5196143484430333 5.90088220920674 5.472951954935128
Co 0.8097161748635726 4.403756088303166 6.152076774660554
Co 0.5203349276700978 2.6308844231651616 2.4688390014617965
Co 7.862244946054692 8.306887276171704 3.508193022121649
Co 4.399114076473756 2.4797264328205038 7.3616448472491935
Co 2.43560005752644 1.506410196491806 6.3407684335737455
Co 4.3969096026058745 7.240440140092116 6.049340442901641
Co 1.6345422723783913 6.636080367932568 3.09530466404275
Co 5.415726319185372 5.3846886768561895 2.509557847025975
Co 6.407997655698741 3.809005119648808 7.834873624667494
Co 1.5540252867958475 4.867509833257581 1.417949844229155
Co 2.5007255327066957 2.1431370662044227 3.7706627971044067
Co 5.74074436849348 5.953097260774502 0.3329359582538147
Co 2.5965561023692136 2.780922820570887 1.5639229665757703
Co 3.8598052788003243 7.1873919018655705 3.5868027289615805
Co 5.999846336686758 3.565493809981793 7.984812450366017
Co 7.916280948442858 3.7898486830409666 5.893324291090607
Co 0.9521187253133776 4.441989792654376 3.805624282870676
Co 4.248546708796994 4.195394016038594 0.8820234095192943
Co 2.239806445419633 8.09404003347812 4.961341483394683
Co 7.406683466544775 4.496657200196025 1.228348253075546
Co 5.665867408529725 3.488362196243177 5.687358099625693
Co 0.5288458724666 2.3629776505767426 5.028796122891696
Co 4.32596516157531 5.0112406959595335 7.100711328254505
Co 3.504372027840747 6.422708588785357 1.3907384360329658
Co 7.0340225872751185 4.228773170055743 3.7345840983287437
Co 2.4216768203082757 3.651336171326733 7.676852477118717
Co 3.1186792609130367 3.6180203785384113 5.463519688473375
Co 4.626504724617143 0.9067868379848963 2.886123047154512
Co 0.6707284223108606 0.1677852292581173 5.770422131734109
Co 4.761173095143828 5.3556791520244 4.755424522407111
Co 6.1769602471999105 7.21810625882544 4.442596212731966
Co 0.6839167483129097 0.5324358137894721 3.5194246993358633
Co 4.680210574938415 3.1629728867426925 3.4912854788629106
Co 0.35437085471537816 6.477612277987606 5.032633795850535
Co 6.574906881610887 1.651584671412144 6.663761565307829
Co 5.6531289652921455 7.70187132630927 2.106265206634641
Co 6.5157509758629795 5.6763019573613915 6.353276138199586
Co 3.0934028031690035 4.7583472370664 3.097288893339503
Co 6.198529301910125 2.6830377429441503 1.8914830323855083
