49
Energy = -289.82550432 eV
Co 7.253136118418136 9.77483656376351 6.592728124103727
Co 7.382332304880305 8.45492958602458 3.93694197011585
Co 9.10335067566585 8.81455843425215 5.607225910281522
Co 7.88070775795853 8.081377170563274 8.20479782132493
Co 3.578278370149295 8.95688813414774 6.652317451109938
Co 5.454468962898234 9.164897080743163 5.256255778241922
Co 3.0624148300096983 8.241182268866334 4.497729074286859
Co 5.203942808715555 7.827903891390273 3.3458814825105017
Co 5.597420701502636 8.246676059634863 7.560415469783615
Co 9.52054927274957 6.842016639353663 6.873893719839004
Co 8.980070092219572 6.783612978565302 4.345597937831758
Co 7.540616522048104 6.515714751344825 2.374501844068555
Co 7.1960770951772846 7.4846675347233935 6.0539594918687145
Co 1.6940592747626861 7.578179866160156 6.489077946989556
Co 11.014153811303556 7.368862378820032 5.278179055461534
Co 4.771956290496364 6.959635359099022 5.579004980072734
Co 3.6816355423847686 6.807186266897974 7.712951197542
Co 6.498291544815444 5.994563634023355 4.285839697712616
Co 8.023595419218761 5.7567064236924 8.443966099009785
Co 3.1902920301626687 6.530191290194598 2.864049063420745
Co 5.260316769783607 5.873833050993491 2.107911050022611
Co 1.055423911081778 6.968717206041411 3.931926746108486
Co 5.948225697713351 6.705669175259204 9.266431018677167
Co 5.992978391031108 5.674718976607929 7.231045830772874
Co 8.058028113278818 5.232262815276262 6.027895145922442
Co 0.4662486033937237 5.391732049021101 5.608858344566519
Co 6.392233583628444 4.377819136461865 9.402347993441909
Co 2.668188019411048 6.0043399717057415 5.21168358129383
Co 1.952252110034646 5.252219816768108 7.435953506713978
Co 6.229376336667683 3.814872335828675 5.397968725449249
Co 10.302348642315437 5.056015902881102 5.332091873255699
Co 4.193641745872732 4.851891128124622 8.848748773557984
Co 9.732880736083281 4.423619720671358 7.475779256163955
Co 8.45274637227892 4.585594862705699 3.7593037330437955
Co 1.9501869499808537 4.679932103967873 3.42103863709638
Co 4.372241304105573 4.716346742581159 4.085196705991644
Co 6.458266800644754 4.071432973091518 2.7374215888335094
Co 7.588726284257178 3.4569658924500817 7.530871362470706
Co 3.8558267018030428 3.9391545645271986 2.0301152258933044
Co 4.065641406824586 4.617621960567529 6.485365910251498
Co 8.748850014232543 3.0340587584572205 5.572188026127523
Co 2.011352694625527 3.6454211431246115 5.6317660558497336
Co 7.462245257026142 2.2339847173966603 3.885919714260577
Co 2.8992478789911327 3.0854973849003215 7.767612841888898
Co 2.843503714255744 2.569410310042061 3.729623810021201
Co 5.3325435656376845 3.051938632658778 7.691345337889459
Co 5.13041051492813 2.4480323067192176 3.6460806811273687
Co 6.521963893769329 1.6832475729610343 6.009093158938643
Co 4.177254657315487 2.3713020697506453 5.776467868289516
