46
Energy = -269.05972106 eV
Co 5.115525457761821 5.34747940340905 9.592284817666735
Co 3.71133258566386 3.0737994098087134 0.3321964261931364
Co 2.8804121709708355 5.5309891660908725 0.49665199916509867
Co 5.957219097608072 2.5528025677426163 1.458444755706224
Co 2.1138560790046577 1.6370026285716133 1.5460479032201386
Co 4.253042007389519 0.8791560149967984 0.7596346216796245
Co 4.6340689351693705 6.919805740220231 1.6148741381193408
Co 6.612250203316229 5.333632148954737 1.9596615133235462
Co 4.429993353938353 4.475321946928011 1.8621134855769128
Co 1.9328736021231183 8.11211382171692 2.774343729572451
Co 2.0195770861595683 3.903247669019677 2.033429086766552
Co 7.998049545373335 3.453013066162606 3.1260047162287226
Co 2.6987447749439797 0.2874388338824502 3.30737519705401
Co 6.656413590582571 1.4965183032575187 3.779217062941078
Co 4.0519730021603415 2.144232033543605 2.7681034380517366
Co 0.48892504316991897 5.400353230494539 2.9862751454739156
Co 2.7200630869263906 6.060317896601024 2.823966293462716
Co 0.8675041345599384 2.4250404002400607 3.3934168637028956
Co 6.406072134616688 7.5789558778135575 3.3111152898237863
Co 5.877544124086389 3.68804977390684 3.5204693891985435
Co 5.016476055542671 0.023525159944874658 2.8621799511512167
Co 5.044834101209435 5.9063530291540305 3.669153290964072
Co 4.001210715623538 7.983997560821845 3.923311695103605
Co 3.4281639192981963 4.00689939917251 3.9749797118371197
Co 7.270869338349558 5.494600097540287 4.442073454946952
Co 6.3233301625346465 9.016171814992669 4.670212146757754
Co 2.4350722015975887 1.9246608616553385 4.957330788317548
Co 3.2810091819946736 5.995632186880163 5.273008103054028
Co 1.9741303019058243 9.016171814992669 4.825976357753355
Co 1.2406918787122017 6.841187270414909 4.680573715663364
Co 5.573782443305625 7.034815737085613 5.693269453602524
Co 4.238158093476031 0.14101792729533816 5.137354558985861
Co 1.307869191796744 4.356024551000364 4.837285921315977
Co 5.343384434448132 4.719339905256889 5.642607058004494
Co 4.8251928986561685 2.3624109915425104 5.160728227504273
Co 7.132211516139159 3.17951637259225 5.549285500981627
Co 3.2917459799280055 3.7744591864650654 6.309500551657713
Co 7.098424617810818 5.21456751564472 6.860140003518464
Co 6.27252208900794 1.059500830145197 6.250210131272651
Co 3.437086539597207 7.931805457018641 6.282232678309823
Co 4.156628964317894 5.634959902179153 7.478296849153221
Co 1.2585739495489172 2.970606200320293 6.833523511201607
Co 1.772351607802878 5.401134134487158 6.992010233298575
Co 3.6535309588626683 1.5820107418855731 7.0606935451042085
Co 5.3269225959604025 3.2708008347605673 7.446076344398105
Co 2.93391861052313 3.6100651315414662 8.493864891367624
