44
Energy = -256.45319691 eV
Co 2.4793962669183136 5.1860334043626555 1.9488251108511536
Co 2.7597616553590822 6.153596298277067 5.833227094190926
Co 4.312476885453363 3.9642938495412454 2.6157435311184973
Co 2.658515988021894 4.455063839795877 4.245276981025293
Co 2.6347387603620143 7.9909099170438 7.384819610176298
Co 4.248793285163775 5.143986706562342 0.5180426963990088
Co 2.490819023173374 6.7781566950649985 3.6104547223774057
Co 3.7937480712385945 5.99612217384286 7.9547149384243445
Co 4.499627468801843 3.10761875771924 4.793821649463025
Co 4.615594107194057 5.8358178493164115 4.12740691768589
Co 2.3356107408993596 8.494167857047204 5.216224763404272
Co 3.389558913725966 4.022649708084474 6.654299218128796
Co 6.418070153558226 4.1997743375975345 3.872675049014098
Co 4.60164910800783 8.161321497706364 8.536037862910211
Co 5.213076476264297 6.222648609854281 9.871834514930873
Co 6.007330111170132 5.447901342279351 1.9683658347221094
Co 4.18695815735408 6.915178036816164 2.004077756409431
Co 5.130687205806306 2.399503879816588 7.090776759230574
Co 4.781392601527216 7.262417514873459 6.163611554289678
Co 4.277143905661302 9.446037689490856 6.286102241729638
Co 5.671982108467071 4.61072628783153 6.182419456189811
Co 5.1938291849715155 4.257102017682982 8.505574325475234
Co 4.320656947128348 8.300568564179335 4.0559978148322875
Co 6.325111418013518 7.482091614728943 3.0450694155418265
Co 6.283164477895929 6.534453023270661 7.769029760388083
Co 6.688961332703451 2.4155794064583493 5.423466029235103
Co 6.043414930244292 2.378761435651315 9.336803835729183
Co 6.679078795723326 7.9749964190189875 9.628212852967382
Co 6.891681239852633 6.387737824239949 5.076695614531339
Co 6.452869890359487 8.93085689981918 7.442819346427429
Co 7.334088873753528 3.2286649382366686 7.543741878852441
Co 7.243032940191476 4.974842374999176 9.402986971098075
Co 6.403843335847357 8.739355541416474 5.112315502289568
Co 8.054407477269566 5.76307629960199 3.137618956673665
Co 8.13197884764375 5.320665250392523 6.938107203843734
Co 8.39334715927119 8.047269945069203 4.068612650284294
Co 8.353959753435616 4.066162817332715 5.057778210441519
Co 8.226499296378941 2.933355477894175 9.632972707046072
Co 8.491933491942014 6.911916077798645 8.724824750360964
Co 9.469583895225755 4.676356414763817 8.620106044796643
Co 10.341323382848763 8.138686142948115 5.504446519259132
Co 8.276894861167866 7.804781006444129 6.502539113608483
Co 10.200246220014655 6.480895310554701 7.245684097943882
Co 9.391773608501213 6.156511299087974 5.044450490216474
