43
Energy = -243.24247185 eV
Co 8.982888024516257 7.199401170162403 4.117349650412457
Co 10.353376974916934 6.349175078884312 2.564589096961419
Co 8.94286568175982 5.432146420448383 5.684547148318099
Co 9.670352446796628 5.703298600363265 7.837857969822794
Co 7.868954662761488 9.890693065383072 6.715058689174353
Co 6.988641341644301 8.07743967232957 7.783770677206468
Co 7.274550207946874 5.7214097062571545 7.5993727401856415
Co 7.136498535732105 5.7730852453743875 3.3251021704074057
Co 7.515986628189891 7.877381311567953 2.4544797413431203
Co 8.910609369193548 7.614214413969065 6.599380815005492
Co 8.675507441628858 7.411970121826175 8.96076382322635
Co 9.08939940411235 4.699226236875702 3.468660607813331
Co 8.49452894994279 6.147548998994223 1.4998101476050085
Co 9.80001293537984 9.186106359463064 5.236229429958044
Co 7.16832761375111 10.01692149703888 8.973181993234574
Co 7.615659246733417 9.06028807050165 4.619602995159723
Co 8.621143768307666 3.6854668887155766 7.234438002516904
Co 9.100923625287356 3.0596987769798005 5.10161861614321
Co 7.0988388759952326 4.039665189144437 5.130239501504267
Co 4.075444314975241 7.067539331068572 5.590970012339978
Co 3.0935664264215545 4.957255734020544 5.241188016245831
Co 3.202791908674017 5.65329536855015 8.412555457182993
Co 3.405922429376708 7.9357424514009915 9.155930757509843
Co 3.315272057192533 8.628511683239378 7.006283683259732
Co 5.735294649294754 8.2296719093501 9.94549055739603
Co 5.348696340973227 4.649107730079017 8.760918138745389
Co 4.993831463817479 5.1789504697392434 3.967687887877606
Co 5.74971975637808 7.540633880620416 3.9833427230638367
Co 5.04064250114355 7.00376349693742 7.79963625207256
Co 4.670140228153971 6.168372728656869 10.299537866008045
Co 5.137360730156574 5.149399327808826 6.393873695635378
Co 3.553573089758631 6.856400724452207 3.497203370198707
Co 5.622800290645976 8.918937067996213 5.98327994017432
Co 6.363279030777925 3.186308090228194 7.268535986118453
Co 5.066031959303425 1.5455220530384353 6.651079637274501
Co 3.876857033826653 3.483507925071227 7.408664645865484
Co 4.855466713844442 3.164815129522514 5.080085972743497
Co 7.528994001705023 3.9385331888954633 9.160705025646463
Co 5.055899815217669 9.549528892326345 8.154080109505047
Co 5.73554004870414 9.676798863360197 3.7026556585472727
Co 6.29276728254993 3.5162862264881904 3.080931996859068
Co 2.5209262850964835 6.3844639859061845 10.628652488762288
Co 3.8781982770461054 8.099599286593527 11.348738674598303
