45
Energy = -262.75683513 eV
Co 7.066068747854199 2.1147138585272 6.6004367396166685
Co 9.199217508740947 4.187518885701927 3.7947266640682553
Co 9.379916827669627 3.302602194692499 1.4780620658733212
Co 5.958546770987682 6.064306447727089 5.5435990203375125
Co 3.9420116338448428 4.43176152511726 6.584422980431176
Co 4.434544035568365 7.1533701217992745 2.877540418212195
Co 8.22634164771903 3.7243405795286986 8.063445433478034
Co 5.3275853310509795 1.0685363958888237 1.805858133252569
Co 3.123471057432571 0.7954928228892517 5.525653252766058
Co 1.9739139454112775 5.779385328612681 6.843923411731891
Co 1.6055845040777836 4.401100095178661 1.060006960228187
Co 2.8612515838227397 3.598103516880091 2.772295849045904
Co 2.800846414718929 8.057501893075488 6.52400573030126
Co 7.083523574644225 4.938566481190836 3.681778423016656
Co 4.90464705190693 8.164466898560695 5.022498672343331
Co 2.146731687188656 2.8560361636308245 6.54537908171287
Co 9.199217508740947 2.5364331047253748 3.650228674188797
Co 1.4479879714577468 2.171807132430596 4.3601748935829345
Co 3.4236519971393364 1.2412908842419297 3.0927158517927693
Co 3.456235441852774 6.417239524189118 5.136159062487056
Co 5.532164059093801 1.2608725361001116 4.525172544244108
Co 2.3522243744901976 6.003184532302959 2.8274308965335186
Co 1.06400991015462 6.471005217313367 4.788833705311886
Co 2.1984457438560026 4.479924256780716 4.861095748896657
Co 7.472149935026643 5.960968920752935 7.305924496381516
Co 7.540474409372757 2.51333059912845 4.080560740880853
Co 3.585269218872414 2.390817772558556 0.9771443002459591
Co 5.4448559887438375 3.0406821003079685 2.818256494020617
Co 8.291879444058523 6.311996391115218 5.081065830493937
Co 6.071902918706712 4.170539025727418 7.497073196784808
Co 8.112560642050807 4.120207019673611 5.864037593809656
Co 4.565460816101913 6.5803955376443435 7.254109927282378
Co 5.631935621942349 3.4614772033083967 0.5508777828677115
Co 2.5810587194532086 8.215891869082197 4.07952264776382
Co 0.16572546592415216 3.855241871657126 5.554218958098283
Co 4.739247355010305 2.1029116642335017 6.783757494962204
Co 3.7822215187697292 2.7982742596699772 4.794236402620273
Co 7.5291396266963515 3.5862745689862137 1.8961972026456309
Co 1.304928441696375 2.110733421403374 1.9419061012492222
Co 0.5267775232133993 4.449608129580584 3.2186482526087
Co 4.566255980933647 4.987509261613684 3.715425959027714
Co 6.059178142176902 5.629117033517847 1.7991272301078232
Co 5.858859106039753 3.580596038120292 5.257097624695413
Co 6.624877020522802 7.257477564890246 3.6002900444474353
Co 3.9497846517687436 4.983173364686154 1.2918615202966004
