41
Energy = -237.42922291 eV
Co 6.9948773811865115 8.737831861071749 4.638721698413145
Co 6.741439761683739 11.096816540772574 5.85878144877031
Co 9.000968013658088 9.49434700945921 5.556468462335273
Co 7.275947588097692 6.331256365897726 4.264788938267681
Co 5.805705726871816 7.244722440719834 6.0084075601221185
Co 5.020416427285781 9.500224191086076 5.772948052486505
Co 11.174377498873222 9.517443236706463 4.990383243645978
Co 9.708881933789668 6.651902748246873 4.318638790243762
Co 10.371967664558907 5.5513191224678655 6.274890215279957
Co 6.700563087199218 5.080609781288292 6.262010380521904
Co 8.391008680567468 7.169447604349967 6.0729224418199275
Co 8.655281198378127 4.680419295406107 4.972837423451071
Co 6.86661964944259 12.520714195307084 7.869886077208593
Co 7.019472038732682 9.09728586547281 6.968329269636747
Co 11.90288593930379 6.328087572439031 7.956940320284561
Co 10.698842397198463 7.847046441525236 6.398920483537832
Co 10.7795403224448 10.162578186427755 7.184878723560352
Co 5.151759802068068 3.8494251213165778 7.279847500969217
Co 4.808785641707141 6.040869540005483 7.839424204794336
Co 8.533910782737607 4.6922294521592045 7.602370256435156
Co 8.616838696187173 11.071351076987256 7.284748598572081
Co 6.497649152066401 4.662043090671563 8.892615508942816
Co 9.64794392720997 6.559272765378211 8.296744045660816
Co 5.003846191396398 8.392005678348058 7.973159420271347
Co 9.03215962132659 8.8153589039328 8.006986869158311
Co 8.457543098154106 3.992749769376948 9.87206611939637
Co 11.239375708532057 8.401685132916231 8.748635661118064
Co 3.712371121551969 7.522028096999507 9.56997860080016
Co 7.127203614066016 6.769776785026979 8.011465587905906
Co 5.5458515574534335 10.687075238066905 7.91431803710777
Co 7.098931199439342 8.581626152581494 9.497778714969376
Co 7.65155086217577 10.777072192960512 9.337547951776296
Co 5.694005890323348 6.739236823011159 10.040094852414986
Co 10.797594344851952 6.531313714887322 10.217325761846789
Co 9.973118924707649 10.462157969839572 9.406357470790002
Co 8.348556161173788 6.2198986110414705 10.151969885578954
Co 5.138457955773923 9.54337561110164 9.985685494359489
Co 5.718128503448621 11.863301546964538 9.86987810534738
Co 9.354586855507712 8.415536603535713 10.333715485646142
Co 6.687063511979365 4.996593568395992 11.202564796532062
Co 7.303793449904036 7.651785978866226 11.543789423035427
