47
Energy = -275.10638693 eV
Co 7.274673850913214 2.501811490544189 3.507681011108968
Co 8.839425726267141 6.242100268847257 2.4609013338917944
Co 7.016282975138369 4.55765411958411 2.269129864420735
Co 8.71805541023639 4.427469882873364 3.944909738255211
Co 10.025973910925199 6.3145658532380455 4.475345613172309
Co 7.942741332248828 2.954113089079053 5.679093444593185
Co 9.485988238371121 4.778781429650684 6.214790873163836
Co 4.078877829414579 4.064368152297514 4.301331271420007
Co 6.752651799139667 6.682223803875278 3.198430590820967
Co 5.569799501894241 2.3658694708368007 5.252701396403488
Co 8.51837324919226 8.102900448273681 4.034864458523475
Co 8.768207934000197 2.862934468866267 7.813448553286111
Co 4.816553408697532 5.471404984479572 2.684391811933233
Co 6.458202910554527 4.420842017535929 4.5245485147938025
Co 7.78676779028353 6.284306994731278 5.357805621658489
Co 10.115962266811236 8.01968505922332 5.961501551407774
Co 4.4680518968023275 7.664968418971058 3.293636179168771
Co 6.399349372583464 2.603294466020416 7.539332740166823
Co 8.889361377024297 6.758874824475087 7.423613685096288
Co 3.2008691240612794 2.144492142255286 5.233270727358141
Co 7.343041688891566 4.750701122963306 7.232463474370029
Co 9.36112966296743 4.881423169773076 8.702451037798017
Co 6.355663940716846 8.967974843147145 2.8191127085958883
Co 7.295253977677104 3.8195038996762225 9.421991829877472
Co 4.103019000848756 9.825201396099244 2.5694152708210902
Co 4.985194849673751 4.264068923495641 6.554070450610888
Co 7.965737775309952 8.628193892535856 6.378861207296797
Co 5.137358149713118 6.2039163503899335 5.0782701880532635
Co 2.895904310575623 6.272637702389488 4.634507491595704
Co 2.5872347992135163 8.677120758020786 3.9960315086836684
Co 4.115271416087633 2.2128657238844984 7.2897173705194955
Co 6.265329542622976 8.28823920456146 4.972896901860239
Co 2.5891641975538335 4.260128794297047 6.028911725795317
Co 7.463653550766825 6.201987385806413 9.201026993931425
Co 6.0577490718204485 6.961373555872582 7.233874968057947
Co 5.386446502382059 4.9967473205679305 8.770963156035888
Co 4.774548832587483 9.989466672342886 4.675699140472304
Co 7.28662910110521 8.484029683744174 8.59290690850003
Co 3.262071020508055 4.136015299113099 8.259170533448364
Co 3.9161566709426223 8.169226248128965 5.779217665482313
Co 3.6071542921726376 6.156373288337047 7.032095165961938
Co 5.666484856769076 9.403833338476735 6.996821064707197
Co 5.488466630612019 7.298127540276002 9.611556088206981
Co 3.4415782342078485 6.2607609187515525 9.37490714667124
Co 3.9227613463835396 8.29712098458883 8.102851390924718
Co 5.397809832341895 9.607946338075664 9.3588891371336
Co 3.521182196818488 8.426185397932041 10.314884177593573
