45
Energy = -264.66695901 eV
Co 4.956942190369203 9.84093661063452 3.5352361365252474
Co 6.793446686268373 9.290213757160188 5.058185283158927
Co 6.4518929827476486 7.98415475745445 3.033528506457401
Co 4.608329874793209 10.045511066415454 5.820762921240803
Co 8.623195849254484 8.840534144778049 6.402871935964831
Co 6.050669419817732 9.200195455645181 7.427095943621632
Co 3.9346419862593622 7.9200879054195426 2.7800229751046848
Co 2.84059790638231 8.825029039786461 4.779833317380655
Co 8.233601125499485 7.380715793210748 4.413862031904819
Co 4.941518098362425 7.867491935303313 4.925765621388004
Co 6.828490201071863 7.275750797537766 6.408148277549546
Co 7.821078446084565 8.100382883130715 8.442788740644607
Co 5.355959385001826 6.394280551642014 1.8118135221287046
Co 3.9674307628704204 8.084905713870194 7.085149347902616
Co 7.513541072726618 5.558072222397612 2.4974757944188535
Co 9.023356027920142 6.538491782143964 6.510051210341931
Co 1.898723961664653 7.092275770505082 3.4375958647313065
Co 5.553480466859197 7.026239808515198 8.453297569255188
Co 8.655445368309975 5.038849179771185 4.698589762524904
Co 3.1538751496695747 5.56157822600323 1.9292683190387712
Co 6.332753276788403 5.935377892750618 4.312939838890482
Co 3.84803255816195 5.872818996754928 4.045813745483376
Co 5.238616954250549 4.288770565559884 2.6006182911912936
Co 9.312382246475591 4.343515267812807 7.129317846335212
Co 7.026809948879606 4.866354581729979 6.357812119362613
Co 5.061400034891886 4.014339380256318 4.932640085763227
Co 1.5155938989001776 5.025766189410502 4.305248375843256
Co 4.807125107955758 5.909300266719383 6.405780716749922
Co 2.553172275179164 6.742258837896848 5.789686758945314
Co 7.647462924796991 5.8037598529569925 8.387988575289356
Co 3.3252729238526886 5.716389342463063 8.058583043542638
Co 7.079383520409596 3.483976481965116 3.9235817036196834
Co 5.4977926074748655 4.676438584757503 8.426619689470792
Co 4.994456560504516 2.1053790211408154 3.495049674191877
Co 7.5478357334698885 3.4109091017551108 8.314587874972124
Co 2.938606936185413 4.352288682337437 5.997705286057703
Co 3.1582698489523273 3.6055239042015166 3.5744638191328515
Co 8.08449952532777 2.7759894070873865 5.908003869443003
Co 5.795421301872607 2.8846978436012782 6.817385399750427
Co 3.867050024589175 2.134856011139046 5.5673105236495815
Co 3.723957967762933 3.268939085715901 7.854818754533743
Co 6.297205083993763 1.3387812543170312 5.21730627617673
Co 5.580503399145231 2.1876056780444837 8.98665425442566
Co 7.171326558787735 1.1464780920521347 7.478507524963672
Co 4.866965520577506 0.7817409621670729 7.192775049671866
