47
Energy = -275.43421239 eV
Co 6.564850297535748 7.06567038347627 6.159314006140368
Co 2.605995016127411 2.7335884510341866 6.6828320557566165
Co 4.313194063665245 1.1872998888338222 7.124658934857149
Co 7.513920017828669 3.471166743728043 4.358210029444962
Co 5.847351306324356 5.1708295696597055 5.185082475438701
Co 7.962441174672045 5.8835333453258585 4.486197994058978
Co 3.9340945061580315 7.7461484242090615 2.47698349403893
Co 2.1052853777319647 6.27443702784041 3.6115388786919085
Co 4.849365124455249 3.427748280618408 6.411597071974227
Co 3.0855510862885156 5.079535918394188 7.446340614883937
Co 3.8190052478983625 1.885175626082345 2.2532564847853416
Co 2.2465981659384884 1.3647616407407288 8.505889497844095
Co 4.140181736867996 6.717561996722968 5.637995923214953
Co 1.4645024117300973 3.577876019258215 8.505876825564675
Co 4.719651972630491 4.050724460289153 1.7226756247180695
Co 0.4657581440634213 2.007441692604145 7.001211815280516
Co 8.546630890900683 4.177924375893177 2.2218933767325195
Co 6.531855179779496 4.94133858301554 2.8910228302249217
Co 3.0026640663300177 5.835169798614158 1.443356473369482
Co 5.371831490686637 5.419096997888477 7.4768789015150885
Co 2.0935773803722975 0.5570960760109013 6.046161528107855
Co 7.872974831840911 6.504135900215265 2.0931098982672625
Co 5.198360361169466 2.578224548304886 0.10841646796067038
Co 4.3113420169875125 5.6947214161095685 3.4487032552416186
Co 4.448664939786942 4.878965218792496 8.743580132181481
Co 1.3760068289218366 2.2334540156875193 2.1878131966069927
Co 1.7896486552789364 6.394976520984115 5.950565867047348
Co 6.591707094441872 2.6756285700748186 2.1178293389725162
Co 6.757890480065828 4.470444694842657 0.5830864659600024
Co 0.9015718085164232 4.297948769077252 6.268414405896086
Co 6.263185330145125 1.8407911357194704 5.59934207171008
Co 7.170468417631349 3.902367090335684 6.616428921166415
Co 3.8219770864884013 1.6309264777186665 4.810419333233851
Co 3.9470839685448476 3.1093316918175806 8.574232434930964
Co 5.5187920031791196 6.489089677557003 1.3507850542101147
Co 6.025462574485699 7.182433558133621 3.801895815057204
Co 6.140908642154017 2.360336166336545 8.053453919089337
Co 3.058584917393491 4.562495546778392 5.1477384327738696
Co 1.441625870270898 2.410584962814309 4.6094586261448365
Co 0.9953047998587813 4.6304558827717255 1.5752737900931095
Co 5.112643866713619 3.232582136661908 3.945604092628742
Co 3.8978466640267246 7.11980332112467 8.984616159390365
Co 2.2538703345634614 0.5317859116908614 3.5835379369661466
Co 2.79175807581576 3.3784295696814373 0.560546166351691
Co 0.6527431883057607 4.513217172984902 3.966023234832166
Co 2.7096354312571562 3.852357494935957 2.986225996112151
Co 2.159302069486393 5.344052163923897 8.574232434930964
