42
Energy = -242.30405077 eV
Co 9.905607082826023 9.360974926766765 4.90159601580853
Co 6.275181187725692 8.419188030989403 3.2464834428845806
Co 7.716555949654026 5.1307103877730205 4.466859579701955
Co 6.442045245703742 7.1226120273170075 5.062340072444473
Co 8.631379235311018 7.517417366475986 4.236466756397346
Co 7.521376997509595 9.625699097970793 4.637745985427969
Co 4.35480689953766 7.209640707174541 6.232481289298408
Co 6.166806267933097 11.464681988142253 5.581631855074628
Co 8.500122522804906 10.910002076135068 6.414982023200942
Co 10.50133797677748 7.30189612977607 5.8581493646730625
Co 5.839654345204886 5.3142576722071375 6.629118853021417
Co 9.960540752354666 4.8731077886055605 5.760576401781632
Co 7.828495018643729 3.881216072621858 6.4533011301027585
Co 8.47704885326377 8.479257842174746 6.488021709110447
Co 5.028503418930603 9.177384114880644 5.125873585033124
Co 6.570968917460098 9.626084187513985 6.845818031383521
Co 8.297822652640841 6.253759710610087 6.296950970901901
Co 6.423001384918688 7.416593142852312 7.481586728761459
Co 3.016029233107723 9.343008579258619 6.080199799461072
Co 4.010465294937557 8.534310111300352 8.013431413290112
Co 11.932362645624355 7.577726174517028 7.703093826900538
Co 4.563341811560529 10.686229047270093 7.153457790020679
Co 6.697966917061716 11.645862457456133 7.921469681333506
Co 8.697170229141726 2.0353975081263878 7.310079818202488
Co 10.088217601455783 6.252645022837372 7.943652080222137
Co 10.327439081129095 9.23276918827097 7.463015594038373
Co 5.79365496548349 4.48848813211794 9.113912564388025
Co 7.664239644623969 5.394747117964876 8.263242256562695
Co 8.35834249016136 7.67923036955317 8.867991535291633
Co 7.852489814684649 3.2104552656639216 9.0364657506853
Co 8.27972959273994 9.997550854676073 8.621577315621117
Co 9.723250770710338 4.003001654625885 7.966829431993491
Co 4.832623545908501 6.548701542475924 8.834765897542072
Co 5.855251873016883 9.497270222405977 9.055555847221996
Co 10.480580888160613 7.978949979508446 9.504845696336737
Co 6.833573632470249 6.461591179073406 10.218708786743422
Co 9.130356131503603 5.38579605638118 9.990480349796531
Co 7.462297470262727 8.798593720015205 10.719514660083371
Co 6.928347712349384 11.03950127090177 10.25721268779618
Co 5.189835981948952 8.049231545512374 10.591045596171089
Co 9.052050262658035 7.268190041553422 11.228370942691567
Co 7.323436977571898 4.340578966020845 10.955406160070497
