49
Energy = -289.26633568 eV
Co 5.375122373978933 5.89334035847826 0.8177965073217555
Co 3.2204778259463938 4.975275556855782 8.59860982123465
Co 4.890088164144343 3.3321700905437233 0.5163185340526122
Co 2.7106154465622123 2.7309179665611523 1.52198956897833
Co 4.539939216287337 1.0555770741700328 1.174354678263759
Co 3.175186440415592 6.901702350425275 1.3563763886651068
Co 6.334929082382691 4.426337338809809 2.5166086646755965
Co 1.5327705075039808 4.934088397756514 1.9780952561865532
Co 6.639593555342569 2.0978135301101974 1.6912088520327915
Co 5.3952104999470505 8.21828677760698 1.7060718674847526
Co 3.827345029049089 4.666014230451757 2.0753984168342936
Co 2.3301821902512687 3.4924914140016847 3.872080593137784
Co 4.72233756990176 2.690586934243355 2.7862072468517516
Co 3.1206110944029435 1.1325497980969026 3.3563157271788633
Co 1.2885775366318781 7.5221202943593335 2.677769442411504
Co 8.025177423211089 4.460022692358559 4.205131023689767
Co 5.444707849305201 0.47387285269809026 3.3093162828194522
Co 3.5003724910640415 8.296391692085498 3.326166589574542
Co 2.7151321495532446 6.0734591187142675 3.5859035730069735
Co 7.246083790587295 6.652216243828942 2.7124674500184565
Co 6.91808215369091 2.4009628830380074 3.987525251737498
Co 6.106625993729504 8.204706707791718 4.145524216243656
Co 4.95093074921582 6.495874667248362 3.0140901756908893
Co 4.438646090764941 4.524377640800363 4.410391455749637
Co 6.325706971841757 5.951180279633503 4.7640451251433324
Co 6.475988222944965 0.7287731487845366 5.59662183245179
Co 8.220540059835805 7.219303968262057 4.896837368992546
Co 0.7208711326919507 5.323485196036208 4.453743867723609
Co 4.706407745200734 2.0244029727662443 5.001798313940372
Co 4.247591018041479 7.2180211439403195 5.332803554746187
Co 1.7277832390797279 7.485611947061928 5.1240992848744655
Co 1.276668543156262 3.647576339431072 6.171074072194539
Co 4.155842519460037 8.460347455836994 5.1608010789959
Co 2.6878329231914173 5.410234483618466 5.762516442214858
Co 8.021643174869105 2.6591640827924996 6.08785835087445
Co 2.377882856028493 1.6515562250550093 5.531542363174956
Co 3.709207106341405 3.411819270854137 6.484287816774588
Co 6.166512645956111 3.8827287650281743 5.759353305145017
Co 6.380365993220208 7.293438340234158 6.558720521264355
Co 7.96539727770171 5.397661453217125 6.360045721480323
Co 0.7540768331484505 6.065307991440393 6.826372243951776
Co 5.9667048856741935 2.2409533799162653 7.318608700120938
Co 4.016301513143699 1.095298886078488 7.1528343177523
Co 2.888883020651041 7.0928411274775165 7.280714498419196
Co 2.2660953151088803 2.4274552087424546 7.9963570924099034
Co 4.83922173311655 5.522613082092446 7.063568960035887
Co 6.673515393669961 4.368366928593514 7.996198643621489
Co 2.4976807214444516 4.812950658334508 8.037537672750254
Co 4.476180043806473 3.616419607867569 8.598609821234652
