49
Energy = -286.43240398 eV
Co 5.1438742640470165 6.671336087060676 3.469270296900895
Co 9.980451785044107 8.265598643424577 4.596919208818413
Co 8.012403472458187 9.560039990119966 4.93792393232565
Co 3.7901783301895384 8.239212573782554 4.631427774692273
Co 7.8658444804689225 7.559035054670518 3.617786164664661
Co 6.723269232887222 5.7537080956940665 4.780427498050481
Co 6.049926567165257 8.30049218643214 4.793435143597358
Co 7.763162159594474 3.8137070751389675 4.849125478949168
Co 9.083130954487634 5.833932980734722 4.479225352660478
Co 4.4077546611527945 5.95901043248328 5.563289462548801
Co 4.266375569320527 8.141641993952785 6.828743287569694
Co 12.151259039048295 7.541706311325767 5.301384695477863
Co 7.428636285122507 11.315984544163928 6.339260968256876
Co 10.999112014464801 8.816800523587348 6.720631702105604
Co 5.140282665463186 10.251306215157502 5.784879420554425
Co 6.143868511555325 6.919296202780613 6.65442384416397
Co 8.51915839311839 5.121754926218434 6.66854022094151
Co 8.346550030439406 7.573745863123538 6.157085015511877
Co 10.015063818974397 10.57811668208215 5.572544641655419
Co 10.218996532836687 5.189170881298945 8.30362023575212
Co 5.400078566181227 11.994401148979843 7.23182154140632
Co 7.78445655577754 2.9259649056705785 6.978573918298645
Co 6.679146071544441 9.175798851116609 7.078641306660581
Co 10.483498220497 6.416173830364218 6.214868785393433
Co 11.899176266424899 7.020641871395362 8.00590814247441
Co 9.546114544179895 7.454083396128217 8.251922193202962
Co 4.752670512732384 10.040319264184435 8.23416237237254
Co 7.426915013847026 6.429122890999438 8.385642635985642
Co 6.171094642928607 4.540999591338759 6.958844655033396
Co 8.922671550805688 9.868766212800729 7.47082914795147
Co 11.036844526404318 6.745255557114034 10.090098095668724
Co 5.646922061296738 7.905898320671162 8.866501731506917
Co 7.9155372109896325 4.1869742674791475 8.89028931904522
Co 3.32226140756103 7.957758909629897 8.87919989215977
Co 10.932054581038567 10.951779068672222 7.817433961591301
Co 6.992243124719944 10.95864658706998 8.66440520799963
Co 10.96684431077325 9.049468890484928 9.125448153458246
Co 4.7117938809551205 5.864878164227091 8.27960677921236
Co 5.827866143298267 9.62271897680348 10.394713127595262
Co 7.7813602686190055 8.839703072257999 9.340005616396358
Co 9.278875082533743 10.598684021903956 9.604675342778975
Co 8.910055640022343 5.956901375965334 10.14363988573493
Co 4.514986201078317 7.0411907290815465 10.621832929797563
Co 7.785335437229604 4.34306645104909 11.229690505602536
Co 9.394306537290058 8.248089923029083 10.816454528911436
Co 6.950939822862019 7.375219436638443 10.990059618916073
Co 5.372296627458481 8.332685486461791 12.244995409919401
Co 6.143492670237286 5.380049604921861 10.09823459282213
Co 8.62591544510637 6.594213622558877 12.266607949136885
