41
Energy = -237.5846912 eV
Co 8.833030016977439 2.799147695084173 3.8124693307676543
Co 8.34300804149171 6.4099983062876955 5.297424543619407
Co 7.692552603810478 1.7574946185778193 5.528059936392413
Co 8.59563323340068 5.1102894661425236 3.413797834778202
Co 8.154689587733097 3.003865300100545 7.4513646641562366
Co 7.114837891153046 1.2806249828823042 3.3548563956047297
Co 6.792134372097514 3.6007928032010197 3.066441426818705
Co 8.546452892087611 5.3483794369869955 7.3108555562094235
Co 5.426718647664166 2.34390180319111 4.521331017859227
Co 6.416910970657829 5.780597289647265 3.9019738057049453
Co 5.979788327417292 0.2961035166696076 5.425471125917276
Co 5.901868046474933 2.2846282639858204 6.8821872901523475
Co 7.484904821915198 8.567513356947615 5.088859254421348
Co 6.107683894203248 6.771999776931845 6.193597253241883
Co 4.51999228962596 4.321207417642326 3.3598318200399424
Co 7.9728109522317 7.8148360441734095 7.23843840731036
Co 7.8092132153000415 7.404438775565718 3.088804068467388
Co 7.5963429308105015 4.132095452037216 5.392738277653418
Co 7.066880571267811 9.906282159342103 6.989935240658085
Co 5.153526823083497 4.490313821196164 5.658678592657402
Co 5.6665496957778325 8.10111197691919 3.6294386995532513
Co 3.9971277804101257 1.308062672477853 6.197881429880496
Co 3.2718685670745398 3.1871145811797166 5.1255834253816355
Co 6.3839716875130765 4.4268521810905765 7.643925308412227
Co 4.849175014127933 6.401368135960052 2.226217057085268
Co 6.845064897759584 6.3790147211262 8.593582036802436
Co 4.444000667065443 5.884856737203212 7.982926613720945
Co 4.125362841170596 6.449446583864288 4.516011710838453
Co 5.673319440911153 8.339045340211038 7.9842452028447095
Co 4.084113205668046 8.66086569029545 2.097993654793339
Co 3.673063694199206 7.6919324811711345 6.533811081364619
Co 5.319105790066762 9.112359749387034 5.744372860544884
Co 4.019054203595269 3.5345154300760058 7.439868905375491
Co 2.2970042157688497 5.042691103852397 3.9242317961871866
Co 5.138956669168297 6.983301631512824 9.97867219787493
Co 2.634863230758503 7.053641792232492 2.8031988759823756
Co 2.9240344195383496 5.248690430757236 6.183104787398112
Co 3.4886363329461187 7.881949853480528 8.829288522665964
Co 3.4101175450499963 8.71153213805756 4.325626686106336
Co 1.8597634351606704 7.091929382771483 5.161826381672147
Co 1.9456058955456508 6.644946458460385 7.660816281765407
