47
Energy = -275.38315265 eV
Co 8.492265971536833 7.372880608908668 9.53739315309352
Co 6.509107918906588 6.027074128352306 10.079472629288505
Co 8.247597366252423 9.195071228712571 7.9604629190306895
Co 4.41189046567701 6.7510369068598735 9.091733608965482
Co 8.180812890096183 5.2275256308516855 8.570681078682693
Co 6.524008032748158 7.676592895744679 8.339711979891822
Co 6.696567901824751 3.679321417881904 9.715324343764648
Co 4.215827084374423 8.82225623778592 7.880085346919647
Co 10.2331922737102 5.977105284592198 8.436411957106897
Co 6.154505354184538 9.827904185709075 7.238993389338785
Co 4.539922050314824 4.450799383786266 9.908711121035742
Co 2.642075789769406 7.115317118237517 7.433235237723906
Co 7.0368394048511185 5.50576496588123 6.10162050578936
Co 5.837686150605345 5.115952616520851 8.034576604010734
Co 8.74347292874731 7.125103494554475 7.1888472712199185
Co 3.5363742163909637 4.951097523492928 7.777221217032749
Co 9.339365330781542 4.958246075948125 6.388090218908635
Co 7.420479978290297 3.3754915595002295 7.400792659497665
Co 5.02467854724055 2.985725983883638 8.022904995550425
Co 4.954082000021691 6.917943287623453 6.710373257612476
Co 7.0036223093550865 8.129022282482998 5.945841487060186
Co 2.653717481014297 9.117208171633134 6.155029751500513
Co 4.1583136059718875 10.840207589059704 6.561574623128897
Co 4.8528868642059155 8.958399539035247 5.352241108084161
Co 3.3730898817542077 3.1425293444519933 6.300197227586864
Co 1.0955640280673786 7.348339347617033 5.770823505548822
Co 8.691534319365761 6.779258607070755 4.845308098956184
Co 5.773413371236124 3.2025484144386485 5.741460675692799
Co 8.049991746908617 3.398319055151797 5.141755578078064
Co 5.708193997800606 6.889568155322144 4.369185665467353
Co 3.2771607664480427 7.19964424150345 4.960812406104713
Co 2.1090877963708268 5.255801071428185 5.898646781562689
Co 9.591924893420918 4.818733607533021 3.947328367259631
Co 4.4547298110616 5.040466282117777 5.356748304124696
Co 7.270721243369875 5.124486037950992 3.7443569295051544
Co 7.419826367302619 8.231481799129428 3.5788960828659713
Co 1.690669685632833 3.377591453741349 4.700143761287862
Co 3.918316743986892 3.1564277392806233 4.042310332598302
Co 8.599711945523053 6.450780590377518 2.417072727135747
Co 6.1866237078563655 2.9983485721978127 3.443669396108335
Co 8.421363800793959 3.1814864649564845 2.790193250914817
Co 4.034436598122078 7.157650225011558 2.8001055142803333
Co 6.270153504480073 6.779919305375115 2.0866491725162417
Co 2.796824097315273 5.206410613738261 3.651154501767608
Co 9.636312453101331 4.6656355891981685 1.5322608538248108
Co 5.008667115756902 4.9697222891741735 2.908550753619272
Co 7.246835370014816 4.697126658943416 1.4898908379838007
