46
Energy = -269.12691713 eV
Co 5.289736014451336 6.487064584602076 7.927284911218643
Co 4.0155362583832535 3.6197973705631457 0.3927300580237465
Co 6.333931138169377 4.5327027580071855 0.3554784160245538
Co 6.808428616511871 6.914764987099213 1.08165959102476
Co 2.6517036679828343 6.545933236531975 1.077835742362219
Co 6.213684155112484 2.2369910082347846 0.333031497328282
Co 0.8084074132322978 3.9351212119460355 1.7397736048637735
Co 2.5793265666390837 2.2905671198080437 2.1716294241497103
Co 4.81404990394049 5.743980797129937 1.5072044490742136
Co 7.621408304186059 3.1751778791603678 2.0470544056084408
Co 4.4447596507234115 1.2328490564411752 1.4438208379697046
Co 7.034364519290018 5.261881777554004 2.8323644731403332
Co 0.45334985128841654 1.7423600477791257 3.236846311393204
Co 2.9951336603708096 4.628474041223752 2.31080072920608
Co 3.4197296232167016 7.103409982562793 3.205106041000501
Co 1.1792105242870439 5.97414347875185 3.105028178079293
Co 5.315276360015687 3.3368380926450065 2.23006147330193
Co 6.4828596052689065 1.372446742701151 2.884513625214665
Co 4.639976513312176 7.9729451710028 1.1616597927662633
Co 4.404000155467118 0.951026520089392 3.7758614750545676
Co 1.4790091282939113 3.7384084760806515 3.905843137951454
Co 2.3588966441763985 0.09073582596319583 3.0293852552854226
Co 5.002895058711044 5.255198898215075 3.7943087154846475
Co 5.790953153379405 7.346354812619737 3.2146552615089736
Co 0.9581047056844861 8.504774063054949 5.197962561172973
Co 3.8630035002825878 3.240716914540444 4.070885839306616
Co 2.287449662800091 1.6877026194196756 4.668368708894428
Co 6.350624275349795 3.2233266654792385 4.427465995628592
Co 0.2518732642635864 2.554617088553752 5.483877282692079
Co 2.8207530584108014 5.431780732715826 4.7315359062335265
Co 7.803028744212116 4.099645987795563 3.666726849408683
Co 3.3888213049003957 8.416283931780082 5.678040106093825
Co 6.305801244676966 1.0213132713000153 5.24469170597887
Co 0.6179184155915053 5.192107722333625 5.4747503744917285
Co 2.0737165429780435 7.3987635928870645 5.31856181712866
Co 4.436597228506971 2.0302738561836535 6.029995084738515
Co 6.69655612234645 5.430877267980027 5.358559191091623
Co 4.631215983523502 6.840268440410985 5.496440572082606
Co 2.3120632833814696 3.641893787438356 6.272416002504624
Co 4.635070766345951 4.481846615490921 5.968182262333733
Co 2.0660704108605468 1.4081097673072398 6.958729967696857
Co 6.306945619982709 3.220096317799876 6.819486043764844
Co 3.011231506877074 5.8124917815603325 7.025552435845449
Co 4.0538191037714775 0.9006284510013629 7.905507489997633
Co 4.035179836127373 3.3646320643552947 7.927284911218645
Co 5.295898163652454 5.4555696180076705 7.8494107155962345
