48
Energy = -282.6417458 eV
Co 6.360950769245276 9.430331961743475 4.977077152697265
Co 6.780109811585314 3.3555254975012794 5.672400035119366
Co 0.9709483209847783 5.384580537530826 6.463502071213525
Co 6.1610008418762785 7.219511536327463 9.403726071679221
Co 2.475940102231819 5.657216317545017 4.82794941004436
Co 6.826751286567175 9.359129736646576 4.356590793893458
Co 6.286692066998588 5.357482334114511 2.110240851043512
Co 4.988384597574973 9.326155484359589 5.94040401289666
Co 6.530482500212515 1.3403656660175682 6.811885067200064
Co 5.405714424566107 3.656118042585192 3.714685151009198
Co 4.966048870855613 1.8033923060957568 5.1464404393876855
Co 9.76660174711469 6.430842580266931 8.91129242280672
Co 3.1568629917089583 9.173414521873893 7.531482470761784
Co 5.478455682545223 7.43298787831378 4.523095297282006
Co 4.587800508798366 9.417872228919443 3.596025581002973
Co 7.003097209571392 3.4242086057623613 8.085492319420903
Co 8.027163383109258 7.542785027181242 7.96535024008233
Co 3.1146022378088327 7.645393660519232 3.6908444343277864
Co 8.684762229412108 2.388703121071959 6.831585598540916
Co 4.837117581712732 3.262256765842429 7.069883520375441
Co 3.164737016974088 5.211259293216479 7.1873912250076
Co 7.685980942595236 5.4268573877741435 9.179106034291474
Co 7.332610404977104 7.393339831206354 3.0072778033442447
Co 9.367303077774233 6.435732773964814 4.251818763227326
Co 3.5525676126002477 7.329437977325786 6.093374022102386
Co 3.963063513476041 7.144930566112386 8.49001534040654
Co 3.5175570842645456 3.654589744238744 5.1771654859576435
Co 1.7192858492078882 7.268114718585783 7.6138136663646305
Co 7.991071109248706 1.5208961757224506 4.8012194533672545
Co 5.0838974522299365 7.481254229364541 2.1807310485435627
Co 0.992901195554468 9.395279342427095 6.773545564058654
Co 4.361086879974497 5.63944519794291 3.4391165302205633
Co 5.1006678522809 5.281317475053348 5.7532054787486215
Co 6.2815257805634195 1.5327585442472795 3.2499121823367623
Co 7.408738054576684 5.468255170828916 6.783295026853172
Co 7.181143705213289 9.430331961743475 6.779748761585418
Co 2.7080906343408038 9.409669127955798 5.205053715959889
Co 9.593311818008598 6.368996747667513 6.568661332641525
Co 9.251265677340102 4.424462005643964 7.76345958978285
Co 8.592993525921758 5.305078141866198 2.435435612599524
Co 7.794295507185689 7.557884090779085 5.4669539117297665
Co 7.695602068717148 3.4073522269430936 3.346314632971343
Co 8.967527887858571 4.304185589831786 5.304049715517878
Co 5.835565677446018 7.337646647575632 6.982200143419999
Co 5.387805844327106 9.152699629906358 8.316340666309491
Co 5.427491622670623 5.291248722730514 8.229569784561336
Co 7.093638691539499 5.502118662909587 4.3329049471457575
Co 1.2270374658236987 7.5640815764751785 5.385798171424562
