46
Energy = -270.74217316 eV
Co 4.995778912202434 2.561691811320032 9.001019607714042
Co 4.23020582557179 1.620180050802941 7.0698366930573355
Co 6.315568056172395 2.6431355243984953 6.65902400809575
Co 2.744401753185238 3.0995376356320725 8.25325415491187
Co 6.523193588485012 4.229280612967837 8.332365835804753
Co 5.160143037938469 1.6852003151212467 4.819999000787184
Co 4.443404070664816 4.763943384209755 9.452937573992047
Co 3.1072091182347332 2.7494985928457836 5.438940170876345
Co 8.450158268315121 3.960460395290801 6.750979268718689
Co 4.457078185928013 4.0147515305818064 7.093321104497952
Co 6.25229638996893 6.165597871835211 9.83603661772811
Co 7.832979285020269 6.039743514839305 8.003608035077217
Co 7.283980548346066 3.067090156855673 4.658845973842609
Co 3.560640946917865 2.8235329960993707 3.1324777607290284
Co 2.0102281265273683 4.513742061925493 6.405791668410699
Co 6.683370110901026 5.1854118926214285 5.976928692869523
Co 2.9215137679411156 5.684283917844573 8.139560137396556
Co 8.910279424918023 4.678607645688758 4.376552168666142
Co 4.993680681797033 4.001069983612397 4.641380326157338
Co 4.338253650649542 7.474331567651192 9.433476527497081
Co 5.8401103231167895 2.7601162965338486 2.774166593135399
Co 5.336274691471895 6.421244575261646 7.673557523349108
Co 9.055601851436604 6.192268092021347 6.097480120071687
Co 9.024355793544284 8.047124152467559 7.618980568631974
Co 6.877736196692293 4.778156048428907 3.058495767014794
Co 1.8267655719390925 6.754316332231732 5.5345971317109255
Co 6.946012369426126 8.09344168752703 8.663461686202037
Co 2.6893492491179773 4.7699888238957415 4.108723425573883
Co 3.8780331924718148 5.892569676706443 5.8461654451009
Co 7.761070782463414 6.743893348022723 4.20234841468922
Co 4.537719993999724 5.0761817543897845 2.5630249450338587
Co 10.073107425759025 6.844507794904259 3.968566584330484
Co 3.1896434767709714 7.736556229942256 7.299515862356697
Co 8.898012554268616 8.497250532039978 5.327371249863174
Co 5.164746091489251 8.950600341482035 7.614792253930947
Co 8.687334841153483 6.079714678009126 2.222611923817136
Co 6.684609544249818 7.748069818731846 6.160702200627271
Co 7.615281194916766 9.778802667016002 6.899553336899006
Co 3.3092686642409834 6.945168086444902 3.656762456416601
Co 5.469724460582602 6.4082565234394355 4.245967064721141
Co 6.4176570778459805 6.896833033109106 2.168155745676762
Co 4.345151305718463 8.206358415379432 5.34852061951481
Co 8.518371279699274 8.467435951956453 2.9056680170264184
Co 7.7901695042765695 10.242502375939443 4.452321879523749
Co 5.747139565231667 10.023477213488343 5.6075678896039935
Co 6.292538859307572 8.595242475388385 3.8151694083899947
