45
Energy = -264.06926792 eV
Co 7.698874450480583 8.191464768111835 9.2584531239781
Co 8.062679300029123 6.2665716097715976 8.0149440968519
Co 6.860548557582165 6.077028147867294 10.063445740233876
Co 9.049313735904665 6.003346148186617 5.8260493900756165
Co 5.62648404278096 8.08352719128953 10.395376264757859
Co 8.418112144093122 3.988034822551272 7.720536412697627
Co 8.824825730435423 8.225309997009223 6.841613102464848
Co 6.825504550442157 9.25811451661627 7.445409108893821
Co 9.393424723970917 3.75510825935147 5.542684146322163
Co 4.711847860166906 9.303844982043865 8.530032033559811
Co 6.967386881228402 7.115988257579035 6.098039958575748
Co 5.741423113982507 7.215194855988525 8.274202542846472
Co 6.136449492710998 4.783654225829082 8.194576544602292
Co 7.9005751037079985 2.112287905456278 5.8552277896636475
Co 4.640843515260417 5.467486549622265 9.811106677981218
Co 9.491892824741182 5.203344030703057 3.5763904863861242
Co 8.590941580267145 7.8022823546468185 4.3782505039056305
Co 6.292505050359116 2.6263539647875174 7.321288108887498
Co 3.581835244479819 7.428235433952438 9.356510805580891
Co 7.046502335317901 4.555596162741654 5.9629336864540265
Co 6.863717215052124 9.231218711467355 5.056969915479647
Co 4.85892417849499 8.721385564790202 6.273913385744213
Co 8.336587406497673 6.962359408301799 2.1430019298508385
Co 4.245054219202165 3.344843975464485 8.609970908507222
Co 2.9854741388019743 7.53666886805238 7.127060431177086
Co 7.3438928610263 5.884734105085952 3.983620074299642
Co 4.13463937480182 1.772053035104775 6.461716998102722
Co 7.767664390799026 3.5321901931378474 3.871596827791881
Co 6.733741957192591 8.46639018567297 2.737363484251351
Co 4.599469588385917 4.016696353991856 6.446800377657535
Co 5.765986584410013 2.650137534246943 4.894212459427715
Co 5.416617557948569 7.3477217516361994 4.255016065692252
Co 4.765692035751652 9.578824293088848 4.030192452824041
Co 3.225381960388192 5.367116842335866 7.937252360910607
Co 7.747602647836648 4.7336283719812675 1.9130850248084044
Co 5.12963904274545 4.9134397377908305 4.247687880678699
Co 4.781643997323864 6.319860216958718 6.3067441183671304
Co 5.816364378219391 6.08519876293347 2.243129189681591
Co 2.4331103980244664 3.4060596161922954 6.838069362909178
Co 5.785466809691091 3.561839167335768 2.5976270132467705
Co 3.211814393018328 7.8000488871352545 4.8059658963528555
Co 3.474754652688523 3.2434618123430865 4.57704798273969
Co 4.4314467915945235 8.043415204624274 2.261522321423547
Co 2.7999770569963545 5.41422408405924 5.4951397121431125
Co 3.458888430541174 6.110070718043163 3.2785485294306
