49
Energy = -288.93804223 eV
Co 5.788082043198334 7.906067529844095 9.576130734655269
Co 6.201977495962038 8.879648097601644 7.444060794633312
Co 4.421045136380474 8.814338315393535 5.6523722454099925
Co 6.539828959982651 9.39508889196448 5.147861098343602
Co 7.680225506147365 7.2238760263608945 10.808413594372006
Co 3.780648569573486 6.820621631705059 9.776561769900862
Co 5.9844199415193255 9.665776536344048 2.8964876318641863
Co 4.301014479292387 7.4258267440923875 7.520058452881006
Co 6.249284895419889 6.0484024970822095 8.162269955450888
Co 8.150025293535302 8.635431796449103 3.6826945968125044
Co 5.996236699157943 5.718681955895315 10.430510480359533
Co 7.916820309645501 7.743131117232791 8.557732545041242
Co 2.4789305528929324 6.084381508726166 7.890501162710211
Co 8.262225832041063 8.255608810731951 6.180774514931502
Co 3.92782482528587 8.607502896356298 3.411167130597984
Co 6.264036745923923 6.993153092295232 6.00991593361933
Co 6.059589735327616 7.469348553019605 3.685645842200343
Co 2.3693684548649876 7.500632012807718 5.968319336921167
Co 8.171849011663477 5.475242573299539 9.301122084579646
Co 7.686321469741185 9.100967012506798 1.4654996725860359
Co 3.9781275127243747 6.574082994398908 2.4349654753901016
Co 4.31331598179366 4.796865847439424 8.96352069982626
Co 5.757855198619829 7.8031486240734305 1.397680733877592
Co 4.463021548557401 5.030022042396724 6.605716713122426
Co 2.0738931509888108 6.258446315336801 3.7083899994552736
Co 2.6214132333609412 3.7588628296450115 7.778977295847587
Co 8.412327270836212 6.044331154986262 6.988537599352203
Co 4.103269833368491 6.614136382662508 4.834948508667415
Co 7.763141000807894 6.832662342641066 2.1950608238550093
Co 3.8793119786875367 4.510673051359583 3.6436403747932276
Co 2.264094714276127 5.149413135771838 5.721285273717635
Co 6.529871195555128 3.7894777615638087 8.85293890375343
Co 5.922859931659382 5.393757253112927 2.1105236132062917
Co 8.152201119118255 6.47295803883528 4.583076721011358
Co 8.6694531231724 3.7054120255535126 7.700160481685652
Co 6.81279347598049 4.359213254799042 6.523950970958525
Co 6.079540638599701 5.066190026104133 4.442016226601251
Co 4.806824928343984 2.8720698817258876 7.550024215666993
Co 1.726306453659665 3.8081189269160456 3.9550187331463094
Co 2.9912372467270094 2.9260205084556037 5.686597225231327
Co 8.984394447002005 4.388935422131914 5.368131011302471
Co 7.0225241849558735 2.0942921875945166 6.837269144197318
Co 7.964173107187275 4.610886668225109 3.1209274260372175
Co 5.823806451547974 3.2062301133014732 2.893808874754309
Co 7.497091388071214 2.752370090946784 4.631445324399568
Co 3.785325678162717 2.178449303223279 3.6312505570198286
Co 5.237848074664085 2.9326125202548377 5.283399453816193
Co 9.223686368919326 2.1765906959745456 6.028505501369278
Co 5.945386187625339 1.164894383390889 3.9949839225963517
