48
Energy = -283.2065327 eV
Co 7.315321031301266 6.129118912080104 9.678681828675048
Co 7.57706236855309 3.997765176082908 8.699251338684519
Co 5.403734438782047 4.6125440341976045 9.264585921355344
Co 7.634022559711618 2.192566914310243 6.955853427595928
Co 5.04467363925687 6.8743190609519615 9.933673253862333
Co 5.605623103335559 2.724180100310142 7.861649710600351
Co 3.36936232378171 3.512305143630764 8.539399675051497
Co 7.611482494394737 7.942577618850213 8.178612694541986
Co 9.262345597232871 3.782939171538118 6.8553580208157685
Co 5.891019022090027 6.4822261911860615 7.809742382256377
Co 3.4227658955470113 5.895101176085765 8.469605944145501
Co 8.648820639112538 5.881282203198183 7.656259352235478
Co 7.0599576710719685 4.577448182660605 6.502357625890805
Co 3.1830002749616457 8.079597015176233 9.129894093736947
Co 9.373925558701217 8.170664047300734 6.721898229764706
Co 4.707515973582734 4.6035738177817445 6.95348421204825
Co 5.731227889777431 2.757659779122595 5.447696254363998
Co 5.391839226648217 8.750265006587801 8.54195996897033
Co 3.553072233685869 2.623330315401562 6.291553818178232
Co 7.663762009527935 6.924302686747248 5.750279862565207
Co 7.9918932401657825 3.0149838204825525 4.794622833495089
Co 7.801845980377067 9.965085210446155 7.220867599084026
Co 3.9338606423427596 7.830330197065338 6.973158801045553
Co 4.115630549858604 4.481753330060966 4.71497907366503
Co 9.526540650610217 7.428383607314762 4.384699887205705
Co 1.8115394490511298 6.841869811430462 7.1180191749216615
Co 5.324553563815841 6.462880359255756 5.534623231303645
Co 8.937485604839013 5.1500292558860155 4.913459570788713
Co 2.344422841291737 4.6329544952392885 6.564667986835848
Co 6.090451989178604 8.704096722299338 6.283688748814847
Co 8.306650197921249 4.092027034240414 2.7604097381524837
Co 4.033912141007206 2.1822818718960058 3.947785543876683
Co 4.2304419002929645 8.417454496041485 4.6381283649478195
Co 6.240468333132236 2.8563583694629227 3.1199916760804656
Co 6.368936432565213 8.036554860626373 3.9428474447274624
Co 2.9527186424179863 6.555474699102138 5.124184757989523
Co 6.531302112382026 4.88660178025435 4.205068222084927
Co 8.079427623960418 9.160040437134377 5.044252477281605
Co 8.247614036091115 8.643514465137972 2.74621143238309
Co 0.9151712599750768 5.513014002318606 5.004193390674311
Co 4.690525190198963 6.39689585834022 3.2445610520919286
Co 7.932681877120465 6.406594944258749 3.0330837553882226
Co 2.0756873170571457 3.511341784250543 4.441356994805473
Co 4.254450879677167 3.9616372461071947 2.4422253179958955
Co 6.2643529555283095 5.030996267025331 1.857617106060341
Co 6.202342842543915 7.3248033336566385 1.7225658495483716
Co 2.5074659161562716 5.4518466743548855 3.1431709910611727
Co 4.12232478898075 5.831661422705853 1.1229942719467791
