40
Energy = -233.13925294 eV
Co 7.817361748373122 6.219383390309849 9.285727094705374
Co 9.528593470995595 5.190552496752458 5.650990221390964
Co 8.956975944374697 6.779266699971751 7.260635181197634
Co 8.320519458404263 9.002918994718264 6.684285012463822
Co 8.48864267408839 8.44929500392327 8.950441162282015
Co 8.753458582226617 7.441493286068966 4.93612425323551
Co 8.054196656682509 5.442152289754279 3.8244429077735815
Co 7.713922693896089 3.6391784691249844 5.494322033565297
Co 8.2265718608804 4.531531372609418 7.650988820682132
Co 6.42011869580736 3.757059845501836 3.557486066937929
Co 6.114806058247056 9.764190387099143 7.081136002083115
Co 5.630995461060543 6.971204910826524 9.67836878264738
Co 7.193421137690645 5.885038985957309 5.929065084946008
Co 6.723763365141339 7.550754166464911 7.649824815315389
Co 6.515483275257857 8.197515384250783 5.264756999808685
Co 7.250121715667719 7.570000525117941 3.1048167757738354
Co 6.370003982317857 9.1783481770009 9.332968903122929
Co 6.800012491123627 5.528365267418752 1.8647289082562464
Co 6.422542696924783 2.9862239729376663 7.329163559718417
Co 5.995188013722564 5.239619030833521 8.027014678765665
Co 4.8412218829863995 6.695011099252833 6.35355408486992
Co 3.808993579053284 6.050232408634724 8.445961192614439
Co 5.535963652744353 6.072731721970134 3.908964962477495
Co 5.968317832539446 2.0173420822438977 5.217750381272081
Co 4.4953115597685676 8.317263194955283 8.065388622971444
Co 5.537808137320123 7.370012621929095 1.4581137066912928
Co 5.240980703503215 4.292523502106953 5.659299197681544
Co 4.110354811933614 3.777081715413048 7.742311225885087
Co 4.309825558270528 8.972990550463765 5.737467203044152
Co 4.922658177342544 8.373818256663059 3.5248710045291576
Co 4.717221025154274 4.603176618783552 2.163701235454041
Co 4.5659953107350555 1.5589089933292697 7.1264738959443035
Co 2.6180541409367644 7.566777055063343 6.896090537441319
Co 4.3437634913176675 2.732922865335625 3.6546871823676073
Co 3.2832461344114128 7.085566632675993 4.684652241841281
Co 3.633098321011846 6.61616066560625 2.432864349411867
Co 3.9700711618913997 0.8722421361861722 5.049180929058815
Co 3.387847675267139 4.79623535744471 4.099912328710404
Co 2.979633493144159 5.267043483416692 6.344076453204541
Co 3.209103549000825 2.95985249531389 5.710691383056862
