49
Energy = -288.22906101 eV
Co 3.7528765568341664 4.982221099850425 1.829018286431926
Co 1.7740074921245987 3.6685869349863944 2.1109368529050583
Co 5.944126880030662 6.05512371896541 1.93741532433871
Co 5.955722574338341 8.296770486196408 2.749893639304423
Co 4.148614460449154 6.907637291034753 3.1463450068759515
Co 5.882845240453663 3.767819538651789 1.3691994046352076
Co 7.560690646823162 4.685649591323258 2.928928527308589
Co 2.0536783379719403 5.827600548958008 3.399107023391915
Co 4.00538486005051 2.6654058023257177 2.2647578038062575
Co 7.8987521867430015 7.053060106547338 3.1143561747876447
Co 7.035440104394459 8.528800386650744 4.782279620422515
Co 4.749887309987584 8.209777886800124 4.972004927097621
Co 1.965524526809585 1.8345009563451387 3.545639401848227
Co 0.736307145740356 3.869087903505835 4.242915109491909
Co 5.2728258175316896 4.409187925524011 3.563011303355818
Co 7.253391211727449 3.636315224842965 4.9813175631733175
Co 3.048957853832471 3.856812612456017 4.053227301319572
Co 2.4101016065887357 7.65473887028949 4.831615134166707
Co 6.342420890669142 6.193578323754258 4.696356283019838
Co 6.206304108105353 2.2904266426938107 3.3640316774748644
Co 10.328922612756207 6.510889956617563 6.359118762890343
Co 0.3582956131278409 6.180634404912948 4.89667018779486
Co 4.180582041056694 1.743457895909759 4.473730286681202
Co 9.305231819075892 7.9255153156076075 4.851821677073463
Co 8.653410743353009 5.59801011076274 4.872053024580917
Co 2.296400710312553 2.5522596849614727 5.81986847180389
Co 3.933923836952104 5.8627451041486625 5.254672095275602
Co 4.103289840269831 1.5035953936279527 6.900769889028933
Co 4.749825238464037 3.618568226729676 5.839194283667567
Co 7.931502596584694 7.173053220734112 6.664017595626369
Co 9.006989327803794 4.761424042254866 7.080406554098393
Co 6.181097791471062 1.7112193185176598 5.745943039408709
Co 1.9230273048823363 4.888010606302395 6.018503539941724
Co 8.343569868153466 9.566814041719377 6.362839489512951
Co 7.8990733974510725 2.7600930148865537 7.077636897697946
Co 9.868832310523173 8.375589429883922 7.570570384792404
Co 1.3741790665225406 7.092711716924362 6.781732034659694
Co 6.077624376565466 8.951664422155394 6.960209863497004
Co 3.5297875748119143 8.27004644982862 6.887908553424848
Co 6.679770103124672 4.903451662313578 6.828972452422327
Co 3.2668897292048054 6.049205881489374 7.597712023834508
Co 9.060197144877602 6.434548271587716 8.679877636153915
Co 3.337062177029563 3.6811756651632557 7.66704906438857
Co 5.753990474177603 2.9173242270548814 7.879101589433597
Co 7.8079011416285935 8.612765953598052 8.56793663515995
Co 7.5964065038221005 4.398804646117293 8.934314537707829
Co 5.380118133371678 6.816228190011737 6.917693930294504
Co 5.088407136976137 4.983064673271016 8.648864732619918
Co 6.781500078975627 6.559695125740195 8.774122905904266
