44
Energy = -257.39605596 eV
Co 1.0907427118408763 5.830733554313546 6.75905800394732
Co 0.9128616385464443 5.807479088173922 4.336834172072934
Co 2.821001728034595 4.711013748610891 7.891745394072188
Co 2.7191131740706296 7.105507646247794 7.79147782747141
Co 2.640036517461369 4.620854825032143 5.487045031388397
Co 3.4058518364793358 6.01629118052642 9.7104458163259
Co 2.6088112116559694 7.027901519967208 5.397925427481412
Co 2.4987238934511917 4.554101978506106 3.140744327128246
Co 2.4644855184326877 6.96951704117543 3.039132309965333
Co 4.496149558884691 3.457882859888774 6.638315669138625
Co 4.40199122329377 5.864427288485604 6.5461108235561944
Co 4.323111985766886 8.333881795919579 6.498180590527336
Co 4.319718238177228 3.377635045732678 4.217054122209006
Co 5.167813116117848 4.819013885865535 8.587029317933291
Co 5.031447564185472 7.2039787602531025 8.46053322783414
Co 4.210927568217171 8.290849991414301 4.0686795721830284
Co 4.247726370181384 5.819548174968817 4.0563893928738795
Co 6.156703889303743 2.264905314867413 5.304863120375905
Co 4.04339704308165 3.35763358322243 1.8380348576408636
Co 5.634930831089248 6.159738460968059 10.487119921253115
Co 4.015282637719225 5.669525758948513 1.685602670786131
Co 6.132590975192843 4.647977578542583 5.231784303460826
Co 7.069031372783085 7.658064957336432 9.32797445879309
Co 5.86807121948407 9.55992345550058 5.220376782866807
Co 5.8653602159224425 2.2051571737273274 2.946157036666725
Co 5.6295822650981755 7.120913798393069 2.66478315401794
Co 8.621128912510965 5.050610816888869 5.311598189810265
Co 6.779249269056608 3.6091562273350726 7.303531742935079
Co 7.401274660580831 5.310551527461338 9.280546009263405
Co 6.773163494449078 8.432654254458559 7.095218379103797
Co 8.485084339424823 2.785516765215745 5.970571026623017
Co 7.311069345920562 8.480718062053226 3.730474850779731
Co 6.84967867077924 5.996230990998944 7.125253618655035
Co 5.985115674975044 7.165570489355174 5.135199823856862
Co 5.8260722932658995 4.566627711038284 2.7484305714223405
Co 8.150574795960136 9.648588583615378 5.615508996340894
Co 8.772834685254967 7.0652820430419245 7.89292989298394
Co 10.579905511869178 3.9164381425015122 6.179555082348906
Co 7.620695012542403 3.383065892131303 3.836544466250472
Co 8.911748072687006 4.692812320847754 7.606339933146794
Co 9.891855103252384 3.5366001344133235 4.103799020638648
Co 8.349052444212282 7.390201850874985 5.564404156430173
Co 7.476418101601568 6.023105980022123 3.6011295838013178
Co 10.285032694005173 6.263970955020326 6.324626962681946
