48
Energy = -282.57684513 eV
Co 3.2265497011878286 3.6254127143973385 0.5380429025735072
Co 1.2679241211001155 4.565588315897031 9.858802991926218
Co 5.024394551912392 2.1043172802081545 0.6278276174249984
Co 9.282164165680873 3.7377013681982114 1.0113534752763333
Co 5.15902708876667 4.767073043647823 1.1843099158897645
Co 3.084685023486245 6.147033970128903 0.7783042311647235
Co 2.0258346960152895 1.6098636064237353 1.044905362158194
Co 8.862417522565627 3.785234746367394 2.8978553871896557
Co 0.9514464422908142 5.79751418687067 1.8793034151115866
Co 1.3625222163186013 3.4642281348787773 2.2161474713191573
Co 7.014056509638314 5.467907899809689 2.573077601902247
Co 6.560236968433514 3.046724889152375 2.176442573517014
Co 3.5641712859562937 0.2490498082320198 2.04486488866727
Co 9.61678791199651 1.9329499472620693 2.5479756422612367
Co 5.739192685813052 0.8042951026230336 2.609655571772446
Co 2.449424248580139 7.038250365725308 3.4478305204218955
Co 4.769849703184496 6.681523183477961 2.778289835750188
Co 3.8496108973661496 2.4908251616123738 2.537128272401416
Co 3.1368008326517387 4.911636792872517 2.579851688893981
Co 9.179547132600456 4.334825722554704 3.2381799577379273
Co 5.106340797032119 4.48327552005305 3.50644842020791
Co 1.8608054179971139 1.3757938274198012 3.444158593824322
Co 9.85326958713566 6.7462695939805934 3.835534920161094
Co 7.195231486555249 3.990734269810952 4.408582333050204
Co 8.656587387336616 5.677829723997361 4.510526144750809
Co 5.511221405784482 2.2909411412107312 4.301059276884294
Co 3.8619037533622653 0.6932881892637103 4.4247655992974515
Co 1.3876884995069052 4.965063336316517 4.120050154832071
Co 6.248543783629817 0.3122712349448476 5.073846420781776
Co 3.159295481980015 3.188528722754345 4.702318027932246
Co 0.5562774668489163 2.8405799339401607 4.658163103469216
Co 1.554334292480702 6.727122438137301 5.666484787734945
Co 7.801206235680174 1.783691783982267 3.8955884327862944
Co 9.179547132600456 3.3768371713671756 5.239887299331898
Co 6.238339429815812 6.2116730451852895 4.753238130860829
Co 3.515061232999268 5.536972081208209 5.132934706515062
Co 9.371548772136128 5.125972385578994 5.457267673630232
Co 5.268817983383281 4.088813346822896 5.881046046427952
Co 7.073621756623919 2.3622802278955883 6.155810593595907
Co 4.290251257575812 7.604476468877078 4.989311566061431
Co 2.2105708483122752 1.7461771839933293 6.071404312462489
Co 4.636982881740916 1.7565155316850045 6.422736565204152
Co 7.35798429561907 4.8749699488118114 6.543267866136678
Co 1.5282886945031628 4.278693472534921 6.331968799556052
Co 3.527774504017157 3.6708350678627237 7.28635008322563
Co 5.170830219510769 6.153271126062321 6.8477774257179815
Co 2.922422644207314 5.934942638889853 7.3935347020170195
Co 5.8556024649043295 3.2971063189472147 7.9066929514491155
