42
Energy = -245.38346289 eV
Co 5.887739609291567 8.429018332097138 2.128277278063674
Co 8.59602407674826 2.923771171636186 7.1609981217470855
Co 5.7301714553068575 4.541882740037642 6.864227540396139
Co 10.194199703068035 4.313751794646042 5.8764665678892385
Co 6.557928103958001 5.638570757516141 5.006819051167951
Co 2.9278333229379894 7.108199295695095 4.643746079247167
Co 3.19003574993566 6.654917911817805 2.233977647144588
Co 7.761892758176745 7.543120901206218 5.705821744221468
Co 5.972654867559089 8.82211504082757 7.0382828965338735
Co 2.169527481500319 3.8366512533017514 5.816026612084072
Co 8.660568819926233 6.41166061133894 8.863665020642976
Co 3.9785347990212485 9.128901679297131 5.648336952485047
Co 7.400712283572052 7.149601560995717 3.287209889946385
Co 4.857822460968736 6.998683350933688 6.095181760378682
Co 5.035116462782779 5.028188750511921 8.998913155358618
Co 4.3515143774882254 4.576875950484922 2.6692503381754937
Co 3.9418889328513185 8.729580311352493 3.310442256102577
Co 6.641626282928194 6.627402789486945 7.717524022375814
Co 5.049580612572348 6.683238689309923 3.5604572351361683
Co 7.36358853330814 4.312982520407079 8.69318743573376
Co 2.7775744034164833 7.620617846008151 7.014241921752509
Co 5.658082262931291 2.7635015895592976 8.390207402202396
Co 7.995283037722511 3.6822859504495438 4.812195723734814
Co 8.331389442243642 8.375723833668514 7.736037986060648
Co 6.575429250359867 2.4174090272460913 6.28319694183651
Co 9.92353824534361 4.648397759493222 8.135399070024034
Co 3.348924680229735 2.896769187579272 4.023783516167198
Co 4.209786848006262 2.886933959864289 6.382416338094397
Co 4.09358312190418 4.916249935225635 5.045851462805781
Co 8.914919523659115 5.798781028927261 4.444163944307376
Co 3.4112874579939185 5.360676769872582 7.2728741976403475
Co 5.981513442778263 8.632549312672785 4.588071152709115
Co 4.5682724616414 7.328326710552867 8.475691177222767
Co 1.4455939823143726 5.9754806383330585 5.965921757661588
Co 8.16516405944558 5.140512188654402 6.658048329323114
Co 6.583128584295765 8.360933410974694 9.29525366419212
Co 5.687856482659451 3.380990534665295 4.3423023914492695
Co 6.680897614644198 6.199895299992583 10.09202947276442
Co 6.770752313511925 4.938658428176091 2.8450436810010125
Co 9.797694418230408 6.69174894903602 6.6581628524232555
Co 2.2188430048986425 5.027558931429165 3.7003555214846506
Co 5.427754276068992 6.26325385934226 1.3383912006250054
