46
Energy = -269.97889853 eV
Co 9.133938330946076 3.173514053094991 7.920089414689341
Co 7.077890086894556 2.5106719765480823 8.8152957049235
Co 7.960209357934014 1.4323744319931615 6.925859205752781
Co 9.023346310020402 3.068766614432715 5.460489490194702
Co 7.267285429295845 4.916416718368636 8.697284830407881
Co 5.489801947092963 1.9392379896262522 7.042622094611545
Co 9.023616657006142 5.118497569934837 6.633463947518827
Co 5.179263750702791 3.817376966383338 8.421303526823214
Co 7.146763354300513 3.665768174409744 6.716559773517582
Co 6.643810380150256 1.8645244126180824 5.0268430526480055
Co 7.362579314109941 3.8336013755732963 4.034129207241762
Co 7.076746023417247 5.871266361491881 5.208931352747455
Co 9.19057860195683 5.259297391896783 4.294176673330068
Co 7.59667897092805 6.816324750878333 7.501751662883433
Co 3.4326192422814974 3.057008076013499 6.868292991556566
Co 4.160675330526619 1.832963579921458 4.966739671205441
Co 5.283086678849957 6.340245211423766 9.09915199134268
Co 5.396108819938058 2.7717591613265395 3.1952339770633804
Co 3.2261903475289717 5.039231297642937 8.271502955380528
Co 7.46246565973235 5.530530480863914 2.4466267946991054
Co 5.2287826348658415 3.8351818049707647 5.3640042694286505
Co 8.984221382279175 7.296664168296683 5.7256867115964205
Co 5.75552519567095 8.125815433445636 7.572323662729165
Co 5.531978922333597 5.62694020538461 7.007960063101846
Co 3.3057747362510077 5.241534888584849 5.924229048214031
Co 1.3474020096438912 4.192518955015234 6.890502301942068
Co 7.938827219776215 9.104339992653612 7.007925533944232
Co 5.401434260455999 5.140753920941146 3.3859565400239844
Co 3.6539728783863623 7.156779865131103 7.358747843794765
Co 4.846125592330973 6.867139990700672 5.109802795018922
Co 3.366710427505221 3.9272490606047326 3.8753304085143445
Co 1.863085657969916 2.788528200584577 5.135646140342243
Co 1.4598482112681064 6.435096330497951 6.961538424300282
Co 8.911058556409372 9.302811961316895 4.655582856727249
Co 8.13708871816917 7.353867382690637 3.5478398661413952
Co 6.651510304906676 8.495983869155067 5.209585199201654
Co 2.4765127768458797 7.450214787611538 5.159576950564849
Co 1.4259158121548463 5.157513374101443 4.676744819316155
Co 5.882266881888459 10.314963567608654 6.8577049730697395
Co 3.3263294357343325 6.237527291874194 3.40641040991975
Co 7.374212290334618 10.833154018391346 5.272485467666383
Co 5.809512166226497 7.407951131857976 3.017486313075158
Co 4.218762457811786 8.966264476652318 5.896190701042576
Co 7.03604048045002 9.379946426510122 3.0561422486435745
Co 3.9332164577051314 8.605466562807392 3.595656473524951
Co 5.343462606250727 10.290246412012815 4.317995226355679
