49
Energy = -289.19192631 eV
Co 7.034824026724435 4.535089666661339 10.03295552730166
Co 6.686692041870421 7.731721494325621 7.837712337623962
Co 9.002891200419642 7.6311167193563385 7.245543621021773
Co 8.021322413697973 5.849345821546306 8.397767147567063
Co 5.535484312716533 6.044285901450627 9.078282189962016
Co 8.762181066382073 3.67525086129344 8.06456971043991
Co 7.173789310113984 2.4138298640562432 9.402658349459292
Co 9.49398436765772 5.40807890237111 6.492977866962073
Co 5.968078111794079 9.850003606074894 7.272015657080736
Co 4.381342872371154 7.933849064561685 8.174930580890306
Co 4.748549539401017 3.876887146763556 9.249596778130114
Co 7.545447170709796 8.880162821750845 5.888169365799254
Co 8.892714024210047 7.25257508701646 4.838399572879543
Co 6.476599651354033 4.09549695409631 7.681231247007917
Co 5.032226510455884 5.984204474644067 6.851913455857178
Co 7.320356063876239 6.129700714440875 6.109576866349158
Co 8.014942054986458 3.728399010551343 5.8279176346881565
Co 7.506378439298522 1.8766307051771083 7.127041956550066
Co 3.1940370024134572 5.414510503530087 8.08057880944741
Co 3.8320074867454057 9.63565978723578 6.538885577763164
Co 5.759885980734843 10.063744674542434 4.796678067486493
Co 5.373816357241503 1.9078826399958 8.075323065660582
Co 5.352210342300567 8.032434543422514 5.776954558388076
Co 2.995178164768662 7.354803818115162 6.422173597050311
Co 7.509289762416091 8.81725554451384 3.582338503093913
Co 8.663813246819508 5.080543385829513 4.089686327293714
Co 6.744219891766825 6.534719557575435 3.8106627007558935
Co 5.293044014659795 8.412336141284367 3.1712001965840098
Co 7.773337009728327 1.6019816689479056 4.808453115653749
Co 5.7459090735504335 2.2959672320214413 5.63631511938164
Co 3.408963106231458 8.708987686160464 4.467883396888899
Co 4.357128053217155 6.502939141821624 4.2441560952888375
Co 1.2007494888930355 5.809187459438344 6.588584583220163
Co 5.666672989311579 4.574994633838965 5.1444664249292025
Co 8.832260785737951 6.895764028687835 2.514193643164928
Co 1.929057089861932 3.572103726824233 6.790114465655661
Co 7.125020993749625 3.416551836846044 3.590698440580292
Co 3.1372587545109374 5.110656021030063 5.578280657806788
Co 1.8841965667884182 6.752723086010015 4.398844455388028
Co 5.370581369379868 1.9229613366200833 3.426925065412305
Co 4.226247958202625 3.5498217695972496 6.966309417876604
Co 6.8983774146471495 7.5473794100920175 1.5842400577171463
Co 5.046148864223414 6.254214107854633 1.980719063937813
Co 3.079435293838507 7.393972319540926 2.4860274118518295
Co 7.291265392343618 5.111234918045301 2.061327867654486
Co 1.1632215303888735 4.390331438772606 4.690239400424059
Co 5.041439155345229 4.197300885874805 2.9173952664712925
Co 2.8676568069749484 5.029586991811613 3.136807561169179
Co 3.676207345472083 3.095801103524129 4.572001068001918
