43
Energy = -247.82387183 eV
Co 5.913321361790904 8.421376962855275 3.121835075648122
Co 7.142245027015575 6.392678561077748 3.151426254868768
Co 8.293386009344363 8.447782953232817 3.30952047301148
Co 4.645460359965614 6.413538938456966 2.9513331289989417
Co 9.350874062600253 5.81048192079337 3.7392981562406598
Co 10.37717687306806 7.692345341069664 4.4157456815658
Co 3.5967330510365576 8.474597754361909 2.8373300297844155
Co 4.515746189824722 9.146444272586072 4.90032100307264
Co 5.81352248378858 4.477005815777774 3.712137989428634
Co 7.627280949423351 5.002030197941261 5.087572561694301
Co 6.855331909712828 9.226209639065837 5.122128889716709
Co 8.242700857192835 7.331712938969874 5.334297356416027
Co 5.762940023038035 6.930896456284204 4.968706138761985
Co 9.167468605143632 9.52892823192607 5.30282954010689
Co 3.975423728781307 5.013292011520484 4.8969855256921635
Co 9.737395857874908 5.676931568533467 6.100708456487169
Co 7.038879776393693 2.723509723851277 4.684855500572765
Co 9.169309928683926 3.4052588237271255 5.57703494404243
Co 3.202464170168691 7.2291597156061425 4.734261321483495
Co 10.134585709541524 7.981024993098307 6.72139568996907
Co 3.28223183417464 8.518420001330403 6.841791846990426
Co 8.906210725497713 6.620384451254478 8.120934938467562
Co 7.9113901088638725 8.591375152156047 7.326806231778531
Co 4.664757690552722 2.74239410552122 5.049575462151101
Co 6.826406142956079 6.323410961368116 7.093157788995482
Co 5.607576579103265 8.40515046800661 7.00600592463705
Co 8.216060054356674 4.381714548121432 7.443471514121724
Co 5.982876289459169 0.8953153000901442 5.581194164356801
Co 1.321787371327314 7.868590098586056 5.783262418361241
Co 4.340600612505821 6.347217621506724 6.8463766181068095
Co 5.882271490289427 4.172289007771814 6.484809837504488
Co 2.108070287569073 5.789749487686184 6.410743104474632
Co 7.402668430010351 2.2153204573054244 6.8719559639397865
Co 6.568576169113344 7.52886711630889 9.04344531994616
Co 7.519717008217485 5.366025081834478 9.487385256295964
Co 3.5395678066072813 3.9418464328499025 6.971781242057266
Co 4.18573042149376 7.567806294460115 8.822265918459685
Co 5.047306983850416 2.135325676029685 7.300915754150224
Co 1.7361678697707692 7.431779911715481 8.065897824181299
Co 5.324350898666724 5.395483508930743 8.7552952495038
Co 6.444415365796626 3.341707256752088 8.758170139814615
Co 2.9604657143254816 5.553497674806964 8.640322641618184
Co 4.114518797451567 3.4297542647010144 9.129877630611507
