42
Energy = -231.76014527 eV
Co 10.713853307644456 11.982667736648702 9.883913182326738
Co 6.971953237564964 7.498338228079599 14.083810562551571
Co 13.656104101555526 12.8798112893677 7.397242969586098
Co 11.771866808271438 9.77941779988568 7.1699260298841025
Co 7.837147914731173 10.731883324080808 5.919280253818436
Co 11.342600151848474 7.786099043840421 5.287514720108577
Co 8.367918378810574 12.57987252942683 7.206607530571129
Co 6.081505510395964 11.868915727363806 7.049297460381462
Co 9.604082085172358 10.474400112091223 13.715540596552666
Co 12.72220728181989 11.477259901824196 5.818683986709551
Co 9.074824898728949 11.813851349901679 11.671456776022756
Co 8.466103890320648 9.13280084261685 12.208311666497432
Co 8.327816368539446 12.168518602956228 9.484113643211392
Co 8.671255697017443 6.953218286978966 12.574598870664799
Co 6.87167438424586 5.495407252954292 15.23360486883976
Co 12.900812804342914 8.659723563290093 13.513770821412797
Co 7.418781973533608 10.981094939540375 13.092641841230465
Co 11.829719350950558 10.00674086864617 9.46331032794839
Co 9.651279867853143 9.337520413576456 5.987888591608372
Co 13.18725339054254 10.227584001276263 11.357832198297576
Co 9.715066119315987 10.674859120767655 7.975344759487243
Co 13.378168642281002 9.326814137089718 5.7167394944668795
Co 9.289271967351398 9.842775751742405 10.018397180763285
Co 11.125957166973988 9.239495236474207 15.086517364796624
Co 7.172018738573784 10.374596846497957 10.745638762413416
Co 6.819168487608179 5.588678276076384 12.93504713084762
Co 11.401979790847818 12.349171732501452 7.710545002486314
Co 7.370441742246835 10.401335651868648 8.159028829907507
Co 10.764501640956027 8.377233246383561 12.992532626047675
Co 6.688471860485143 13.513529805710974 8.624094058388852
Co 10.865793247091064 10.286481028615313 11.653395431805745
Co 12.0514809145078 10.782032600885346 13.53652039956973
Co 13.054773841365774 11.994659938226915 9.464794080792323
Co 12.251864741242484 12.283956066565258 11.622983962127249
Co 5.764982067174791 11.61846480883701 9.397574313176714
Co 10.102036639997735 11.580816382175607 5.811054145199859
Co 13.971657912779433 10.617403635315261 7.693442281329053
Co 11.422919615680707 9.93965175755923 4.5645828257012075
Co 6.006763933653208 3.8539350085970057 14.199798882180216
Co 9.010409629634044 8.299141843634397 14.521128521499968
Co 6.8868296136791525 12.591032652484214 11.298893725676106
Co 12.998289531170768 8.210757628116435 3.863200462749435
