40
Energy = -316.54080003 eV
Co 0.7581312379935605 4.835232660994498 4.727978088359488
Co 2.2117569069803764 4.484800150833138 6.596142300113253
Co 2.592886001344464 6.671159180172816 5.186911182644503
Co 3.2987130738903003 4.262249326063468 8.737670245307518
Co 3.8105584016109 6.581588788926444 7.507548359800218
Co 3.5196003429583826 8.807755984870667 5.684256742787554
Co 1.5116320137035393 3.427640219394514 3.071889122507568
Co 1.2844049909036048 6.278943446519249 2.9196880849824414
Co 5.474410103928325 6.032634438894422 9.176340633457661
Co 3.466018431133398 7.453531570780841 3.185764070763778
Co 5.468913771822163 8.245439596180177 7.537569921706459
Co 4.608087477326356 9.31498424554927 3.626558772629521
Co 2.613727668723116 2.761274131300622 5.222288525803481
Co 3.574709702301443 1.293276419797582 3.222395643312619
Co 3.6350238658070735 2.26662750495413 7.263360697171334
Co 5.726241972057844 3.821053446211507 8.434355977375798
Co 3.4687734984724266 4.867077159367269 4.009896983906167
Co 4.630000616893402 4.508321467869336 6.378704826131778
Co 5.064520091453118 6.806111369295032 5.120807513099696
Co 7.634110907713537 7.330352915634377 9.007243834658075
Co 2.6119189840598365 5.292246466774157 1.5187969079614114
Co 5.936941458701141 1.99903343398152 6.8050366383805185
Co 5.053280727110355 2.7593160663318748 4.661257746718384
Co 3.914413432384571 3.3224017044843936 2.112158308322334
Co 6.505994545757177 6.178799994528944 6.885912426702682
Co 7.989617605748056 4.860997143514815 8.520034187048282
Co 6.262330562690631 8.637786054219118 5.4945887880238935
Co 6.330771347660062 4.785962680942333 4.332597010851787
Co 7.3215431308668 3.798939263578984 6.193549302581942
Co 5.114703622709016 5.695676688789626 2.502425181009543
Co 6.220113503697248 7.8382421790183825 2.9770974370600998
Co 10.020457628364783 6.991688189552594 8.820367659393611
Co 8.269960334334446 7.905185237564396 6.726955028312941
Co 7.48451126157413 2.159047196868042 4.418584540320098
Co 6.1115240560814525 3.2069955586737593 2.217386904959006
Co 9.26355154988128 5.800035469856165 6.830244700905264
Co 7.775857361645891 6.605980850535607 4.543289483731824
Co 7.719977335551512 5.667449304018398 2.2862214193205217
Co 9.017063174901216 4.539419052923035 4.647229669895515
Co 8.473511257570092 3.4592164526724973 2.6051944282832293
