43
Energy = -252.44889767 eV
Co 3.484899662029174 3.337423157417242 9.244899106673905
Co 5.297739174035387 4.649824861927158 8.610903068167074
Co 5.579772909582633 2.253496105439231 8.913487953857324
Co 3.0724162670187134 5.446159881924383 8.197677633557714
Co 4.438549662406203 3.1010116157212044 7.089296737441682
Co 2.1510342485693745 3.4896801357191936 7.34807925656297
Co 7.354712889792252 5.921020096538323 8.398237791072004
Co 5.0817238934098965 6.936295017550858 8.170811135722415
Co 6.6098795049091255 2.162824324414825 6.744599323848022
Co 7.44756961153813 3.5590482462257245 8.552291525288796
Co 9.253575124072407 7.270358146852652 8.251096083732342
Co 4.488843153150405 5.435762924343521 6.289573128897368
Co 7.120515173951872 8.311395795344385 8.177668131736652
Co 3.2368261590199774 7.443823081978547 6.800707768663749
Co 9.425290826864265 4.781912820401608 8.392765614887876
Co 7.600451192272625 2.3723435392924936 4.6187527428646895
Co 2.1651001833956656 5.50092499184904 5.966383990602703
Co 6.676085537638036 4.489182777144294 6.531772384617235
Co 3.083921744111549 3.5151433179221203 5.199994037103107
Co 5.408872947220411 3.2773618677127914 4.879930397339664
Co 8.71916744816147 3.4106382547543204 6.556313407578717
Co 3.644910338366357 5.456083610344391 3.9925369678401057
Co 6.585684113152965 6.946752329575188 6.300532389350281
Co 8.751751417462865 5.837892795945998 6.442510750467211
Co 5.2106720100259185 8.91830092548911 6.781098484954526
Co 4.147091467889823 3.459068358183743 2.9324074702687346
Co 8.246229824924718 4.583258846749378 4.495583877353095
Co 4.666627416140668 7.498662968783948 4.852924209353087
Co 7.225183338060822 10.152324438505921 6.753428234134218
Co 3.392630352187447 9.413769707083345 5.394947725325078
Co 6.101235021821946 5.578902653785491 4.295431740737095
Co 8.568513784391238 8.30307959099318 6.293657230796086
Co 6.510878807764033 3.641984544088012 2.8594253459132766
Co 2.349645930156936 7.411390201905859 4.554960622765222
Co 8.733382127588698 3.384286779218932 2.668412712873395
Co 5.3141594013613735 10.744826195848034 5.3411450974603
Co 8.059809538656673 6.970817179078635 4.353836393312316
Co 6.705502197753985 8.901219011029447 4.852771347928715
Co 3.846988888730303 7.432051300537476 2.651419838566474
Co 7.620665402237501 5.649962716085379 2.3946703168616708
Co 5.153884501204144 5.492613070349962 2.1454022138819018
Co 4.862503808004459 9.43189792408865 3.4794102631469124
Co 6.217934327131642 7.522240661692 2.9143295311904005
