40
Energy = -233.76548933 eV
Co 3.9608642800175087 9.74422430629139 8.07393770229147
Co 4.088031453768815 9.508144952450577 5.488666489331603
Co 7.101655479687394 9.083525644507137 5.361613905840366
Co 3.2768201760690094 7.76804987455858 9.148075910946964
Co 7.290833934488544 9.36350028514954 7.8160436701317115
Co 5.530081651050113 8.559515240925137 9.309037707686633
Co 5.456216329941735 8.416562556553618 6.951018774541831
Co 5.393614083386763 7.805336850642353 4.5727390112997925
Co 3.0994393176593564 7.600679566204996 4.465876285359046
Co 3.001307308205114 7.995808822906277 6.858299030956843
Co 8.551623856280099 7.779160903329477 6.590139516700254
Co 6.621895245461489 8.15857283004589 2.695607583229945
Co 5.00846426383115 6.435883608352586 8.402028790715855
Co 7.348622352610495 7.16609294957222 8.589104074761137
Co 2.759069318887666 5.80694496113077 7.899228096656839
Co 1.893585323531182 5.975099086048374 5.7087527511633205
Co 7.768531081311686 7.00220535805653 4.360574063220395
Co 4.700361577177653 6.723919342498013 2.6351202258835826
Co 6.638312218604666 6.399882125312013 6.484856423500535
Co 5.7355981966510985 5.412765056394784 4.293966501724355
Co 4.244082874100114 6.1832855234026 6.068369020829221
Co 4.394280188423064 4.1361283391458645 8.314474803185465
Co 6.742929072561811 4.80145070015247 8.432292347271524
Co 3.301950830651766 4.042720185405311 6.159938872244006
Co 8.717799660393695 5.5322859843295005 7.38010874507074
Co 3.3747510086107124 5.241407626745853 4.009892532968055
Co 9.725458810510208 6.1232256970176016 5.286339339045588
Co 6.993433555001014 5.878439002663365 2.3949964588688157
Co 4.949206556389698 4.420373482679294 2.2872343973716602
Co 7.856006413116063 4.70691431421539 5.2898183482498995
Co 5.7057824073697745 4.114863850456955 6.39362561246825
Co 6.0681443563063 2.474303765833381 8.12710971581147
Co 4.584138227759214 2.0409087627556186 6.431758028511324
Co 4.690443481937993 3.2500879307366928 4.344508424387541
Co 8.931823011730788 4.87547454872422 3.311577844409876
Co 10.01906496226263 3.9793816070556813 6.104122612567987
Co 6.91611352012098 3.576561860635818 3.3674547611256482
Co 7.967375432239258 3.1956887295611764 7.0236747093617815
Co 8.868208874827841 2.7579681818594 4.516202026553373
Co 6.6412341902955045 2.2537437508519385 5.303250953807063
