45
Energy = -263.66330254 eV
Co 3.7950259951506062 6.434894989866711 9.83687786692358
Co 5.431992451422178 7.753412718748453 8.469914260415717
Co 6.0642893631522465 6.192560836815772 10.120412683947887
Co 4.5679096979161615 4.356715745698795 10.545777060937393
Co 3.7108145423288423 9.41776844897878 4.391007842544399
Co 7.715417233211096 6.925964023235314 8.549380618000068
Co 4.7980922733331255 8.1055605535166 6.1377642320777985
Co 7.015831964270356 8.543654862916018 6.7469606066000045
Co 3.80804105376288 6.30398864174797 7.530242486749696
Co 3.069510582895821 4.448146858388659 8.791835615059632
Co 6.033766986922053 9.222573020288905 4.458090983982103
Co 2.6836545777282104 7.29067744708935 5.585472430758912
Co 5.64124865628035 4.626701526368903 8.451236857093969
Co 6.2574169011737375 6.283912969872328 6.856018166771484
Co 8.326924614230675 8.929400768882218 4.83261389365012
Co 7.802190416306675 4.769780635927701 9.583223932077745
Co 5.036520513080146 8.934438761281552 2.3362128257498207
Co 2.206113195191359 7.973956808994424 3.3600069773975023
Co 6.427694100752718 3.084167146606997 10.215733226053196
Co 2.3147352432361576 4.998695936684538 6.133700124611159
Co 4.685044931823744 2.524729264255641 8.713591222652452
Co 8.57176400710891 6.875369395006584 6.304862336585947
Co 2.573073459540594 5.683037151169287 3.856821585871129
Co 3.977869837730072 3.6576180431267464 6.852262746507278
Co 4.403370556398494 7.281389929816322 3.799015712643182
Co 4.468666595968811 5.625902778358062 5.373847189673553
Co 7.389993031045688 8.325997891221878 2.7507370034659746
Co 6.841299473791457 6.991684348424583 4.609281139847042
Co 9.327272623220589 6.99900071097665 4.095540272796977
Co 6.173623469885233 4.032061859727396 6.032718096462905
Co 8.044473618541225 4.771443497384212 7.3304737515678156
Co 5.909756867209937 6.682576074843454 2.05582817975597
Co 3.6012137601030254 7.143861303452892 1.6358024773024233
Co 6.921303579911592 2.722859079626901 7.907995232203628
Co 6.108788486938763 4.785286815818921 3.727553012356534
Co 5.359243819579058 1.861010972983071 6.385925731235519
Co 4.109768362665047 3.5149674205549 4.468180628407792
Co 8.277102436184595 4.928062743454905 4.948936275095811
Co 4.204462462968602 5.024900728951946 2.434806511129707
Co 8.009996915012813 5.846611456569071 2.711742421011515
Co 8.072543636065776 2.7488087755237682 5.775950145895461
Co 6.595283346069593 4.467437477999276 1.4463354051377164
Co 6.29517210491655 2.4126621888483073 4.30542360024562
Co 5.188435483359265 2.910035623928418 2.3896687870971642
Co 7.981476191973198 3.477283625402025 3.148360006163657
