42
Energy = -243.84807478 eV
Co 6.134985905811546 11.1040192638277 8.448386722780768
Co 5.826128963614534 11.083408438561914 10.785797431281614
Co 7.858063939825261 11.09551925339223 12.101665189442818
Co 9.765203710429624 11.022308632553536 13.496955850456706
Co 10.037140289412633 11.19490169552012 11.15491887550638
Co 12.005368209228836 11.125448341563608 12.44539114940145
Co 12.190706172963003 11.239415176547366 10.098972378847103
Co 12.504400805816525 11.322434481910319 7.733861013808894
Co 10.469153821182624 11.250733590487043 6.415567037732907
Co 9.789206924799641 9.24655699597338 7.624350954561751
Co 6.4096133014425805 11.122463439941958 6.125518995828073
Co 5.381460647349718 9.113069303135413 9.524431470571345
Co 8.416796840942645 9.142625825053438 13.273749341453383
Co 10.597750769940289 9.184199859572338 12.3724339732689
Co 10.858454412986093 9.237972909134948 9.900036628794547
Co 12.78964042573739 9.278622424581526 11.3579895658295
Co 13.075547481026552 9.343938825240999 8.932576657804779
Co 14.108043308835173 9.485024912623924 6.9952181341613935
Co 10.040211287433769 9.314382303322832 5.183258786923029
Co 7.859257358435835 9.272808268803784 6.0845741551075125
Co 5.667367702639024 9.17838570379489 7.099018562546913
Co 8.33528137776605 11.242149490749542 7.388480403997495
Co 7.598553715390318 9.219035219241174 8.556971499581868
Co 8.157348684266047 7.1523996826024385 9.701737105438294
Co 6.4516399191475795 7.331559786812806 6.011616978974819
Co 7.987854307193495 7.206274537889371 12.041441090643504
Co 6.505592289839478 9.119115588424613 11.808826827288174
Co 8.66780120357677 9.210451132402886 10.832657173814665
Co 10.121726750610362 7.214858637626725 11.068527724378919
Co 8.691804417946498 7.4346994958227315 4.9600522779197105
Co 8.419867838963782 7.262106432856003 7.3020892528698855
Co 12.630879164761884 7.3735996898144975 7.67121069709451
Co 12.047394826933688 7.334544688434162 12.331489132548342
Co 6.266301955413119 7.217592951829046 8.358035749529021
Co 10.598944188551153 7.361488874984184 6.355342938933449
Co 12.322022222564721 7.352988864548569 10.008621405595648
Co 5.952607322560033 7.134573646466094 10.72314711456752
Co 4.348964819541238 8.971983215752196 11.46178999421502
Co 8.065591130759746 11.290388079788428 9.7485075430108
Co 10.391416997616668 7.166620048587986 8.708500585365465
Co 11.951415838536937 9.337892539951657 6.648181301088243
Co 10.299659444110075 11.304608445773976 8.75527102293812
