41
Energy = -238.66259309 eV
Co 3.3529362150294184 3.557130648717177 8.501084560215975
Co 3.5731738306785483 5.782111975925609 0.4855890676458096
Co 5.841892153825361 4.87911098752464 0.8969297070998538
Co 1.6175791748971484 4.822801609066437 1.497903177960085
Co 4.649568855549757 1.995183021191564 1.0891648828371272
Co 2.1024145337584335 2.490215766309119 1.4300432724932943
Co 3.900392753522685 4.02611421287235 1.8782364131533078
Co 5.962806661685903 3.017133490070353 2.7217292919857434
Co 5.5425002494446955 5.53634273052065 3.054975174547395
Co 3.1628715694788214 6.141364688715954 2.9951584632108514
Co 7.662299727734802 4.549109242207075 3.0631513648046025
Co 4.222299115909013 4.0138557028233075 4.201004470294579
Co 5.077940525037653 7.142926173441206 1.5099096671657302
Co 8.71801212938297 3.418318629640622 2.872117592208192
Co 3.6325893420080972 1.7520669661883277 3.1528128036075667
Co 5.777876685899327 0.6887831129618156 3.3573687382550266
Co 0.8169886838837395 5.614508833409288 3.6772732852816126
Co 1.3080952346948453 1.600486326177816 3.70699301524708
Co 4.673731210361361 6.029513716237625 5.2519660319898005
Co 7.3007746876852755 6.738506516526834 2.224295546532223
Co 2.099146370379142 3.7004695106295005 3.436421623743845
Co 4.902428278478466 7.773909180182453 3.7980722310959214
Co 5.194738988062915 2.1722152083968442 4.974591278197192
Co 6.8717582710628955 6.675723399940222 4.6379410580665805
Co 7.427718735495551 2.1923350147571288 4.40690731531005
Co 6.5246149447592 4.315812121274312 5.0502385908026195
Co 0.6285000290429099 3.731789921321265 5.259975130922297
Co 3.9173272479328936 0.2968555686405876 5.029171570233786
Co 2.848888312253746 7.415099299095338 5.087389368617658
Co 6.071707362316875 5.497602913004185 7.052276282837502
Co 2.730305722133448 2.359489480814321 5.442208517450908
Co 2.439700713604585 5.157730612471751 5.29538274096767
Co 1.0023239254919551 5.636682813919109 6.952703723281826
Co 4.350474469596734 3.990639214090776 6.580660749197567
Co 5.530536640672026 7.742831721384941 6.380974199125481
Co 6.552378621947515 2.718885523962931 6.800482796825484
Co 6.322218724032771 0.43740681765823836 5.847058294667197
Co 2.170770522818342 3.7293788846197473 7.263612645138349
Co 4.372707551541171 1.7043001220079714 7.082277198199083
Co 3.3826449273571537 6.168020306301862 7.174209481005031
Co 5.3837121829904815 3.6257189270290584 8.501084560215975
