55
Energy = -321.14061637 eV
Co 8.702902512691855 7.0003423848571895 2.5274908866668975
Co 10.645166171538756 5.988447147763082 2.2439621445265474
Co 7.486525059145319 6.213455780159396 4.2017568872833495
Co 7.96795504350103 8.996596201604332 3.394746352629608
Co 5.813870397855303 9.99157417426722 3.4924631064350793
Co 5.266146792105008 5.44022146581757 4.268787696646873
Co 9.993058276827547 5.846400654302539 4.46522647305839
Co 5.9613566419199255 7.852537651152128 4.258097712124954
Co 10.717762945032467 7.878395698127475 3.5102268423434024
Co 9.884373451132594 9.886287429449965 4.413518879583278
Co 7.082809842171269 4.109325983683738 4.998617064063104
Co 3.966441073617347 8.902710319826472 4.017419883387353
Co 8.273252729733324 5.633437963856344 6.2825732028330865
Co 3.677762885317505 6.794936657910624 5.21660867859188
Co 9.035729610252016 7.85362919747363 5.152120227867033
Co 5.620954719360668 6.304396047183587 6.359985867173279
Co 7.178545723385374 9.900768193542211 5.396154350325583
Co 7.179554286367692 7.873481328476846 6.43480981365361
Co 4.791095272435416 8.705654236923799 6.133581853414465
Co 11.181166901951082 7.657185948331303 5.982449051115384
Co 9.939488536022024 9.564273866942802 6.665902998272105
Co 3.9292679515381868 4.883541620840168 6.886734481871807
Co 6.311570683202722 4.261849351387856 7.1237350669530155
Co 10.51749404605727 5.471952836124174 6.776401525135943
Co 3.7306750518304983 7.219301526161007 7.604013623026483
Co 11.910685434940762 9.087210052969796 7.859451970336358
Co 7.368080117641847 11.84525632525799 8.235987418495522
Co 5.727716506427612 10.566102801871905 7.159575275751371
Co 3.8715222522475616 9.53960036963355 8.250122055105527
Co 7.865801771708838 9.686299094122752 7.768432669695098
Co 11.31006350405814 7.029425827812308 8.492324524293874
Co 5.860360518034561 8.183830910944858 8.329107067487179
Co 8.766192207994273 3.645651278509754 7.25432938835657
Co 9.52904965123074 5.107284331909667 8.8732517876616
Co 7.330275362392817 6.1861468997669204 8.344429273203923
Co 5.065607737733104 5.737461283341759 8.844198413141138
Co 9.259770107179843 7.452125652699402 7.608125307575667
Co 5.905703956982766 10.250533357422407 9.474075871964247
Co 4.835784102926418 3.522598289393161 8.69220981813095
Co 4.280099332525045 8.240158597868513 10.114578127124217
Co 9.966204800012001 9.326505897094279 9.084687297742233
Co 9.808694446818516 7.01432528705355 10.27678978010695
Co 7.293860819734343 3.713674217198039 9.074864325105843
Co 6.128048065380261 6.950825437453707 10.460375312280734
Co 7.916617347141651 8.217511949624788 9.658081814079424
Co 8.166789235465904 10.632298385690566 10.000030138562957
Co 9.818702925476629 5.053754748246949 11.288346942317622
Co 7.801540520194488 5.381361545956825 10.481201466245448
Co 4.596797385684928 10.047705549575822 11.332424131623304
Co 11.561926019436958 8.49714695242629 10.446977886080225
Co 6.72850248711734 9.2083214003495 11.46528982113588
Co 9.407965022045284 9.089248037731949 11.431526606522647
Co 8.09102856268351 7.156677002988733 11.976942364307824
Co 5.889881170389124 7.527392635623977 12.619481169779169
Co 8.009362928151125 10.800423118043273 12.222958211552777
