55
Energy = -327.75404476 eV
Co 5.162663787326997 7.135022450191067 10.731441139786504
Co 10.445352993552131 8.876346094586873 7.219538671288843
Co 9.56967376305318 5.476800363187569 10.558240491503614
Co 6.9328736355466445 7.202694588641522 5.6174078710767805
Co 10.449211351466333 9.199787595466587 9.700838344290649
Co 9.381926563113012 9.790813983676587 3.8978976644246335
Co 6.478431113032476 6.807762821381438 8.772874823686122
Co 4.826796910328082 7.095099586468335 6.882669439434923
Co 8.381091488641255 9.605948176128061 6.08658651339055
Co 9.082768406542574 7.185502394269247 12.14006220610222
Co 6.943830036217412 8.127051317591306 11.9539578290778
Co 8.390035851314822 9.720596071498006 8.5144075300755
Co 6.350527546654069 10.7938054890987 5.952718729260785
Co 4.37533132819191 10.061653629441922 7.274909213850881
Co 8.42586471851717 9.789427570167422 10.960161258225455
Co 6.382683381814867 11.030016740298539 8.347943309236342
Co 9.17478827857767 7.677998786866969 4.974673580100771
Co 12.718440920295121 8.008128168789419 6.43119810640152
Co 10.78927488643827 6.651281235570888 6.341429121413615
Co 8.472388097977852 7.492083420422538 7.383972561417745
Co 12.419968757073436 8.401408740996642 8.712170714820486
Co 10.433171177478059 6.856673618092077 8.691669192644145
Co 8.488162294188236 7.630667623484581 9.882269026987872
Co 5.101775857204347 8.858570297910077 5.3736691424733865
Co 11.159822767952779 7.217626668027477 10.903631909634438
Co 8.177338625411384 11.557082251394919 4.726822074614405
Co 4.8947804907062356 9.333996821319706 11.528787078165832
Co 10.28590476330319 10.948049197376948 5.86380226699577
Co 8.298492679215048 11.75053160049003 7.135568027645188
Co 6.594256273048101 10.31581671272294 12.85668365435012
Co 10.320637836973868 11.128895560721343 8.24362024808404
Co 8.405267398020582 11.83132305663206 9.639829424805816
Co 8.546699788685585 9.241443604068623 13.348601442033294
Co 6.423808751138841 5.380891029982419 7.000760437259577
Co 12.596680786788744 6.171457325684611 7.893785548690502
Co 12.540304036934652 9.10587209319286 11.006762280333112
Co 7.245579283387387 5.962568724546133 10.922222936247598
Co 13.316184561470463 6.8710338919493426 10.14670255666675
Co 10.467709424826689 9.224449104024982 12.077138269331362
Co 7.1169180316585905 9.096291070513754 4.237004666484133
Co 12.292467464284117 10.280022100025713 7.0796714259167866
Co 4.480503202659956 10.568457585696628 9.617941247367751
Co 6.396401888952178 8.826275108878617 7.346466119780929
Co 4.35665619783923 5.941729735180549 8.830534593078568
Co 6.484945544083305 11.231819216037845 10.805042364451396
Co 6.421092492616849 9.046041881176416 9.807302246741266
Co 4.358688245338887 8.328112164136705 8.830236463018505
Co 8.612055933289632 11.514881479967327 12.410766191517604
Co 10.471683810892513 4.742605245356202 7.717945505443975
Co 8.684082677149542 5.507068099933744 6.206482029628346
Co 10.400647853710721 11.246150364927818 10.802444382386174
Co 11.726137552503406 5.176519811035544 9.782524433199601
Co 8.35494707988746 5.4181607126165705 8.559703063150222
Co 12.301977075638495 10.746330715119866 9.398097814196024
Co 11.224061632141353 8.947123598091828 5.004180112867176
