50
Energy = -295.82766364 eV
Co 8.995504950291497 7.340670844951985 8.01138168577216
Co 7.23359324739883 9.150859834576593 7.435352508805979
Co 10.013339638258124 6.861055277559829 5.56600936440204
Co 6.684146114947098 6.868761349673028 8.259292549207679
Co 4.855038120255008 9.995330815871212 6.514264556696462
Co 8.938216135672189 5.252774086528745 6.888450680929221
Co 6.760951876760683 9.176295207155173 4.894259678708006
Co 8.094144995748586 5.231033252544899 9.024380529297536
Co 5.32875151520614 8.76617639080111 8.672175232439713
Co 7.814655565269445 7.396471546459317 6.0828588818629035
Co 8.291202678290237 5.61776421787167 4.608505382209928
Co 5.517445888026975 7.861661390562823 6.414974693718151
Co 3.3905487879922185 8.24520357312749 7.556960900650158
Co 4.541010313928141 6.674858832507145 9.489625700817335
Co 4.550357097289674 8.869287262430372 4.328045299410251
Co 2.7155600346021864 9.391037998225766 5.700140438000737
Co 5.763997967844343 4.584153118379245 8.654561656115314
Co 6.052604132574806 6.804384811751848 4.367126005508549
Co 7.562835668756589 3.4315527911522348 7.601523638571021
Co 10.353165895381917 4.615964801120571 4.891646264703235
Co 6.076635248416001 8.038189456743766 2.498403126489972
Co 8.208447022422689 7.774751125894757 3.663884286616238
Co 9.952338521519948 6.158207350276784 3.157683834794493
Co 4.38257388959447 6.017907863298652 7.351935546985322
Co 6.465345754303278 5.21418685646833 6.358829918299564
Co 3.491751281057849 7.098230187083662 5.459118361294858
Co 3.3172320266523188 4.375954194518567 8.84964315202075
Co 7.684789392715563 5.958708399716108 2.3169063827485377
Co 2.298706156339486 6.426873577418697 8.44474045384531
Co 4.334733980571929 3.7166667804764213 6.900596383118742
Co 8.428960882870449 3.3222787920758434 5.376136134955363
Co 5.681856110447199 2.079698115581694 7.839333405068775
Co 1.845173079963079 7.947241936980866 4.046337196884826
Co 8.659706620058332 3.9118830820744948 3.0168464347330697
Co 1.391403371740698 7.2679021281277905 6.35750181965497
Co 4.441825678436168 5.000800883701935 4.886006007716917
Co 6.0787929192314385 2.851771844201271 5.664734981014653
Co 6.499643597619595 4.376102772708932 3.8997737208924654
Co 7.579929256450075 1.3820405205963648 6.381511800538369
Co 3.8298164077992958 6.950508988704352 3.158974408520033
Co 5.421628417189758 5.635127697243682 2.227315439279636
Co 2.329484576831202 5.063804075820103 6.55552863674565
Co 2.3142674205339837 2.736172465385755 7.198168616234036
Co 2.1127098032307594 5.614407039702077 4.260306086361396
Co 7.209102152124116 2.1367660511646878 3.718872773957539
Co 6.086667387098376 3.4117414817427765 1.8922354589450012
Co 2.783796991015813 3.308154284613519 4.971619271260748
Co 3.5366627438565352 4.40467530535879 2.7885625036415793
Co 4.119696072768489 1.6193567405089462 5.950043422157254
Co 4.767492705206494 2.6966461538091067 3.7479229639749767
