54
Energy = -319.99529853 eV
Co 10.229068918146908 6.342051209653764 8.63243665167322
Co 10.948607789184571 6.773738294589239 6.4763241394453965
Co 9.914754133896528 4.527868005707299 6.795741176250157
Co 9.458229649206714 8.425495860956577 7.719824753452516
Co 8.639366895993378 4.593611985891589 8.726561750128804
Co 7.919525890173456 6.904941374388933 9.065703538696411
Co 9.596944864016102 3.121245015198314 4.977671664562462
Co 7.874474997020461 2.912424426697953 6.7694341817819454
Co 9.946020337678863 5.664777501235247 4.676271867276364
Co 8.647409881533312 6.480227797931811 6.822371413472131
Co 9.415903547331693 7.9481692238771355 5.047919115698568
Co 7.412458160066488 9.15551279144056 8.570215888833479
Co 7.03239107863043 2.928822117146375 8.920445948134569
Co 7.906920543144206 4.723525492981679 5.324745321779571
Co 6.764609181607749 4.944222490540474 7.478456353666464
Co 6.349301325329708 5.252477541725697 9.699411006074117
Co 7.659542048305097 9.04562754242649 6.200566847314399
Co 8.766501194698227 4.3090889245999495 3.1088172255032185
Co 6.398931019884551 7.421532178550817 7.330530394398417
Co 8.54413258398089 6.679375838907349 3.0603201959243718
Co 5.70079537741138 1.7299461347721523 7.007097098582411
Co 5.657929699049256 7.666146075433654 9.437347705302649
Co 7.284169609274888 7.041128718458824 4.93611599405825
Co 7.36181426063851 2.6529524710902224 4.289004399168219
Co 5.4820509193206215 9.694322019628066 7.376257742773357
Co 5.485294303582179 5.903183520546604 5.790162284250213
Co 4.973242940309968 3.5420369183016334 8.170013879732602
Co 5.740926691896631 3.5423548519836636 5.675604582908833
Co 5.491117477248825 8.55830339646274 5.3124455273774425
Co 6.609297358154386 4.9922610507763645 3.353557508415228
Co 3.9938553672842434 7.96690931307569 7.477584981334426
Co 3.3146409747875243 2.3624990147730798 7.025935451094264
Co 4.612630804668942 5.878844462456759 8.23082302613289
Co 3.526874634588138 4.591774527033582 6.433051838253339
Co 6.6136723497570715 6.707240685927153 1.7041571139995217
Co 2.8180231881723024 4.166086490771031 8.709400965692803
Co 6.930988480026943 8.497213493014053 3.2323380945745352
Co 5.338513601266722 3.0317728839199867 3.1277409711596795
Co 5.219664849074009 6.935136286061719 3.5715376905890683
Co 4.211921512815903 4.774441526587692 4.179848539415998
Co 3.821177013107544 2.4917796712734916 4.798447024278907
Co 3.4378253116954505 7.018211019105991 5.337811318095546
Co 3.4196441367301067 9.480836040728187 5.739221988308797
Co 4.611164157624538 5.246400130602167 1.9188617629909932
Co 1.714684153582429 8.168118958015707 6.490338772212047
Co 1.3449230475371612 4.014501723231099 6.895677399191195
Co 2.0387377353998968 3.9719636210376783 4.572476819306847
Co 2.301781331260179 6.188503969064724 7.57224696367232
Co 4.321196558828362 7.494482128095622 1.5385224471761338
Co 3.642146016162156 8.611386502802297 3.5588494583606933
Co 1.3601668643492324 5.9729480657716865 5.426196104260174
Co 3.0476693564861583 3.5879059443033428 2.513503627595906
Co 1.516684584238085 7.99515214654783 4.163567692531162
Co 2.741771920796452 6.230692329060242 3.1506593351610057
