53
Energy = -311.96447824 eV
Co 6.31393482488382 0.8091714209592457 5.934992127423554
Co 4.290093410846338 1.0896808015664612 4.857556332904682
Co 4.393554685138899 0.7843098800448133 7.182745899194795
Co 6.295421027414487 2.6880155653318263 4.170314306011689
Co 7.742898239989519 2.5484898606390387 6.074811540746706
Co 6.322514444177221 2.091554812900871 8.006261684403603
Co 7.846719189838721 3.8955975608887043 7.890157861044504
Co 5.048749735964679 2.884332235186142 6.2133457534243615
Co 8.976624308661004 4.585901361767958 5.786926211636186
Co 7.362883978497153 3.158936579223461 2.115116397365192
Co 8.6718324888713 3.068186916801094 4.056280419322353
Co 3.7843197545736835 3.12895517609126 4.061033453322296
Co 2.793834645539549 2.5452938844890407 6.219618668620571
Co 9.68635208749433 5.102444676374337 8.280618393974455
Co 6.939696787493678 5.288217389244883 1.3334353338702498
Co 7.399382832885255 4.967201168238353 3.6333260855437284
Co 8.779190963264892 6.704595708929721 4.725188206651804
Co 4.00162305116018 2.764627409046491 8.361265757694257
Co 10.249383742690195 6.445605518897784 6.547822172464597
Co 6.599937665297973 4.637851677052316 5.921688884583148
Co 5.658691979408583 4.454223561310112 8.258904387992795
Co 5.254263522540899 4.032792985765421 2.5400149082355385
Co 7.517523607895397 5.786547743811446 9.316251068425213
Co 7.8159292951068045 6.4185813125725995 7.024558054551996
Co 3.1487543302720358 5.190880488307455 2.927450823397801
Co 2.278794909876269 4.560921328977282 5.046652045755258
Co 3.608673403447156 4.868174678584188 9.416849715460435
Co 4.5644851909944 5.259999921251638 4.795690897088594
Co 9.249642623923371 7.337185116455602 8.653405319869837
Co 5.4030950978674595 6.295965037623649 2.7406787719346415
Co 6.438186727887305 6.888850902135959 4.859254534141265
Co 3.5141996928756427 4.687660525370669 7.063094309857872
Co 5.281743925287091 6.5014257906084225 9.350067350716026
Co 7.026169072006687 8.023208762165961 8.756342749366654
Co 9.052911284491481 8.435341327585697 6.423318786273513
Co 5.245554937864779 6.484642403197551 6.950095615619886
Co 7.568118531989838 7.205193317919349 2.719877154520569
Co 1.5063032777568997 6.497458915959018 4.038016819951374
Co 6.665503117082308 8.623489361132716 6.547221339658953
Co 3.1905724050806845 6.794718415592564 8.164729035833746
Co 3.6040331344620222 7.3614816658164965 3.685866830236378
Co 2.866480441549182 6.7374799688168645 5.869459892089455
Co 7.805060591473561 8.869113316873442 4.443708386680022
Co 4.520710452528972 8.418542986535932 5.536869928258905
Co 8.708789613367339 9.62540370758167 8.353235351397819
Co 4.7480370307048805 8.527553442836355 8.098999608190583
Co 5.66098968505742 8.597475654674502 3.3821802155348033
Co 2.714687786532863 8.813851241735339 6.943245427223018
Co 5.950992892520491 10.322175656828112 4.984980542178131
Co 6.481004209049122 10.361237517036079 8.128768894637375
Co 7.9673879957033185 10.559484530676626 6.290961913643762
Co 4.517390376080547 10.448806694663908 6.791291936200854
Co 6.194673371922846 12.058940221281796 6.5979582202443305
