54
Energy = -320.34434725 eV
Co 10.35295006320653 8.654756555755533 4.877218897375261
Co 9.935874753364134 6.696873085461175 6.143284726029715
Co 9.569742804601326 8.786389479047411 7.223889838728162
Co 9.597949212259188 6.750789350873525 8.528723004938811
Co 8.960890182768226 4.633575563125426 7.617692642546975
Co 9.080969877395068 10.508459227249748 5.545070960633583
Co 8.903177498558033 6.901211891571263 3.862291662804805
Co 8.563001635081406 4.978045931597835 5.245944491853513
Co 8.176713634799846 2.845797496515753 6.168389987278044
Co 8.440949813084101 9.242521852905554 3.4038240719676582
Co 8.111281711292662 8.367959693114965 5.472717431051257
Co 8.339759518643415 3.05701225971895 3.7936329188506703
Co 7.782300862019406 6.640869402125036 6.998068829294555
Co 7.136209532955839 3.2666449277928304 8.692667040734628
Co 7.4696984615867965 9.942310782541512 7.286498794721768
Co 7.722217551912011 8.156335424383597 8.720587581269559
Co 7.474585547445511 5.5778157676235365 9.178486200406383
Co 6.673037845372781 1.4892394910458453 4.724158363270002
Co 7.406291920653129 7.401458483414793 2.1617482993443953
Co 7.486414031774139 5.208805050478349 3.054359811973969
Co 6.680333718017445 4.629142533789196 6.937872112212012
Co 6.765323793863547 10.30998142776466 5.0448886334459875
Co 6.559250167438746 6.335705511152141 4.935819222189401
Co 6.022806765854759 2.220641433915215 6.839659607839478
Co 6.429161294849484 3.805162848296557 4.767009394853879
Co 6.4097899241180345 7.3396372979816125 10.400989783699037
Co 5.959593973648542 8.38341349648549 6.38350785687157
Co 6.173210997300903 8.478568486129154 3.778924368031928
Co 4.321769934543767 7.2496679490540945 4.875879571607959
Co 4.459120534328418 4.932180040890603 4.147912679291117
Co 5.6278711834528865 4.191318459087295 2.26139216515071
Co 3.8324349933960717 1.9175483665090602 7.757601015340437
Co 4.839023349333241 3.9426844318657435 8.247494525000445
Co 5.230238162191408 5.305265668208223 10.030128570882894
Co 5.635120623972882 6.743742501347482 8.21767759111958
Co 4.819273074324872 2.4881335147015786 3.637468799330738
Co 4.1535406000007935 3.2509111801357378 5.809954938952441
Co 5.48745830755156 9.068917020801287 8.546210700127201
Co 3.826783601682765 8.479220319373747 3.011728845807511
Co 4.422586520640342 1.001048957079738 5.544979797534552
Co 2.5534323504404433 4.196287615612662 7.187461842478592
Co 5.25629316972157 6.557168511667447 2.695087021624403
Co 4.433350451450535 9.583003399346014 5.134273460606401
Co 4.175223955112337 7.587560137451293 9.861361281778754
Co 4.560673653984409 5.564416196338217 6.456240568593214
Co 3.1063871645020087 4.00301600205347 2.6273303736277396
Co 3.358562922155798 5.985405198807644 8.402116260553731
Co 2.108953976402727 2.0877623858244445 6.247397134943582
Co 2.6423245596601874 2.1303962083503105 4.033415723941321
Co 3.767303610580761 7.973241858082485 7.145143691030922
Co 2.2194209143546906 4.292988085768734 4.807660849699017
Co 2.353811674923647 8.438847942749945 4.914176358413322
Co 2.642714874481813 6.3426591145029505 3.5564622738728215
Co 2.3523096307669 6.343054369662458 5.985410272066654
