55
Energy = -433.46963119 eV
Co 4.5544575237162785 7.879707711320982 3.2720781171538813
Co 8.660495565611066 5.889142559062631 3.8166065644422993
Co 6.69344334530525 6.727268971781215 3.4511625768270275
Co 7.189826371479968 10.417741238601382 3.9166430552256277
Co 8.272026794496702 8.495434593408328 3.7758691170672893
Co 5.8937097313961235 8.965369649161042 4.690338670789258
Co 10.77257854481846 4.633502262458565 4.474769168204318
Co 9.795120703639194 9.473650739517362 5.201454529801692
Co 6.753233826885823 5.2653314814167755 5.642596269598793
Co 4.76551511951235 6.583267945832594 5.29320940322835
Co 8.71254295180511 3.7785410194092752 4.882686777161463
Co 7.79767105485796 7.338193982862153 5.705017495091323
Co 10.406908916113649 7.2070619377034015 4.824236332515741
Co 6.724641457099187 11.79070404620499 5.80822501377168
Co 4.356346246121562 4.78159255375699 6.60515885564312
Co 5.195927003825611 10.438884209447417 6.480681013599012
Co 7.692185690850283 9.797886124451063 6.223791851135247
Co 9.336873665423171 5.5631407739743555 6.344879614408308
Co 3.7401122470071706 8.426137411341388 6.019369756741614
Co 5.951358361830198 7.871947499356952 7.14334583529913
Co 6.076993493095718 5.4156835283007245 7.898449711855196
Co 11.502509576359657 10.107512269446305 6.862318773238574
Co 10.660643095317376 3.790153581505805 6.885760297000876
Co 11.906968591439425 5.763650840067865 6.111706159283541
Co 11.948435676999756 7.927825835234669 6.653400877179516
Co 7.734089397414924 11.83619177540472 7.808795502368808
Co 9.360876777129427 10.441170636519466 7.620322621207276
Co 9.585315361923247 8.030113692283374 7.052943569289209
Co 7.924906817937845 3.9273254398356108 7.100877471670957
Co 2.1753957335568144 7.9918079268285 7.8571743285126505
Co 11.404383950585606 11.053494260561562 9.108935659837995
Co 6.564471626752467 10.013495597332868 8.525738420417634
Co 4.767942939507499 11.455936252935173 8.701142746518393
Co 3.988810806390738 6.65693458411175 8.090507536436078
Co 8.179291982518233 6.228528686440036 8.216262373584717
Co 6.239707842397437 3.1547268986153534 8.702412918734616
Co 10.823375765522803 6.122685273330559 8.248070732344754
Co 4.091902919886519 9.213597516890678 8.443233942868998
Co 9.439981158676545 4.076021892817199 8.580056464738995
Co 10.972969422133845 8.602879724845467 8.941597028518228
Co 8.309172517119618 8.459565972921345 8.79403437726171
Co 5.322404420146253 5.548392795780836 10.222998045698809
Co 7.410919128736103 4.497774953288129 10.036633608861132
Co 5.833581056539821 7.674000199610274 9.40184489716597
Co 9.318763788974165 10.397629767617618 9.996721830816783
Co 7.321882789870066 11.597442324877308 10.197160879559542
Co 9.874825703017178 7.985472535466037 10.76122800104169
Co 9.842020428989581 5.64458028340364 10.344374259773634
Co 4.964040985083552 9.624588555100008 10.605058296285888
Co 7.349241847408537 9.44802622126199 10.981144972049258
Co 9.444900206312706 9.723065663088024 12.262746629751708
Co 5.6659191529091215 7.559782176102664 11.839312279904364
Co 6.7948217447881785 5.614155257703621 12.129817701798922
Co 7.759285808510514 6.923511134031837 10.646691033361222
Co 7.952454185475802 7.9459510565914435 12.576587854578522
