50
Energy = -294.87749571 eV
Co 7.011133499185839 3.4986070044300424 8.494169688163012
Co 2.326409781844426 3.447182000165494 0.4882300657633695
Co 4.623633881357307 3.2689038931452683 0.1664660424687826
Co 5.9616305200868975 1.4772630486711456 0.6432120404972378
Co 8.18717988143748 2.205598407379182 1.3805426456726875
Co 5.701312374441982 5.370132993095292 0.7402913115258177
Co 7.922388696865201 4.9399912856270625 1.4909853343883344
Co 3.3140226366911656 1.319264295217593 0.7113249948521202
Co 3.177184341170922 5.58148704180854 0.9181746820124711
Co 4.609318476899028 7.5481780973104415 0.8030069822807068
Co 6.309005558490926 3.3788297071330917 2.0157385359263085
Co 2.0420418461424164 2.3838225350266353 2.5008211306115924
Co 6.745044217414527 7.009868518259842 2.1020604320023746
Co 6.808459582028817 1.2121443456272685 3.0057220973635723
Co 8.556256872403818 2.471725936920446 3.1335347190352074
Co 4.024673466193738 3.8904694616035616 2.322129657852725
Co 0.7956460213303777 4.378268278834663 1.980836173400852
Co 2.6810426633314957 7.493884891738311 2.4721892847943705
Co 4.539725719894613 1.599946459848602 2.5526963220347207
Co 8.020272781433498 3.161345008893606 3.648549603102803
Co 4.6746462093877525 6.272978829457098 2.700969284795678
Co 6.875744169683904 5.185528953913162 3.5580235279887726
Co 2.8248668125114427 0.5317327582379718 3.8133091287415635
Co 4.863321758463621 8.532287519007365 3.0135034240707923
Co 2.392645994397286 5.33045754378829 3.195089002035641
Co 1.2129836190600214 6.745829953694519 4.60068679105235
Co 1.963588546910818 3.2755110260337577 6.438358420683393
Co 5.8043509908554 2.9071936586435427 4.434386713482921
Co 5.906803826882541 6.978856525017292 4.676662887128946
Co 1.1794818395975462 1.706918034259437 4.903417756142292
Co 3.2940781241783714 2.9088293074271054 4.429857232238592
Co 4.678176749384896 4.955340020890015 4.520562754640022
Co 3.549397613416277 7.3307999533672925 4.670800684089563
Co 0.7559401871183706 4.107151560120141 4.462202371219
Co 5.033470649187675 0.727173425106992 4.675727911477002
Co 2.6736046572464973 5.269324085768316 5.542106074170094
Co 3.365349815615073 1.3386113011445526 6.239528816586879
Co 8.384350243973481 2.9991925450084853 6.412954131749316
Co 6.572483391223563 4.666727268279448 5.8756816496861255
Co 1.2234046736044222 1.343349557965626 7.386929894132637
Co 4.42144159568771 3.6746646571515504 6.495611384432579
Co 2.2481633857261 7.152534404941677 6.7325075139724015
Co 7.435582653591884 1.3816109108746104 5.21562937137753
Co 4.623198209575164 6.113424828089104 6.610676112735159
Co 0.6301293203454094 5.219006208460667 6.6921240115627425
Co 5.652078545568918 1.8151136759205182 6.661631799521699
Co 0.893854607543573 3.523869019770447 8.439288495255223
Co 3.26446188054101 2.715792191696833 8.290555220776971
Co 4.9007094171634265 4.584916557657486 8.49416968816301
Co 2.7391232986292606 5.074802830807562 7.94649516681828
