55
Energy = -320.09755399 eV
Co 8.664573019336494 5.3935730571645 2.7357544959964395
Co 9.360128280582446 7.57271476551477 2.4816778512773174
Co 5.10917425774243 7.36272966468398 4.035096183266293
Co 6.810561774680379 5.688993570750742 3.989322969726461
Co 10.651106823568128 5.203123639136542 3.79753941752027
Co 5.71687955346101 9.121097222852653 5.299511124521105
Co 7.3185000287622115 8.206777388922708 3.8146331637750124
Co 9.488366762414833 9.195146416963835 4.133603908608112
Co 8.824366786527634 6.797696602997538 4.6681777460737095
Co 11.065812059202141 7.396080174078484 4.019317150361799
Co 6.5375595439141065 4.2463546755333965 5.87926535537616
Co 5.736017561010699 11.351790294406214 5.265477304622701
Co 3.891531759693076 7.443348446874193 6.1111659427230025
Co 6.203375562668776 6.622335842082761 6.010048520979388
Co 7.8122146183015895 10.330442183968671 5.157756305943097
Co 8.772137772663877 4.489713460312159 5.163283423011727
Co 9.976554982535736 10.423425537823503 6.050230008191367
Co 6.805329655718303 10.891844679675575 7.260996952473148
Co 3.9448600644496787 10.234947007408463 6.428948018575706
Co 2.7333448514792065 5.923319180872199 7.218089860643752
Co 6.440107309307081 6.822190048965219 8.472033500698211
Co 4.909808696028902 5.179270730418824 7.401024401047372
Co 10.871931405916166 5.879190977862625 5.933868694348967
Co 8.81358851508589 6.241048639351687 6.899173747435625
Co 10.19656927441672 8.141785088268072 6.146718031523041
Co 7.723213359056148 8.383987637463251 6.503267165959884
Co 8.091007273687662 2.8076149420306065 6.88426137065967
Co 9.956232376120264 4.142153620927248 7.241621021626026
Co 5.2845281888800395 8.567055657011071 7.508834855982143
Co 10.849512727984804 7.097976475205741 8.145507212589912
Co 12.09146164347587 5.23146745021196 7.684068759180921
Co 6.288348673326282 12.308392587791841 9.286784677861561
Co 9.374133740549778 9.44987986537119 7.935413426849542
Co 5.739379909436643 3.520666543289858 8.621517601909934
Co 4.029805090653711 6.873923169294437 8.798622952668582
Co 9.056695440964518 3.293550446080994 9.165949298762051
Co 7.49722754314067 4.685761906415861 7.9972466239741555
Co 8.648528382502725 7.386142359049551 8.860128488353988
Co 2.783555937943457 11.195930078377053 8.08303269143855
Co 6.120899190624194 5.334093184923675 10.125409951227184
Co 8.32195831200061 11.2008600522879 9.035005738148707
Co 7.090848967094691 9.194060065413037 8.848555674405906
Co 9.727650027393937 6.91550786043102 10.864505675050143
Co 10.588333763062641 5.104847204729063 9.38906289409451
Co 4.868298485202269 10.695044568266196 8.617446638191673
Co 3.052050563539561 8.88772623040404 8.138727574597604
Co 9.092671131840138 9.205060925074012 10.27463542435861
Co 8.332318383990025 5.247502857212076 10.102306653371944
Co 7.9347968762021015 6.253315825485526 12.08575050949353
Co 6.787441157785724 10.415985610389322 10.745456986815064
Co 10.086779776888406 4.722484105230709 11.536726815677383
Co 6.957490992492586 7.716718595468524 10.70972535220612
Co 4.92032009268892 8.671027908007 9.94492810792499
Co 4.596337099839698 10.862697982306655 10.813687516333301
Co 7.983902120629117 8.999753137425483 12.209226410031686
