54
Energy = -320.45076532 eV
Co 2.5102745696762745 8.155271813587682 6.9462750515602
Co 2.463063742382793 6.049309958186142 8.292949476829673
Co 1.1892870448604806 7.986942583029268 5.075547512693981
Co 4.951601968884512 8.728937827761571 6.333539237835638
Co 4.491467922143678 4.8377890877915295 4.302142521242211
Co 2.6675574841146026 8.208963500947592 9.388946825340204
Co 1.3982752269383871 5.94967269463784 6.199186794299182
Co 4.569583035892232 6.974295443426598 3.071143838485315
Co 5.267167216042333 1.4436120375786723 3.7607573678402533
Co 4.326760639516896 2.7742953000277764 5.538954107488579
Co 6.139182769303536 1.4150679766543968 5.980539513010142
Co 6.362763825662248 8.795108791539894 8.315371999783583
Co 7.2699180000624475 8.592559724446925 6.075301201543909
Co 5.299290540386307 3.781206317756984 2.2756724672792306
Co 4.528979019375799 4.874313170786135 8.794968541429984
Co 5.190450630030585 2.7803672665347685 7.764632577467016
Co 3.8087485009235476 6.445293172955976 10.377286219799881
Co 5.283068237380005 5.8120877877160755 1.1391009425653786
Co 5.783048729657555 6.828450810321883 5.162259165836963
Co 6.477588504109345 3.3102712825174163 4.4976791112891155
Co 4.977026935996223 8.543852504580524 10.1983620031983
Co 7.354367021849776 3.2362834427873453 6.6963766205661885
Co 3.1410562821799486 4.170970610226787 7.022426266539184
Co 9.30111501508659 3.673198042923178 5.39874528876183
Co 7.465543674769092 8.261719491315997 10.259113290903398
Co 6.114110894240276 6.495548978519903 9.722459841661928
Co 6.8255595052808955 4.465984903889417 8.62555995592631
Co 4.464214180188276 7.2722649612405 8.212827280131227
Co 5.5096140715742115 4.760443239682317 6.577071798069786
Co 10.804085465753133 5.292926865289053 6.14804246770636
Co 6.568190183848102 5.6102627484908245 3.136793602550707
Co 10.392483101087915 6.6617884053452485 8.076972937796956
Co 7.176090316611224 2.291746171546892 2.451572670527755
Co 8.864874325436302 4.990950870963106 7.407224523851408
Co 8.43934262150806 6.244175399606768 9.362673991969302
Co 3.680627551283597 6.303422450934868 6.147720481132577
Co 8.387125149408254 4.1177060647328085 3.2633641214987756
Co 3.459450133574255 2.8002212259655974 3.253524307661425
Co 2.3213055988122444 4.079538620913548 4.847142934792368
Co 7.639796673209452 5.313865307273108 5.3577272391604005
Co 8.646463828672935 8.221874836793555 8.186156352280847
Co 5.153853976743295 1.6619604049291699 1.5353086536259748
Co 6.9586892837949685 6.60328415272312 7.42910903146918
Co 9.668422717525724 5.836457618296125 4.214666418828519
Co 4.1052934909267735 9.659095759244638 8.274772469544144
Co 9.096742347309885 7.028329382737761 6.191644383196414
Co 2.421292717817965 6.288995586970271 4.075839143587059
Co 3.277977357421275 5.041055754899329 2.309041618454004
Co 7.275916879132895 4.3476587235282205 1.1935433788434113
Co 7.854469844776487 7.4288504780806415 4.067262771187814
Co 8.566351753023069 6.194529003025067 2.1143628025995342
Co 3.4688032943852134 8.297289758309594 4.681165956475222
Co 6.594938285214149 7.6807671131536 2.0626973185573045
Co 5.8387382127691305 8.840707708824297 4.019198374195589
