54
Energy = -319.25415682 eV
Co 9.573979274245298 9.565817976440496 7.174988748649561
Co 7.976301263347044 8.503169429031589 8.77888531108147
Co 9.545876175782796 7.246406483121145 7.1404914779141
Co 7.453127798001233 10.4466670999241 7.552739258572468
Co 8.414393005006806 6.0549438007113965 8.812214846622075
Co 9.80819729686294 4.865075116426681 7.04530007929254
Co 6.955597214168744 7.05849144367564 10.417059614237212
Co 6.3158483670304495 4.902131891233669 9.530325675566365
Co 9.404906503936125 8.530002108306102 4.9317813947623
Co 7.8832631558026645 3.877202424880464 8.01929232829977
Co 9.179014320946694 2.614858629140649 6.561465288099642
Co 8.376956933994432 10.550547846529728 5.4243833110425745
Co 5.564977367831119 9.097375035687874 7.442791181545155
Co 9.56655671227514 6.249624431013993 5.006143249450584
Co 7.5725436783472295 8.336919410245999 6.396212097478454
Co 5.196751570528797 8.418143710327609 9.599436539717175
Co 6.3550133526608406 6.987923911389852 8.172067502585213
Co 7.717074829678837 5.762733750108752 6.453363513693917
Co 7.4370979352028455 1.4460180402470857 7.51316365283181
Co 5.8020317729585615 2.726014441432437 8.41472282498007
Co 6.153282940176087 10.097397374446638 5.422868160650898
Co 8.73071479708423 4.146656227647392 4.929910804739198
Co 7.195158785726392 8.513655250809794 3.999567219710071
Co 4.406788022748587 6.2123428614255545 9.12982214435656
Co 8.962600100680666 7.333280362517087 2.987952219629851
Co 5.671941678951361 4.931277029075492 7.312672784768756
Co 7.338472684453505 6.002183464359163 4.075006349374632
Co 5.556837278276358 6.952836309069001 5.9565516494209385
Co 3.8926596186196205 3.9924564757362435 8.754920860363377
Co 3.719175782193956 7.776570979405818 7.595531790017824
Co 3.3958242736640654 5.588424554804302 6.830478886600803
Co 6.796786329367232 3.1246743709253617 5.994671140468751
Co 4.163991628294206 8.730680063884517 5.443250792596326
Co 6.847754029933965 3.620295614070034 3.667751326850673
Co 5.135657526858803 7.15986009782624 3.662693625609713
Co 4.345778588756429 3.2550137759646516 6.547358010779742
Co 5.061198587753075 9.517254277497864 3.4525665607985383
Co 5.175720050817504 4.837840244669054 4.79948257460086
Co 3.6186069767131515 1.6296159683135796 8.02007033854779
Co 5.350463155794249 1.2123355749816571 6.43080210668961
Co 2.1549127664701033 3.461410266383644 7.217739137002406
Co 6.785287119865177 7.248827720038426 2.0077666510909733
Co 5.752130407228281 5.209659041542106 2.379271937268891
Co 2.177755469075778 7.56866267834107 5.826707753214032
Co 1.3619649020561262 5.296289108327972 5.844301416357696
Co 3.091935611188874 6.049886110874823 4.384809500701828
Co 4.865418894669592 2.4370086803463935 4.347071526748281
Co 3.007178545531784 8.214638503906102 3.488934829215976
Co 5.392081661704664 2.847706314568064 2.0928213910655757
Co 2.766624067898332 3.715215716597544 4.936452309491106
Co 3.035107196852024 1.4999166246434925 5.738171545986432
Co 4.727382583263287 8.216106271259177 1.5581341436637155
Co 3.5977563744928966 6.286695008789082 2.0957219868962147
Co 3.735162125036486 4.119908535718831 2.9399915246153423
