50
Energy = -294.53066567 eV
Co 3.9715974103741076 3.736996328199043 9.318824334145265
Co 4.256269481720635 6.183467322257175 0.2692458050964297
Co 7.85151274260793 1.7231371816641212 0.8541296242674592
Co 6.880289955033657 3.9575403178884945 0.9073822251772437
Co 5.294385369455102 2.112469898033934 0.5134183891698547
Co 0.6790710757663045 3.4801386673899155 1.8403266549702637
Co 2.304326601993796 4.731941694313651 0.680463967743278
Co 4.597135987182526 7.875720619344526 2.969885267823214
Co 8.126842311037889 0.9751543880205201 3.220457145475123
Co 2.9659781271770496 2.5472504843032127 1.3370329495584579
Co 0.8464884295773438 5.830654277157063 2.8681561690195356
Co 5.917065247901816 6.271372476236587 1.8853306237334215
Co 4.6187387279696 4.278029708056945 1.5411348057161283
Co 8.176829933095778 5.774284232688566 2.6445536112998482
Co 6.354042517530919 0.0535481223796482 1.8524882669842178
Co 8.437119518285968 3.3813400018506408 2.7062280167382053
Co 2.8860952094407177 6.607742094430994 2.017236817715957
Co 6.4142149821885095 2.2282543375544557 2.495219277090451
Co 0.2815586422898796 3.8815845172841357 4.108287264887474
Co 2.0509855536526302 2.1464919891683683 3.577793238033472
Co 2.5601230375531703 4.264264083333873 2.944282398626634
Co 4.22230508861977 0.8657349044170577 2.450805992972608
Co 6.423099605291797 4.461336429918973 3.1955197478154265
Co 2.52016891548613 7.338522314199946 4.274052589430033
Co 4.250400399419653 5.677478966146705 3.741633137853295
Co 4.488863319630976 2.8740172432652265 3.522470380749303
Co 5.744800635319808 0.8152326792784187 4.2448235287761795
Co 4.800058489127093 7.917859337785569 5.243026611034652
Co 0.05303611027880787 6.615338713082882 4.978999234718732
Co 7.253083716601497 2.649290718446937 4.754918171066409
Co 6.432543360798198 6.614256484261544 4.2736097540543305
Co 1.871832469882233 5.262831828405733 4.969498835297483
Co 3.4858619473852834 1.1826483974441238 5.093022040233586
Co 7.9195935569744735 4.937997709279811 4.966018775745198
Co 5.619828920276066 4.477030225209212 5.348392429538491
Co 3.4214061090510266 3.5492856346762096 5.333835945341141
Co 1.3018944413948368 2.738126694332984 5.932071644408459
Co 3.903171889481047 6.110439943420151 6.099051798924739
Co 5.335719292151065 2.2556783943080836 6.1151778582596075
Co 0.24315726621340147 4.863652572020863 6.67502766525719
Co 1.6907028861661102 6.729344198971846 6.789874294837816
Co 7.107980472836282 3.7756619469963613 6.94337234792646
Co 2.4624800399299467 4.52210070570905 7.232514287011752
Co 6.1231829528531065 6.1449589001777545 6.7941608662465685
Co 3.221006863385903 2.2708501490662307 7.3008351361003525
Co 4.842488021522218 4.154232083846372 7.588201783648383
Co 1.0680984156349225 3.1227813333987497 8.320044774652713
Co 3.7401464165270615 6.069161372310971 8.407174831450634
Co 1.2954954417719735 5.46929225041496 8.904112023731082
Co 3.1412048762729428 3.947757909770745 9.318824334145264
