5
Energy = -21.0654897 eV
Co 8.317352637397024 5.762837773699336 6.839177948185628
Co 8.317352637397024 7.915518122671917 6.839177948185628
Co 6.307316406723624 8.474250178288802 6.839177948185628
Co 4.946551653768279 6.839177948185628 6.839177948185628
Co 6.307316406723624 5.204105718082455 6.839177948185628
