55
Energy = -321.7141852 eV
Co 6.503690214050189 6.065056358775491 2.160483437356813
Co 7.9577156663383875 7.802991144613223 2.6359157874955037
Co 7.5867663814143445 10.011469519842304 3.6854880251239135
Co 5.459101019128311 10.136178980405042 4.444540933014291
Co 9.958850784247407 10.663873510180462 4.40313171872639
Co 5.881836923678484 7.6809663268153185 3.677915331796796
Co 5.777611432004285 5.242651127600665 4.077073765367811
Co 10.498967699863277 6.671869181660266 4.145140034074447
Co 9.262476018334171 8.541969085771303 4.33848657188349
Co 9.730614161604727 4.94495936573809 5.55828583356046
Co 7.717069511117517 4.021026891566739 4.563795026149742
Co 5.776096678734265 10.129773870860987 6.727542684046932
Co 4.5698027572777695 8.222754879771676 5.566481751903729
Co 7.094351032766358 8.525276437994751 5.522007551668945
Co 11.311192258227727 8.873096756772927 5.26222266046745
Co 8.290412901563855 10.51062334683895 5.98449111157043
Co 6.21422875098655 6.419123660745842 5.923882073645746
Co 8.054407208360871 6.301286038030986 4.430904699394603
Co 11.321357464552024 6.690063162761552 6.167988478814338
Co 7.808585723847097 4.6216798494922795 6.800789489187403
Co 4.038072621192591 5.702076013716746 5.892365583455646
Co 2.8908944703664297 7.613823928833109 7.149593632596628
Co 6.597581837299355 11.848119367760773 5.410307436395577
Co 5.770534429221359 3.912769272979219 6.021575734764998
Co 9.373445150480473 7.999484796172539 6.624721103732959
Co 3.743653273371515 9.64251158726537 7.636245182989357
Co 10.402189112448621 10.282297977579306 6.752157958662048
Co 5.429930935336152 5.391378195676941 7.84775820945229
Co 9.878060720530268 3.7580324421281106 7.559865959431235
Co 3.91467294725238 3.657450750409684 7.440652283532181
Co 9.864999800772571 5.993535962436458 7.835080637027822
Co 3.2389137256292764 5.73073332029099 8.264674304885334
Co 3.9539656414287436 7.7241792727904715 9.333182295577412
Co 6.437151565438291 3.4785027489015996 8.615401719416205
Co 5.4202018512290575 7.894614527706854 7.674363205921106
Co 7.249658511917549 11.435596795177485 7.9519867383893015
Co 7.679212870094842 9.113326237693029 7.871878597675519
Co 5.651223617120199 9.89871927632892 9.17237802635152
Co 6.991759223559735 3.902706525737198 10.922195924058352
Co 8.366981639280269 4.64532929497648 9.203165934637681
Co 4.46884477029682 4.108710336821905 9.676862390968466
Co 7.46017204777761 6.638109440374521 7.928118591108063
Co 10.144970465533259 9.362886150080065 8.835950187231996
Co 8.902706559908811 7.598236027407882 9.412331059935738
Co 10.376951695390321 5.935045495087796 10.134375315984634
Co 9.471721143180067 11.496813327761835 8.539352896296732
Co 6.620940502376922 7.951175849027113 9.871119418507464
Co 5.976068579254397 5.779405541119606 10.069832624530378
Co 6.305162063962902 9.561867748688863 11.467896825592462
Co 10.530505320345814 8.216009835011453 10.853408181591135
Co 8.091797270541592 10.046300973069147 9.939260046178763
Co 9.33982313783944 4.119481072800815 11.201660269400373
Co 6.247636575980013 7.128687523043208 12.008059222637375
Co 8.15815253197891 6.063455358752524 11.205831394711858
Co 8.305417957952802 8.36104668454007 11.668933295507825
