54
Energy = -273.04978838 eV
Co 6.038891600916365 1.9204969343383496 9.337029750454995
Co 6.013948137048662 11.649081062289447 5.8411830494484
Co 9.223762180867023 13.077119292277866 6.890567244593899
Co 9.161402309516381 8.172433363008105 6.1698977137924755
Co 5.715183940904875 2.8829420293923422 7.1745818035639575
Co 7.872102141728956 6.71034411516141 2.607578159449205
Co 11.620262689660473 7.466396159692184 3.3793716028576903
Co 6.5867354693556 5.154258315889654 1.7638537218016204
Co 7.250655071943132 1.1554407850854884 7.405975030462823
Co 3.0865638175416614 9.13936855731572 7.534009960795105
Co 1.7779028850140917 2.8401308368491343 4.368368207942445
Co 10.019777842946212 6.566821900903851 2.091247010270198
Co 5.692416595656415 2.5077249862090794 4.913491678621003
Co 9.4180270223421 7.888496109273123 3.946985004333053
Co 4.415950667997513 6.018896787499825 9.385678785217966
Co 3.9258933217119076 2.098080781759293 8.174318970769834
Co 4.244770309983157 3.664796990887263 9.999526621366252
Co 3.563184103389497 8.219772921744022 1.099698347278686
Co 10.780367277199604 5.787485785901105 8.765284180917913
Co 4.938065210685881 7.40863289730016 5.591986030321673
Co 2.2280955784387806 6.634765588821954 2.0837956167856486
Co 8.99179162123999 7.320369360783161 8.336820765088085
Co 4.05255990374646 1.47039364542515 10.464504402160982
Co 1.1786556990358972 8.338255161508343 6.312286540818299
Co 3.931021760551048 4.395289016742633 7.722694520683412
Co 3.070663335793464 8.925090511008904 5.295721576093609
Co 5.881233639456697 5.857692708401588 3.7682233758853902
Co 4.320441863832722 13.05322576323308 5.531460238271398
Co 7.20769946601843 7.42301639596086 4.84329086475594
Co 8.583688738937672 5.169818952549986 9.056437155145847
Co 3.6980060461735214 3.7358270789163472 3.7024815956144757
Co 3.504243685391764 5.9808754137180795 4.196110888943957
Co 4.81777523614342 7.85694388022807 8.091623504473487
Co 7.982037845526355 3.061258447324234 8.635348414201866
Co 6.1818128914270565 4.451685268423179 9.060940949768066
Co 6.8126391510492335 6.734296756407121 9.188495744786952
Co 3.8937570326975592 8.099075723360093 3.3342395035000685
Co 1.506993478384518 5.0512988317395235 3.6963498449515537
Co 5.180881832438172 9.755733687008846 4.467846790907478
Co 1.6568707114922399 7.429871750689116 4.1585492319617146
Co 5.786897512337126 5.90581575008494 7.220006036438668
Co 5.106963324778896 4.618328661344687 5.469853447467821
Co 2.5787408222005443 9.40497158672454 13.193717301081792
Co 11.081008875134172 7.586065039275623 7.342293437225587
Co 7.406755087220526 9.625756537775851 5.296563943575307
Co 10.173799041811334 3.407169257942019 9.043812632175388
Co 5.354743999069791 9.68560319163975 6.796916318446367
Co 9.388767727732867 1.308289145611285 8.279272145142453
Co 3.572974318510729 2.7232909857901193 5.8381414528620486
Co 7.012975224449165 8.033242521731452 7.140262555290103
Co 4.464818295242253 6.178591030766436 1.9610753526158529
Co 7.311258992847422 13.053225763233078 6.031256198430379
Co 11.254822570467564 8.596744661286719 5.2936506381088
Co 3.6537574888291044 11.02404499069632 6.000438817796012
