51
Energy = -301.83177667 eV
Co 3.8421740979018 4.246741560738218 0.2919626356356776
Co 6.247204387885355 3.3764500580331966 1.413580259521629
Co 5.8602300625379895 5.778992471083151 0.8796254005837009
Co 2.021712506060128 2.7259250259182695 1.0354134567102582
Co 8.022952245854746 4.800042141355904 1.6756504134975108
Co 2.013401804965081 4.88189987658193 1.8519666014084213
Co 1.4274256975867028 7.112704422219485 2.466380578492431
Co 4.116164131420744 2.2097081648608055 1.777583209774612
Co 4.45275370631381 4.624998920488353 2.354080625131484
Co 3.560921049740477 6.610335175596811 1.2783636037082502
Co 6.258147703721596 1.1521714877282985 2.588850293872526
Co 5.399024686989818 8.147349292091691 1.1952378005107542
Co 7.741050633756715 2.9486413310649375 3.6739163404498942
Co 2.858545365548672 3.431341448357341 3.594717033638092
Co 3.0316744165176623 6.080654415603555 3.725610727992714
Co 7.384309039255007 7.115334310474085 2.1915396920937793
Co 8.927756467578842 6.0458053052078125 3.529657216392458
Co 5.413440875199991 2.9553254874938584 3.576358090182028
Co 0.6230782188057952 3.1460508913108782 2.9320921846239725
Co 0.9095363647102367 5.3562364181248645 4.134538003885819
Co 5.233237041350777 6.7996833149954945 3.011937442241471
Co 2.095977320999539 1.2807310936348075 2.9627284733191743
Co 6.758717735370435 5.087707533589864 3.5234512134498854
Co 3.411750699374647 8.305301950930815 3.1187571792751605
Co 4.230991284361684 0.8901715298287932 3.881667442589917
Co 5.817573059690087 8.974849511343054 3.3716893214628136
Co 2.297699238198922 8.974849511343052 4.872139664261232
Co 4.597205924830607 7.590908710327088 5.0897135555084025
Co 2.0227805827648093 1.900623141835546 5.4250164262894405
Co 4.666040611216707 5.0383224569385 4.84383146530169
Co 2.4806512917253554 4.276018890991498 5.75574968831079
Co 0.20452324811970082 1.216494671325368 4.2624300964380115
Co 8.254911944692974 2.616608186149016 6.064640012870652
Co 1.8518965703577956 7.4616874555117265 5.051596427702516
Co 0.2510789387369655 3.4396403224222243 5.23448585505475
Co 4.083069285707717 0.47792392031509184 6.252073258106289
Co 6.384397835559678 3.6887762405008004 5.590502386824151
Co 8.123741531966084 5.141751478791441 5.530860963090175
Co 7.012979463639243 7.222204938146929 4.557140016417089
Co 3.317382917301504 6.306356669865187 6.523074581288029
Co 6.325744129114964 1.3345626462406088 5.138632464325502
Co 6.086118710482666 6.053840707229604 6.390396279635016
Co 0.9395364727688353 5.746481252213166 6.488632988912982
Co 1.9074022366237509 0.5721657946891866 7.225104841573464
Co 4.270437691809317 2.6456421736939193 5.561225161937524
Co 1.1533356118864524 3.019225495285077 7.313195360018384
Co 7.1148025933560435 4.198116650063456 7.658541580303465
Co 5.7814014975338734 2.193125068470573 7.318824836984205
Co 2.501900397209301 4.693817636207046 8.150113278347341
Co 4.634787217737595 4.3497370755282265 7.264571863774269
Co 3.385215966109561 2.313157590068426 7.708944219228197
