5
Energy = -22.40940119
Co 7.555839517981743 9.124582763357843 7.571148784715699
Co 7.559914993979653 6.0059892752812924 7.563953850876865
Co 6.297922966777599 7.571386825126845 6.797105548473368
Co 8.882172596240606 7.571386825126843 6.830448211721057
Co 7.539271046439011 7.561774432525731 9.07246472563141
