55
Energy = -314.45196134 eV
Co 4.353869152878893 4.969785834610752 2.98906219615911
Co 9.73838093429273 8.37184600911989 3.4047117024794704
Co 8.009750647520995 6.211493099237892 3.548230900648242
Co 8.55328642004365 7.695246404639633 5.256497878159737
Co 8.038285518915927 13.264498202527058 4.534881197519247
Co 6.8184125594638285 8.517699087676396 4.165149904173418
Co 5.7846022427760655 4.394468729243963 4.578377003162986
Co 5.770674873790988 6.5727625703372 3.7640636801401657
Co 3.6875031849666744 5.963455933674648 4.912256079086956
Co 9.799614895513105 9.727540257530709 5.286598324749576
Co 10.93379255433697 7.332437980438077 5.040755405892096
Co 5.518014086220181 9.817564184334396 5.492777478587868
Co 8.469414084638792 11.49933223918991 5.93994032256556
Co 7.282841893933883 5.725468905261668 5.721970335311557
Co 6.28285453981818 12.014369557937332 5.108143855288206
Co 9.623667590958172 5.486678347773351 5.225547296291627
Co 3.5888539159771105 8.462615764251646 5.496327207994797
Co 5.3829086496244365 7.1570433541066905 5.940421454284235
Co 9.28599184434391 13.618554116174323 6.2829653429763965
Co 4.843407219095133 4.805233228077974 6.5949534598153665
Co 7.6284500765367715 9.426901914868823 6.4197868562254
Co 9.577259290884099 7.021446211043937 7.1411502879208895
Co 12.030458257994768 8.007219616568 6.779457036827913
Co 10.11767047730366 9.4099817394008 7.478204870672678
Co 7.895852301934858 12.807774448499883 7.864364482933372
Co 9.664554944664307 4.4404527343781295 7.27941892623614
Co 7.6313653161439845 5.337513789034291 7.884839668057959
Co 8.494899784857052 3.7339905247364533 9.394538214094869
Co 3.415321989022191 6.672952322580384 7.377572915311529
Co 11.499485097057539 5.829525420678682 7.361566114843889
Co 12.160800562048069 9.543014928021258 8.484838837345837
Co 3.6789565794474877 4.44085651868025 8.43447912071083
Co 4.764799234520337 8.74323046475592 7.550342595323652
Co 5.329235395031882 6.222222351142888 8.522816917952571
Co 5.995712001636338 3.995871951059085 8.7543922367158
Co 6.29393419018202 11.328988407600754 7.227414873287906
Co 8.578473532604608 10.697575995850904 8.46040568917491
Co 7.197297376413498 7.55781693843294 7.5380899597900815
Co 4.225471875623092 7.874056060840025 9.629220979564757
Co 6.576121336188439 9.679670910185067 8.651349853086503
Co 11.168474161209367 7.574567899986338 8.966835054934988
Co 9.64864242809707 5.747311563284006 9.224342593391736
Co 8.848451968002525 8.252319086241435 9.171106307726493
Co 7.194003028319303 5.368634291900699 10.265723136642936
Co 7.8759038934138115 9.69940753858505 10.655859411735932
Co 6.5620471247140655 7.720071453705722 9.819299625788203
Co 9.290328680191742 5.277699190182908 11.461123886204378
Co 5.521398544420474 9.66369612011483 10.635283412195383
Co 11.173822275350604 5.8788431555460114 12.5566094888533
Co 10.425170953120222 7.36645570044922 10.980009257780594
Co 5.720898999228526 6.456559567528962 11.470524801979114
Co 8.04913816819001 7.46348218471347 11.495265322497517
Co 9.567963396015868 9.041201421969685 12.161445063522216
Co 7.488921278640383 5.628603575480262 12.825818247580594
Co 9.444032810780824 6.9834343347071215 13.294317066700742
