51
Energy = -301.59127418 eV
Co 4.975815759826562 4.489377356704394 11.332864406193304
Co 4.007029188837058 5.882762631458112 9.80757987558657
Co 2.8911799363299684 7.524378149695204 8.505473666805601
Co 6.3476808851738316 5.899294675350253 10.037736636069893
Co 1.8592460866016713 9.269669982578696 7.392067966627678
Co 5.355103071486435 7.424562095435708 8.560533701428295
Co 4.197727503021287 9.179955695365848 7.527189235078093
Co 7.724593474161271 7.401445050820868 8.77014365593714
Co 4.044272838742483 3.567896358836262 9.380894877100559
Co 6.39186518688793 3.642966271157314 9.711189246655927
Co 6.637094263979668 9.17661101641613 7.714882527094574
Co 2.813113046782299 5.262294681859474 7.863614116410498
Co 1.7710813677537862 7.152825096418281 6.446326670895557
Co 5.30963576269896 4.994168026995756 8.007006461662984
Co 7.82369841118736 5.137077974900525 8.264769483470143
Co 3.1515398331143607 8.852083407439684 5.520427087598824
Co 4.0955400921021665 6.906081575413994 6.551542572789771
Co 9.671631197605818 6.480866358252378 7.816613093281063
Co 8.012966379623549 2.782120680878534 8.232830732231289
Co 6.5383678115388015 6.608839679929373 6.555263426620006
Co 3.692028767377992 3.3282854602237006 6.961662803304606
Co 5.665083684761741 8.785416936522898 5.680484815302507
Co 5.692136931640162 2.4937531026213042 7.8404372702421545
Co 2.6852966051817906 5.08858944579956 5.52895487918917
Co 8.455444553956696 8.164405048174244 6.65980715619447
Co 5.0090950609362555 4.72687385610955 5.572459086449559
Co 6.498858789555567 9.347452422101203 3.53255312681376
Co 9.934714732366036 7.431064089666377 4.927859269973021
Co 5.226671575656637 6.906676786065298 4.347467077115875
Co 9.539179855354828 4.047747182086899 7.016458996243735
Co 4.262506814304083 8.887063012749163 3.4872490293309086
Co 2.857505280990193 6.979534360859717 4.170032020547548
Co 7.274265619663284 1.3578587650974552 6.54590736546084
Co 8.694980991943511 5.848756244717615 5.88768487996345
Co 7.1666093179561505 3.7999718793499535 6.297419089116099
Co 3.396654399441176 3.0428965530238927 4.558748494572815
Co 5.355215173423338 2.2926635046303305 5.569688794569872
Co 7.644091129571953 7.6834280860015935 4.581487633290649
Co 6.904917637459265 5.243611768379991 4.213201202036215
Co 6.798189421565005 7.234867489751972 2.4474815015919518
Co 4.315924536956717 6.992679959181172 2.113683665250677
Co 5.48081804957564 8.86797398787861 1.4307098378978607
Co 5.5888066200795645 3.34452964551818 3.4804349841469198
Co 9.020273049668107 3.984546289151988 4.620721083853444
Co 3.928617083250793 5.023377672009038 3.4435182195754863
Co 7.44487774284444 2.363533335992396 4.4007676653946985
Co 8.877508001504157 6.0396915491989125 3.296842659987102
Co 7.955229228676378 5.73559010197382 1.1195248413831773
Co 7.787662926595896 3.913269328400787 2.521207199393841
Co 5.836862843933018 5.130549879361475 1.9668558964488225
Co 5.917963608833083 6.819091511369025 0.33112868628730135
