54
Energy = -275.37631186 eV
Co 6.728887361142425 4.815648098397537 5.889703423215853
Co 6.684103138696297 5.239176039323041 3.681535669496526
Co 5.978206829343889 7.965730094861185 4.375242488845222
Co 8.854043378420132 5.494870388075778 2.614057790084682
Co 4.665763911004557 9.519071504746003 5.4600480529292374
Co 2.8392415075470727 2.7953790968932726 9.54395355628706
Co 9.544967491404085 9.751208375059148 8.91992053349656
Co 5.453034389293201 5.334603643241584 10.175375851607658
Co 10.06846649432266 6.176134181271197 10.468810239052171
Co 3.6951424524994945 2.101594884524704 5.293017215096839
Co 6.3944919083022205 11.399616153394874 6.043274750930231
Co 7.905200194213956 5.533497371995777 9.986673715517119
Co 5.020166786398792 9.215147331610872 9.015620323619686
Co 5.652739604743389 7.343628104884086 6.677723590817332
Co 9.925075756597305 5.320530114760927 8.464948421148783
Co 5.745235865423927 3.091831773318549 4.70691745066018
Co 8.858589321919384 8.52525435313857 6.970150275539985
Co 3.4765621568282112 8.46872664488468 7.110866229820232
Co 7.854459803461304 6.224714972017701 7.5886068760984084
Co 4.69881033962031 3.845992806040789 6.638708518664855
Co 0.006307189662593814 8.121698510430555 4.473104292474611
Co 11.206927912273501 4.707494310745755 6.487865215875499
Co 7.366895514084847 9.486867687907138 8.777582830312172
Co 7.989667100339695 2.268626684567817 5.887737250040065
Co 10.015273577467653 6.647922867246408 6.526096826199071
Co 5.112015293399651 11.587840992471804 4.899185775455596
Co 8.947413436920955 7.6060363211437405 9.177183001256585
Co 3.6213598820432735 4.679540229622592 8.857841731003205
Co 6.755125499047599 5.736698695055713 1.461925228213018
Co 2.8531735853307514 9.272534908033375 9.093765780383716
Co 7.098149972444784 9.24375074564807 5.831956309465142
Co 1.7337921500913303 6.9003523594896 5.841057656567151
Co 5.717828234500293 5.450060039859609 7.984723403963107
Co 7.969352532535451 3.344218237887434 3.8119333943080695
Co 3.5569964377316556 6.091338242588924 7.048782249329096
Co 9.303464767023039 7.562180656493928 1.7525781780148175
Co 7.43968536580386 7.413985685842886 2.799463821793921
Co 7.436622803780578 3.973525303791129 8.407673592660556
Co 5.01481040499025 6.621746686195356 2.7858198687612603
Co 7.742795237031958 6.929381129322523 5.403916534006738
Co 3.8436473499411425 7.049139627280239 4.890853388996084
Co 2.0544857688700375 8.254505111830888 4.019489325257452
Co 4.181943589463666 7.144717295347335 9.11889136631871
Co 8.269338208595736 10.880929217346011 7.226244491897098
Co 2.6743159181149507 4.472118725380701 5.69390260924221
Co 9.55328475785521 7.393572972043253 4.066795811489692
Co 4.247989449556465 11.587840992471804 5.746386177488085
Co 8.954393381971775 4.073798977520244 6.777333432739207
Co 9.293780451062222 5.115077519478205 4.746550821075676
Co 10.069023158817293 2.9097730717303154 5.1129426858031515
Co 4.106988598255973 9.007389384502915 3.4320296012445617
Co 2.8420835012761185 2.8220307465056615 7.356966717678366
Co 6.557920427248312 7.310940842875819 9.327370939524826
Co 5.686785698154464 1.0914883723033946 5.776220251289128
