51
Energy = -301.40118944 eV
Co 2.9885909896032565 9.292587724241912 4.696705531674877
Co 2.808418387453572 7.6601441353373145 7.8098758473448955
Co 5.301986339321929 2.497356874356957 8.485294486124818
Co 4.430847236982903 2.734040683754967 4.66454363850647
Co 5.057299962896733 9.773084731383678 5.714625280377843
Co 8.528492232982575 7.204118040948434 5.75268130219743
Co 8.678538095433089 4.8286719263328965 6.7243338772023
Co 4.352314089844242 5.271264644792395 4.834421439463908
Co 8.274226266691727 7.20847276164258 3.2599733051029
Co 6.4784469577626895 5.925513186589785 5.804292442098353
Co 6.408532572690725 5.924919087399042 9.858275692154827
Co 4.683947751228717 7.058219173335814 1.549159692549669
Co 2.9182248004639253 3.477034986567882 8.075107663152043
Co 7.089756852656931 6.703865072205481 0.9518212584926382
Co 7.056442998328948 3.4876719416992987 5.760228105739116
Co 6.384954611024428 1.6818891799827533 3.900072981970931
Co 8.297988849381204 5.288238210890702 4.488946508278796
Co 5.173072639591873 6.453140707917358 7.754543314454382
Co 4.43720415074703 7.54961451163987 5.7138266415874535
Co 3.3595868550785988 7.106249762827098 3.5326534291694416
Co 5.778014533230785 4.803769582061821 1.3287948177763456
Co 2.56296360173673 3.215242798114102 3.3647574193535297
Co 7.575638384143157 2.2837476360540667 7.6977604857002015
Co 6.16416688503625 4.141320354071081 3.6280150806726663
Co 4.182575590024706 7.1328734026755285 9.682022490051528
Co 8.064808440388994 1.3781822087154354 5.459808795615373
Co 8.31148107174936 0.9487382131208798 3.0145563947639733
Co 5.843117281864951 1.5929164698659843 6.318241914884506
Co 5.994328166993567 6.475696762912011 3.292034945073754
Co 7.081779339937042 2.755762928675874 1.8700275593524687
Co 2.450154893330007 5.679097113541224 9.058591439670845
Co 2.7735886992007948 9.780805264237348 6.854505064937889
Co 3.8425894834851206 4.963214400150373 2.6062541753267463
Co 6.754156469544126 8.308336336359567 4.634072093316455
Co 6.581781567197045 8.216927627435343 6.884471115459345
Co 7.928816348996 4.971982503486859 2.2189955988443155
Co 4.843519195599991 8.809957011637879 3.4370164806938615
Co 2.935407951814206 5.588396783178729 6.784512033682374
Co 4.803237201693454 3.9589525878833154 6.75716526129002
Co 8.408315131838895 3.0718372213927476 3.7867341742793705
Co 4.659281009320109 8.955814968371413 7.9261490253613305
Co 4.767237736549426 2.7664775529584964 2.331856465015305
Co 2.061421106941797 5.375173903880641 4.352387628751044
Co 4.531224767568473 4.7030486929031445 9.17963423157321
Co 2.5499834157098857 3.5504987921332813 5.700926267562088
Co 2.057595932160973 7.402103108719615 5.572601257265391
Co 6.362661818841114 8.10484017075933 9.28064545540664
Co 7.69422176465085 6.518369687990412 7.955438434850375
Co 6.6541851924719415 8.533948347690881 2.1294147557711223
Co 3.5775429263103207 1.7213243595219427 6.736148167174283
Co 6.711698393706334 4.3809128078549 8.04144547508119
