52
Energy = -411.49834087 eV
Co 1.2153637805816329 4.786452817535549 2.1935105898650913
Co 3.007255317534179 5.489122525083383 4.0223040324207595
Co 6.325878426682421 8.118684713793835 3.127347442087586
Co 6.235267788761341 1.8008380050871113 3.569399951818636
Co 0.6705771521437275 3.7364979513133516 6.768720094432036
Co 2.2534400909664316 2.692326227086523 1.1348889279328447
Co 4.561303710031734 3.6227332203469667 4.496883025653942
Co 8.653035724266005 5.156627168686314 5.365539262768821
Co 4.737406808797174 3.3620307154234457 0.3390815231538783
Co 2.9261210872790526 6.826832654151334 7.839119291881815
Co 7.68280834816486 3.2734877706771544 6.932118243325625
Co 5.204481806625187 7.4110742502003575 6.93792878872141
Co 0.7153876126676869 4.341414315557839 4.501315718962741
Co 3.0658196949986616 7.550719015723914 5.499797119761573
Co 1.5833625223285213 5.690585195425599 6.13811257405708
Co 2.3452665031220494 4.693052734498879 0.04564664303078772
Co 1.0140906635340696 1.9614006741352412 4.993414015527603
Co 3.847630610108444 1.7051194016195625 7.225292366049251
Co 6.166947193802362 1.871332168407656 8.276162070215255
Co 5.134640187036367 3.6807765321792143 6.981142436107321
Co 2.704214480909366 3.3263864151389333 5.943647695405683
Co 2.252271412508635 0.8958178211374591 2.9127025655112058
Co 3.7346335943469713 4.490581830023335 2.0366232698637576
Co 4.783057536199141 5.642239866679312 8.562658125704326
Co 7.483058711859719 5.783290845655991 3.3248890995855596
Co 2.505988590324646 3.1345080652969664 3.533267498699024
Co 3.7735778223538055 1.3987295994741653 4.742578675380175
Co 5.875447343918866 4.045834169904728 2.602720214023899
Co 4.313333202934083 2.047173034239897 2.316896882821787
Co 6.645296493598843 4.79138214604796 0.5683792759692977
Co 6.809265371726332 3.9952081549727896 4.864564730500353
Co 6.672001979025641 4.2633908949010095 8.86485826645723
Co 6.602908640963456 5.571070055019482 6.620890540588014
Co 4.025558833468366 5.445882213398842 6.21222626158114
Co 0.4098647134624259 2.4703483512890627 2.7367130925890013
Co 5.408813707424818 6.265898091438391 2.0101240450482294
Co 6.875319295678142 6.634734917236139 8.63797071412669
Co 4.511020425432747 3.2799946192866605 9.214173114107385
Co 5.394798101826415 6.174986198343562 4.502992194499152
Co 8.163697957271271 3.4087386459276896 2.917331302458141
Co 4.405305899444979 8.029756881522315 1.0729751744876088
Co 8.158818719228885 2.141458224615249 4.980004096426077
Co 6.65406554612418 2.329131476392122 1.2394415589556809
Co 2.669496107338325 6.6130007420956565 1.6761621006311505
Co 3.818046662558518 7.751716101276558 3.3277401805401796
Co 4.383785178486683 5.7724644610383695 9.214173114107387
Co 1.286265451303133 6.790068060734938 3.8222632817778166
Co 5.894579103674744 1.7621226617545238 5.847833175228892
Co 7.397754365330868 7.232892522453541 5.238323537588007
Co 2.746122412081432 4.346738436423402 8.02386414224346
Co 5.174330368560665 8.641886492724554 5.066676099516991
Co 8.630033551131179 5.260276556552356 7.715527567027405
