54
Energy = -321.35804543 eV
Co 6.350978838836056 4.693874699298025 5.117822642048859
Co 4.220448537280636 6.435870562593576 2.211036230414662
Co 6.308527340270046 5.585146807589356 2.8671354502949717
Co 2.0495422658834834 7.092857520602215 1.730749580012464
Co 4.530197073214361 4.417812417988752 6.5928020885521335
Co 2.4843653605693965 6.294758723943048 3.932704321122728
Co 6.290012355417919 3.2167236242378783 3.3817193507841283
Co 5.355259822350748 2.473794610031861 5.542423550740401
Co 6.992635876364131 3.764746148486723 1.25340976719099
Co 2.440735056579598 5.28067786514041 6.176367442610548
Co 4.422658536620925 1.7790031474001926 3.4902576483712235
Co 2.426866987930244 4.769720068631411 2.127138072005647
Co 6.270817124748337 1.54973033062946 1.6908746778304156
Co 2.7702164325862735 3.272039809062402 7.6449471014822326
Co 0.9671992311660802 5.288026177009788 0.49981125442839647
Co 3.4966647346555826 5.257186311689583 0.11634813544323068
Co 4.0226150560752485 1.5299622440483707 1.1996000953442498
Co 1.4857333688807122 4.195875593804476 4.193198814793988
Co 6.767686449829595 0.987964732097796 4.018131032689181
Co 6.6452654499855015 1.073489795032972 6.686838892155938
Co 5.1623916080250645 3.072464126715374 8.97818150319717
Co 0.3232470596560505 5.8524574979413035 2.827534668215029
Co 5.815959389766378 7.867934484045752 3.27546214222179
Co 4.55849613962752 3.8469565386794344 1.79601415091879
Co 5.7401748820059195 5.563637488414324 0.5724117844859642
Co 8.336957602124953 2.368913119644716 2.763206428590941
Co 2.5708850882075445 3.181833636077198 0.4433086249419756
Co 0.3794346409894953 3.5705516075919768 2.170073786876598
Co 2.3261753673259724 2.390192991029415 2.768442960834054
Co 7.104907101199451 6.864031666694144 4.888311706083261
Co 4.6540943250083275 6.40919942400721 4.8154366176022565
Co 1.0689645792841562 8.032758788239677 3.7508080540649105
Co 4.947458548894187 0.11670744707143729 5.153919066980884
Co 5.344233065263099 8.266552430484166 5.86814149161011
Co 2.6652703444098984 0.6045295654613617 4.510894108976941
Co 5.045999358241771 8.961189031052948 2.7839209961527325
Co 0.6651498846243614 2.0550233284023345 4.476102235068216
Co 8.239833349607856 4.57641500230768 3.6503543748158425
Co 0.47840087609074927 6.1222354666114605 5.186696357701707
Co 4.054027778292517 4.270244238162905 4.052332664647229
Co 2.8933549780107812 2.735213697361586 5.393630325642258
Co 8.445855783274732 4.17129204460249 4.2891218669149875
Co 3.6004305040569773 8.32903965795927 3.7435486985264133
Co 8.445855783274732 5.107787043364765 5.966146872592975
Co 3.6952742748975487 1.0141920110209512 6.839220243097505
Co 6.4510674103284575 6.093906219033384 7.0302456138608616
Co 1.4165302225306295 1.342556568737277 6.623910039229037
Co 2.735958040614625 7.692436463191328 5.768642600860966
Co 7.818248137147236 2.759167418499969 5.222673953281383
Co 5.257271113473921 4.773143474957082 8.673387135267559
Co 0.72514075893103 3.599363270600259 6.290532154863424
Co 4.221465455094288 6.644155126743546 7.218591361640362
Co 5.040477963860343 2.496403606135419 7.942032863819166
Co 6.879609486569803 3.6952811297938646 7.200473198055374
