54
Energy = -321.87669568 eV
Co 9.930471384117412 5.6957675738437805 7.580319827261378
Co 8.611313046446485 7.379069750262386 6.381975046192192
Co 8.3620230691106 7.008475109658011 11.224516882664046
Co 3.5650316791472805 7.940451276401547 5.786738705323426
Co 9.508245535145575 8.823380904109838 10.270047614258544
Co 9.742685502662457 5.494009156171782 9.988852076793535
Co 7.235655002017672 8.957535624972085 7.674220355161801
Co 7.365728568724222 5.267270646547407 9.911054544702555
Co 5.882711525549135 10.432818040157446 9.042327201862406
Co 11.078416507398584 7.521067147219724 6.575047174633562
Co 4.091442025418302 6.1836340625843285 9.597589131272908
Co 5.496598227210324 4.574908267056527 8.493777377371385
Co 4.835222185235196 8.839152319616556 7.567925101660881
Co 7.532403049360469 8.123054895028348 4.388133663349368
Co 10.922647753188489 9.8219248265694 6.000094120483298
Co 4.54915703845619 6.12423559344717 4.678854660699551
Co 7.567394656795762 5.5673160863413935 4.937609786665649
Co 5.152823733938407 8.311822143860189 4.103199325699045
Co 8.534642618036115 7.192887519251147 8.881076642591138
Co 9.927853360224066 8.1452583147566 4.588206771585922
Co 6.336415371685609 6.540652937118772 3.1150857735185693
Co 6.104013842861564 7.263018755578754 6.115474806447109
Co 4.635172226390699 8.463624525145045 9.904460563226575
Co 2.887470411395778 7.815431299429783 8.32414677704107
Co 9.016892853123203 3.9648985981165326 6.266819562920267
Co 9.678928114497685 9.111860650977428 7.866536404033078
Co 10.935664735065078 7.390172608948628 9.05001754615515
Co 8.292267093672264 10.552846482053218 9.158645457032327
Co 4.25337000487927 6.212372301658947 7.225773281700913
Co 9.535700124934614 11.340864984101549 7.334335770523639
Co 3.5197935913504903 10.309431650174226 9.007961969071093
Co 8.559689779878243 9.77268474892541 5.833338480441962
Co 11.988593743686998 9.137585004000757 7.965199402136091
Co 7.059303981869192 8.67486151990157 10.098967722175065
Co 3.929251763344031 10.159977317837962 5.030817679075779
Co 8.78989409766488 6.537033799125759 3.1956162978575464
Co 5.945419686535967 6.800190599208875 11.071469425374193
Co 7.18227099933981 11.25402956988175 7.1676544589017945
Co 8.817345326733355 3.798018389627396 8.65376283616485
Co 5.659784591096501 4.637742968705796 6.0792538294823
Co 10.023930952196205 5.865904908839229 5.161962072805363
Co 6.143822305545644 9.709318958248891 5.662311217935929
Co 4.802771786095383 11.127118168585579 7.037415487326473
Co 6.069904966660761 6.97560722186178 8.642316173729885
Co 7.504921578186556 5.419056306140937 7.4155733599313285
Co 9.124291776857765 4.130882415245875 3.833635759799997
Co 5.336938125683379 4.5867258674319356 10.85169803422174
Co 5.751577207455598 4.356866433902166 3.6725628020406806
Co 7.271624557930623 3.2011340529912133 4.942626077697754
Co 6.846165436169509 3.032609641532816 9.651500069611703
Co 6.993263830407362 3.114870836082201 7.3033261288835
Co 7.555941256113763 4.669380145284643 2.3255350502183205
Co 2.70085248837131 9.78937124385773 6.941714108428847
Co 10.715911264504733 7.102465234426613 11.315235735141572
