55
Energy = -322.99728045 eV
Co 8.47474737190325 7.7557669251424155 3.3668006687188607
Co 9.1013494057081 9.567584176443471 4.737687028234258
Co 9.764509957591908 5.9550543193301975 3.0291943506470647
Co 7.429399942722276 11.006845106871175 3.8732621620534706
Co 6.877793842686317 8.958703604129386 4.806061011350433
Co 3.9951767683293613 6.252483093197081 4.282525042368088
Co 10.57981645507297 7.531335905949681 4.647227921274655
Co 7.787492171917062 5.415371763422098 4.154421155506734
Co 6.139829154669612 6.981777667726924 3.9571658316599705
Co 10.06931741765179 8.930836858381562 6.699933235222353
Co 4.0375303771712145 6.127086775470584 6.591620315932555
Co 7.497885524373518 11.158268232496617 6.0600921485492805
Co 7.651291232469855 3.3518160361563 5.151930502287769
Co 5.28026622558429 10.5209881014691 5.074703026817979
Co 8.526378460376531 7.2650821495421045 5.6497926879498825
Co 9.86591236844305 5.142071840105623 5.149953874423682
Co 3.1097022193466013 9.818828940653141 5.887364049400598
Co 4.653726895808879 8.219834523090624 5.4750214290362695
Co 2.4195393643234415 7.5662559154423334 5.576655403265164
Co 10.562427191254317 6.546793778415045 6.818502756131586
Co 9.521459856427958 3.378240688858046 6.6678017970886305
Co 12.181534006201856 8.148824774827307 6.774880016284457
Co 6.339327165504007 6.681378861945257 6.28801087721601
Co 5.666698981762046 4.774246395487507 5.144352859508322
Co 7.244757206743431 8.917959881418879 7.132379817396196
Co 7.95842032816546 5.082601304288776 6.601838511987293
Co 8.474034109090807 12.40770996723141 7.790561946391028
Co 4.26540993705663 5.778594937512848 8.887061897364092
Co 9.796748837027081 11.165210543569764 6.363443296972708
Co 5.391832683050373 7.733437042940088 8.066048621621716
Co 5.739845483415157 4.49342086669467 7.465292766759504
Co 3.166376559764348 8.12333058513394 7.706909234141657
Co 7.764007117008835 3.517967300057984 8.310502051715588
Co 9.610768080596575 5.081248355158901 8.307027933763957
Co 6.680731383193824 11.122871886220619 8.214222044206739
Co 11.809530430036878 6.404131982129238 8.708703822715192
Co 4.910752098552278 9.904072244646157 7.333208954495405
Co 8.835958325735668 7.546836278264817 8.256346905535029
Co 7.085141606509309 6.050654252033683 8.677609006012622
Co 6.0369535073717 4.269803801064255 9.871210095233558
Co 2.465077662610238 6.986609397904413 9.53931222778086
Co 10.727371962197735 4.5927328845989495 10.297738508015001
Co 6.928438798826225 8.571503168151438 9.60547389880316
Co 10.883748706707486 8.517141441475731 8.85193771025784
Co 8.877882470342165 10.173042699008008 8.392969248497911
Co 10.056466485527313 6.735954755267601 10.157782976425775
Co 7.539134050340907 10.658269209599267 10.294978281175338
Co 5.186649699650528 10.119566721496698 9.63579445207869
Co 8.308304267804205 4.694950370626503 10.299021828917649
Co 5.732922342109241 6.461743475627432 10.591581851295986
Co 4.307830907718347 8.103483549616817 10.074568589971648
Co 7.9117733392940925 6.973572993340792 11.035543425077254
Co 6.869909394420879 5.045628366662596 11.998787577941284
Co 9.168219427762589 8.933596907402961 10.376452042167273
Co 9.479803774762551 5.524789736995601 12.038643665048408
