52
Energy = -306.96114395 eV
Co 6.959642239742114 5.959794572683919 10.278577460030746
Co 6.607075930811118 6.707442902277661 2.306002988212788
Co 2.492726280566082 5.670608445615572 8.237737860139793
Co 2.0782476269453096 8.59878465378812 5.378067620781215
Co 9.651101619670294 6.290317946877803 7.256774357686036
Co 4.078575172549338 4.095195381047209 7.075906211511019
Co 4.9887085808281935 4.621947961341812 2.4647468428747783
Co 1.3443203697898005 4.045993870113672 4.001712080738005
Co 1.5975511046030801 6.3635773097850965 4.536108387961268
Co 7.646023623229117 1.9257392770255632 7.439305526243171
Co 5.493684123959901 5.732473929981236 5.893725602591329
Co 7.964255857641481 7.803694478580615 6.4068549328488285
Co 7.238799306046379 9.492903944326088 7.818804793861757
Co 3.2586585772805354 3.1375683049792067 3.047635823318715
Co 10.25156642771669 7.5466108926256 5.469662130032797
Co 5.217152157536358 8.66312583341977 2.814045647926636
Co 8.659500667243645 6.767713674963687 3.944977253376458
Co 6.05092041785145 7.814943436626223 9.167359214036912
Co 4.361928639784092 6.897987294263105 1.4854498545691783
Co 5.498956256746627 2.548613075640281 8.468371383251952
Co 8.917774170131585 3.9977710600605127 7.195505188427951
Co 6.581200339787861 9.719496381439855 5.547411652606225
Co 5.63617155343988 7.99933936493088 6.830046865562585
Co 6.606775894422281 7.6655078314188465 4.503606331532813
Co 8.747242296241744 9.207776977802885 4.785905122893248
Co 2.885408453365629 7.9344511754566565 3.2450525623275084
Co 5.242042222976224 4.684088454105189 9.401817553894274
Co 2.762542331669975 5.5386222976486525 2.583172183571909
Co 9.584068545428515 9.153821175713137 7.130345090717485
Co 9.002490830646952 5.433312275226296 9.290139679090505
Co 4.672747195705477 6.605138568051414 3.789305928280585
Co 3.3848609044521867 8.397132813565419 7.5324673052426805
Co 4.369130425341701 8.727377721604073 5.0299280455148825
Co 4.835630179555628 1.8683756047951379 6.437536928632065
Co 6.763859944069421 5.0871430054135125 3.867848632048936
Co 1.845224013938161 4.703249810718058 6.27414550418756
Co 5.234042815603273 3.269246299046851 4.561337356629472
Co 7.382562201144242 3.7983112702717405 8.952525869184036
Co 8.293428652574253 3.395397620542878 4.958712909797755
Co 6.4833453780900525 3.725067011995497 6.661285100375985
Co 3.500635574474749 4.795153202436121 4.647356093111365
Co 7.869591151408237 5.568730944916366 5.83387597641603
Co 3.371363175600345 6.7130125738656705 6.027304575340952
Co 9.991360877485292 5.129940813921075 5.0808081131838465
Co 6.790618691769552 1.6905626712885442 5.2275452801623405
Co 8.839233608854848 4.582213993501451 3.0392503064232077
Co 2.9044230567526306 2.7120812531417133 5.406345468042849
Co 4.576908475543133 6.366551367570755 8.094590088133183
Co 1.2256976859344149 7.039219789375037 6.885819787767638
Co 8.408968560716948 7.6600804393289925 8.766405956181394
Co 6.95398607607582 5.951687878581263 7.9366191722706585
Co 6.904882733674705 2.973521404105659 3.016017569314248
