50
Energy = -295.20922933 eV
Co 3.6763809409533295 4.030521028823538 0.5791929927298918
Co 4.589746727720269 1.7930984538609263 0.6582115555122114
Co 6.0331737294494605 3.699847682675544 0.7455045681234412
Co 5.066002096791743 5.5496611103227265 1.886525411290927
Co 7.374315005883303 5.842356298792733 1.720115385983717
Co 0.7541381575937419 3.314473812242632 2.224615814604924
Co 2.6235478871393103 2.162833963988591 1.8568329531200771
Co 3.4825282562686315 7.205447478903748 1.5236446967341177
Co 4.507643317314343 3.177231077720771 2.616195049391853
Co 2.616051608715751 5.068412982135233 2.3214862262662304
Co 8.38544880581494 3.5746975792695976 1.5922768570389638
Co 6.536214735967749 1.8662723065811535 2.1344680498080253
Co 5.692218488119834 7.802444861108869 2.4650812484364995
Co 1.7522109187243695 7.2139911222121516 3.1729895878652887
Co 0.12495990887479375 2.876721800301146 4.396531907430024
Co 6.6618262625537055 4.045705212885105 2.9656911432330317
Co 8.750309251535029 4.965792430021622 3.585353699931634
Co 2.377922634324291 3.4320832351612793 4.000572268273436
Co 4.3152655054213 0.9262430230733066 3.0636678130572927
Co 3.7043507035711722 8.934270421666406 3.2928665225488474
Co 0.4655207823634897 5.195416665143117 3.5511083246658006
Co 1.8912749187572717 1.1871292182544126 3.867417793382083
Co 4.05277167801699 6.710256379463698 3.7163228897915874
Co 6.0638745565500765 2.0769999338991867 4.397081984149091
Co 8.367708460863485 2.6580456628447418 3.911322765412597
Co 7.177225377565848 4.262267684167201 5.172351225739041
Co 1.7233850987483257 2.2654888897784287 6.124272400430193
Co 2.3257444738159334 5.655247174151287 4.814845818905711
Co 9.300796286405653 4.89728829937265 5.0121169720080685
Co 6.614708211112615 6.288231997954913 3.9680806453535786
Co 9.300796286405653 3.9697190497854424 5.858890374190528
Co 5.40813893536244 7.997010822559236 5.014878068306166
Co 4.720756733808422 4.59559620964388 4.455576976823812
Co 0.460282146064598 6.759693094317593 5.454100500771274
Co 2.6300297742335292 8.004186014507711 5.215636131691448
Co 8.355512884143632 6.161438713351927 5.700824992666015
Co 0.7191546453890175 4.410432094864938 6.096576678532339
Co 4.044333234166858 6.432735599501708 6.25152963591
Co 3.807269906940096 1.911963840113582 5.1125879585998835
Co 3.1874032977588294 4.106749749912961 6.267071901956366
Co 5.430930236169243 3.3896942766229987 6.393207147683728
Co 7.356111404088675 4.289239704465896 7.51104508990213
Co 7.566087919906478 2.233666879600704 6.255688638010715
Co 3.7691931820307225 2.3819808206967337 7.705881468145978
Co 2.025770809150931 6.022454958676762 7.182506887977542
Co 6.167652650848996 5.9762477059657995 6.41721052900987
Co 5.50398744637557 1.0853662132897024 6.582016433234313
Co 1.9036082559135987 3.811060757990194 8.131254054599294
Co 4.529094987152634 4.685980763965382 8.077753694400137
Co 6.038329873731073 2.5458982927986384 8.428611615781053
