55
Energy = -323.14883886 eV
Co 7.214799072126731 9.76572492218939 4.606289571114777
Co 5.155240346868063 8.595613500401226 3.827131394225466
Co 7.559621503885009 7.513938465990381 4.282051893804796
Co 7.999420123543979 5.113035405462351 4.146640667987393
Co 9.476826420025247 8.890109542361953 4.670042311594736
Co 5.420709502304414 6.267179159699005 4.274860589853587
Co 8.480102942229534 2.968881661947944 4.608650607502069
Co 11.114036855688477 10.230562344566648 6.116385177032853
Co 5.203167059671475 10.759349894279019 4.645424849410313
Co 3.874086985979308 4.703114243006169 4.872380428418979
Co 3.490044063014369 7.477534233311433 5.269704163767792
Co 6.123178474929296 3.986412125503132 5.231075108241692
Co 10.228099634222305 4.606807381387572 5.544981969343587
Co 7.778428402035612 8.253762966980755 6.603498245434114
Co 11.471959651874593 7.937955118070155 5.498729583149103
Co 4.0917215787897465 9.678215828521306 6.413743748874791
Co 8.179373225735178 3.9988496644365696 6.506562205314019
Co 7.078997530628551 6.039690520512146 6.073153222449121
Co 9.978154507661513 8.502685997604 7.1803300078108085
Co 9.404739117094682 6.674668923516552 5.363098879305671
Co 4.889584119128402 5.643511328266031 6.5963195207287315
Co 8.822586907648217 10.501454295682517 6.163122789596279
Co 5.666128962098068 8.019335580436742 5.940798822127665
Co 6.337304779591988 10.380756399139035 6.682242125792662
Co 6.171374267488921 4.077491839250441 7.773680946286102
Co 2.681889457760503 5.824292360208761 6.827764930709635
Co 12.235294202550907 8.81104891827051 7.634041051612424
Co 10.22625105756197 4.10198638965065 7.823238587492756
Co 8.899719057346 6.100739375057177 7.581918938170028
Co 3.8967457740692555 7.6268303833659745 7.596738432372025
Co 4.913748222420722 10.717358025901106 8.49905497284697
Co 11.180252117821452 6.428732013292572 7.3153326103785705
Co 10.559803289105867 10.373940841959351 8.499242713147302
Co 6.06131348329274 8.647384593554436 8.385290225418553
Co 8.402193355093026 2.4489603081311446 8.013831132897808
Co 12.03904664508598 4.997735191287993 8.78715876963938
Co 4.25386458237993 5.5496787736678215 8.808646985089714
Co 6.976713909435041 11.918694040732417 8.37972677658764
Co 3.343183107641914 9.277685600401881 8.95662887995215
Co 6.563148184117799 6.3058913699435415 8.552953041124802
Co 8.427789890642666 7.773608309708534 9.091956496992005
Co 8.259430017842037 9.985397504546414 8.305001639421242
Co 10.829288892756999 8.102873630217164 9.36452049328746
Co 5.534046027907888 12.114066993315285 10.129291816855062
Co 8.10943732946202 4.377519648965047 9.089096400915363
Co 8.664653841075735 11.66069607129848 9.896302937962435
Co 4.61445140475273 7.554092230767017 9.899588742046422
Co 6.804724236558269 10.205517226884323 10.181946908212586
Co 10.134120882383106 5.832734186202837 9.587905522341297
Co 5.796540751243871 5.538609760629838 10.618086604123123
Co 9.697450708931663 7.40541669704136 11.344335025220504
Co 6.714454382004047 7.859621245738029 10.702574212443157
Co 8.036658627734898 5.97418193343982 10.710541740132301
Co 9.178929576724224 9.52070876512396 10.489644154320112
Co 8.023241435013706 8.645426753156274 12.304810914101532
