55
Energy = -315.68684583 eV
Co 12.479943424933177 7.715740441330268 3.603740686071192
Co 10.311783192818051 8.507464121469571 3.9019881770035534
Co 7.709853546724991 10.26666005804667 3.479405260683175
Co 9.745494696836216 6.252832673139237 3.503320417114745
Co 11.548484059387901 6.016730588485199 4.772143034224682
Co 8.67140894437459 4.208010329967358 3.3730988916176092
Co 7.986913816956049 8.156509987106372 4.282131908224069
Co 7.505560782998097 5.8839147024531755 4.304313498965261
Co 6.53958442589903 9.928442433671632 5.4146605755564545
Co 11.814933166358303 8.28523168125903 5.714884890287416
Co 5.589744352843936 6.4216104901322035 5.3353120512981365
Co 4.2444827214359595 4.655034908878945 5.424208931736492
Co 8.984762227836688 10.19329368000102 5.3504985052255245
Co 11.156978744967844 5.309427818214259 6.895979231503534
Co 4.688704614375867 8.508060857608422 5.360328560273805
Co 9.592003605310317 7.197602532554365 5.810354236638749
Co 9.366835290473766 4.619761432139223 5.423825497457044
Co 10.198249787559213 9.273984161316225 7.0712266442622305
Co 7.352221024791161 11.858017392857514 6.352558364541293
Co 7.565076874058996 5.7542734692492585 6.632682936679884
Co 9.516986299538802 11.586171434631485 7.276202007241977
Co 5.337408789543698 5.016867880209536 7.366634464519578
Co 4.620842675710543 8.537444357511529 7.576986695835445
Co 3.5929645067271037 6.568199981289857 6.503707317852049
Co 10.822315105625165 3.189489234101693 6.458093085081935
Co 7.122747797322544 3.478223724550598 6.816448357014064
Co 6.878103650172358 8.003106080063054 6.57610414252399
Co 12.945028770075378 6.615531038801901 6.70521666740455
Co 3.794213994448102 6.726704067465496 8.744991049142861
Co 7.9569990566440865 9.942647845903048 7.605918525109668
Co 7.917240914905266 2.59000953441261 8.841178656714524
Co 3.9648990322550626 10.289552764670733 8.80474318946508
Co 9.286032455404431 3.9471910132835983 7.8263339268250895
Co 5.982007350036547 11.023623407647445 8.065529377939422
Co 6.106748529650297 6.763329571587643 8.705986815092324
Co 7.242835028925545 4.731903835173287 8.870476472643483
Co 11.150163713517092 7.446593164539805 7.973992948299092
Co 9.281258392903734 6.228453341546837 8.058343152531174
Co 8.124162952604994 8.042583093202119 8.653521589757124
Co 8.044465469007525 11.669465245848075 9.194606412606552
Co 6.05621426231183 9.001407476222617 9.371859760473917
Co 2.8430586985730466 7.02460690776005 10.775069727715698
Co 6.137310064415279 12.795163677568018 9.495039531093138
Co 3.9510577728398513 8.9472630244123 10.55426114606666
Co 9.822199496626032 7.623751121335363 10.0885706352993
Co 5.095868567627274 6.892231205852258 10.837456442291195
Co 9.104737279661173 5.29596242335287 10.088625065184878
Co 6.41312928783357 5.052242758326217 10.860208668976314
Co 7.565681533685684 7.0045159083057955 10.747700996378915
Co 5.922769710897149 10.987812677452263 10.735594977899277
Co 8.10607119839863 9.52324239859633 10.492829853016193
Co 6.128053960258003 8.814549110385911 11.813488567068532
Co 7.941044434889212 11.5041376053509 11.513810759254227
Co 4.415225956139293 10.320834604614378 12.216520958892616
Co 8.347478160052416 8.3929288943115 12.367629927592397
