52
Energy = -306.55347803 eV
Co 9.74083791207962 7.0559645084202876 5.419410526451408
Co 8.881692057130653 5.287042130597332 6.667507187873819
Co 8.974281871827888 5.322922740277582 4.129263812191226
Co 7.8571975446729985 9.84487525240957 3.877616346698666
Co 7.742751261799973 7.351165754633629 6.894568247619357
Co 9.223115233932292 7.375633105974149 2.9824741800654766
Co 8.550686094740897 3.4029446103810184 5.3965676620276914
Co 8.160328347939082 1.7394846457325681 6.994894143899238
Co 8.937984375288611 3.520261406736738 8.262688246116642
Co 9.02842362717289 9.17478144092748 5.771868979847426
Co 7.739981092686096 5.635725383270871 8.692946276529018
Co 7.951159568771153 9.448157078855521 7.88229825916308
Co 7.630560654088895 7.664977675748616 4.55099008729084
Co 7.573396088135024 0.12665277806778746 8.431353076736352
Co 6.433678975527812 2.3752133549331544 5.380395273223627
Co 7.1584975724235935 8.289051419214477 2.281823593657418
Co 6.879195339844545 5.355258955188043 5.244547219782581
Co 7.086672711181676 6.022616386059088 2.9000210040060823
Co 5.869803995934311 4.3984723042701095 9.337803209916542
Co 7.197018427904859 3.727846461278338 3.4777453418761906
Co 5.573749072218418 8.98980788837801 3.817212408794143
Co 6.931815207092832 2.271824931266071 8.95390990506609
Co 6.6649373830372465 9.47292732129502 5.936121225008997
Co 6.897325478201226 3.813451892597495 7.218647080199186
Co 5.511937215299555 7.373301083492202 5.613962686249
Co 5.895342695859289 0.935407420177394 7.126064020838441
Co 4.877636681737275 4.16872350059305 5.917186529843915
Co 6.516947994239023 7.764138990319131 8.841932154642711
Co 5.670325262812683 9.818186348604241 7.978851607821536
Co 4.307144616960566 9.440615153893683 5.89713901126508
Co 5.741133750060208 5.904199961420787 7.505030343862825
Co 4.794477286181971 2.7870867424421166 7.898228226002577
Co 5.511546290967982 4.667873589268451 1.947892950234141
Co 4.712807065058983 5.632937810904308 3.948082165879178
Co 4.674088917378146 6.454408826266458 9.600482422758015
Co 3.704430369358525 4.86252386140402 8.222190646869496
Co 5.05401292372366 7.156121656604771 2.2339493731751676
Co 4.898025000859757 3.2180758175068225 3.7661004012111103
Co 2.6365881791956896 3.723469428580952 6.469319705165102
Co 3.6037708699857522 6.121520176375634 6.234416380084955
Co 3.58201977162902 7.818090718688938 4.3039460163957095
Co 4.408180253982114 7.924817032373562 7.720159423033727
Co 4.156657845460575 1.947656711387792 5.761510518736489
Co 2.3727249086129736 8.118915754512884 6.349165147210738
Co 3.8842318840319745 5.790957856673656 0.7386266452636864
Co 2.4843761939964106 6.82969482952027 8.399203661464988
Co 2.7650443587363576 6.501891412782754 2.6330670736846926
Co 3.2692184475737176 4.286083168502853 2.4442219643956746
Co 2.3860784370959003 5.062130896753627 4.525788506207924
Co 2.6156616150372556 2.7926473882775893 4.234571203242078
Co 1.3010666662533945 7.111288619278066 4.5232263738373195
Co 1.3739162447538271 5.873031257432436 6.552707329889852
