50
Energy = -295.76494037 eV
Co 7.194557478144277 2.17453736903869 7.353792463085823
Co 5.413402481480122 1.2841482339228656 6.09073419263142
Co 7.133159551182777 3.7817512900153205 8.99041020456666
Co 6.928332019353426 2.698274748345407 5.09746474236761
Co 4.073556767339744 3.1123247204902196 5.97467610849499
Co 4.97997132857659 2.703850594197597 8.098926057618511
Co 8.875777933426686 5.143207031748851 9.870185772631336
Co 9.315269924647597 3.3168736815524795 8.466720229293644
Co 4.906714802579221 2.4292721486275655 3.8464564616212105
Co 8.40383043887314 4.04936224513992 6.466961881260226
Co 5.023030681245942 5.039891093654263 8.748388511009642
Co 6.474635547524226 5.340941441715981 10.548663678202375
Co 6.082591027554198 4.322814136266083 6.7987059825779115
Co 8.243068636590062 4.493235519547264 4.106912941989105
Co 6.764268051424734 3.326211888663572 2.7233238987198605
Co 4.832399574715853 4.527230450428511 2.1431964437419366
Co 3.279130476986942 4.161824881159788 3.9390236250261244
Co 3.944282180355211 5.486121659933729 5.9587627435469175
Co 1.857130148102378 4.306111631272257 5.753984485586519
Co 5.648313572168528 4.560584351284261 4.47583378607957
Co 7.492864219104484 6.028346137998457 8.219155100434076
Co 3.0828589400204716 4.278021780230133 7.788790768636985
Co 9.779720003213333 5.507235922920377 7.64132432671413
Co 7.6866334152201565 7.225003309344581 10.446724092564985
Co 9.419396530772618 7.398293975078304 9.006738484965783
Co 1.7587081601796286 6.373555139858778 6.704966037418276
Co 7.36380653425506 6.03884577812792 5.650614479431926
Co 8.69289718340963 7.62931299306062 6.805484089149819
Co 9.63175316196111 6.013042909376066 5.324743143993028
Co 4.244622714117388 6.371215479409736 3.539253427849529
Co 5.441533261197902 7.262964608601031 9.450500334975734
Co 8.894840252024707 6.425936924230127 2.955650181696831
Co 6.669456721393452 5.864590505952995 2.859493250753057
Co 2.6728336175483305 5.34600604968997 2.025725287823794
Co 3.567521042557475 6.761247064528934 8.100496339802655
Co 5.657962288169529 6.905092959686312 7.049684521477849
Co 7.147688794949792 8.413399880113936 8.469451330291383
Co 2.1503153764405694 6.390438257984512 4.387492793619173
Co 5.868701989372397 7.588821172007272 4.64784348166756
Co 4.810782535712437 8.955424016354808 7.597613578580134
Co 8.238434954056652 7.946840571467094 4.4890779248166055
Co 2.694109488228975 7.610435932146428 2.2760665460916774
Co 6.920209264816219 8.071339980002744 2.4245348972424243
Co 3.6185314200810037 7.777485928375082 5.880699553330364
Co 6.789277769449075 8.99408764191723 6.26769965090532
Co 5.014476281203441 6.902819812063905 1.4704708932975619
Co 2.632763883115004 8.875989619814023 4.1847358402771695
Co 4.715144485864451 9.690539511935201 5.255975043591143
Co 4.6476545784056285 8.720043118879227 3.008456980613784
Co 6.712010364538302 9.765985755490766 4.008345261586197
