53
Energy = -314.48519689 eV
Co 4.2121966722064395 2.2158335464808974 3.0999174689210514
Co 3.2305132487263344 3.7297281265707447 1.5086383933027756
Co 1.998489455680088 3.4673830813370445 3.6542675983908506
Co 5.557264374864427 3.996036876289601 1.684980715063703
Co 5.642923161585662 1.7149284997499121 5.44773040722357
Co 6.210064160865153 3.2075924326524503 3.7834221628266493
Co 3.6438904478798086 2.834063652472854 5.271047797399991
Co 7.848827163192498 4.323885682826372 2.6675839379026587
Co 7.862733533113956 2.9980305490321792 5.492204967424671
Co 6.366890173643073 2.614382384618851 7.454820530598508
Co 4.133693319700734 4.471262377637432 3.5449172089930037
Co 4.36559049301426 6.087432467678616 1.6605908644587082
Co 2.249963688393028 5.573229465609843 2.617376774432067
Co 4.13256469958388 1.8800344536579434 7.3725133898358
Co 1.0837952117638125 5.490686053624 4.687304139024526
Co 6.792117070611483 5.9677758615733225 1.235717545540814
Co 1.5649438619279028 3.513399304035047 6.0045288619352775
Co 7.676711417286224 5.244467941881271 4.923831149156691
Co 8.33376017831621 6.560114367104196 2.940070393934252
Co 6.01901519421594 5.819446784874653 3.4432127921354354
Co 7.578269360765601 4.608446924975255 7.242373878511725
Co 5.543706977057025 4.257381603792086 5.7944666087834085
Co 8.793934077602431 2.7357328133818455 7.786381550898494
Co 3.257868841591079 5.300304266377071 5.533167662596845
Co 9.755433304188548 4.81083915584524 3.942435094485828
Co 3.421820433669167 4.042965291514317 7.492627140122079
Co 9.655238785930846 4.636449443550837 6.302792865742574
Co 5.797094159214044 7.872358883369369 2.4172736429575834
Co 1.4649064702237227 7.566882784904675 3.3877058142225205
Co 1.5062092865045387 5.545979054673778 7.148345400343566
Co 4.946745632407734 3.3717946278974313 9.155348427948574
Co 9.402491791078408 6.765059323385523 5.223756903542829
Co 3.8205221574422277 7.001567827187171 3.8726300382428835
Co 7.235272370494743 7.804579009775873 4.512926627287628
Co 5.294772886406048 6.78585552978125 5.726430206204148
Co 3.4310893778532563 8.247400700691948 2.0361818331152
Co 7.258881077018262 3.8018531142851817 9.423232442500963
Co 9.389103436109782 4.747764175412054 8.775510117109341
Co 3.528621285956761 5.38250137250634 9.353669527180537
Co 5.457447476582924 5.3937155293773955 7.9433169443556615
Co 7.402024084735409 6.900143234915861 6.746802136399526
Co 2.138612671017059 7.3805824295189675 5.618836679487623
Co 9.535671699103112 6.760853287470243 7.6308986281759115
Co 2.921475096368777 9.190058712049547 4.269203525544176
Co 5.196951385731198 8.948637422947932 4.382290154598021
Co 8.790688175094738 8.75541285904921 6.256504501022324
Co 6.404931579054751 9.013319088843515 6.424282226714436
Co 3.5235021814973404 6.66876697399785 7.472042391005198
Co 5.7140828436113535 5.332442904695011 10.28144419915863
Co 7.499308781151088 6.232826543231679 9.05361916003387
Co 4.011895009414284 8.669926497538059 6.404845210621597
Co 5.585606494572749 7.7140783631200005 8.181515788034188
Co 7.9510123585222585 8.45134182945204 8.394905758017162
