54
Energy = -306.21381348 eV
Co 4.978226445955832 9.526958541733668 5.631876849509201
Co 8.525843691520581 4.939517199815994 2.814015624932948
Co 2.8750336109825496 8.899303404525627 4.480112066822513
Co 5.05428005700976 8.244070803349313 3.7756894728682378
Co 7.382756097503692 6.533628576889624 7.227081889914398
Co 3.121476235895403 7.807309796664442 2.3704455696390596
Co 8.221146968066451 6.040102611997412 4.943952468892712
Co 3.1626899711083136 9.051961790545537 6.919717064330215
Co 5.416959604806427 7.945087865734076 7.261292210757736
Co 7.076139183159819 8.32944452136363 5.4646832739209215
Co 8.831292223856455 4.70867970880232 6.880884736076585
Co 6.802234122570881 6.895419780609145 3.0094771193845182
Co 6.394136199240607 4.914335043897938 1.5271797890377052
Co 2.0472178557919367 6.703649197902756 4.104898871432248
Co 6.545510186962097 4.767560318284308 3.8622370517261357
Co 4.336961511147523 6.018853293864262 3.368668813898334
Co 5.046486709689227 6.872665197044985 1.325885879541963
Co 6.749930193223736 4.358508690942444 6.1750734285003
Co 6.865990936617908 4.512305611209718 8.43701459277335
Co 1.5190642385490711 7.524642609009747 6.246867121696881
Co 8.357278236901813 3.5054889455943576 4.751620074042594
Co 2.194891047319722 5.593988162471392 1.9524519505814197
Co 3.204996281254087 6.950602607910578 7.93939928132742
Co 3.7592247295926065 7.118717859363918 5.65233299059659
Co 5.985102318249283 6.667627038823679 9.111490823200148
Co 4.995139307165548 5.566009451880511 7.390443283080142
Co 5.902318842022322 6.493051494667269 5.265925430941535
Co 2.23913272690312 0.8563656861596107 5.8612179218525595
Co 5.151886460116872 1.2211654588706673 2.8156332155728263
Co 1.636169674792154 1.211409989139919 3.42265328989627
Co 3.1872480662428035 0.17008190283553395 1.8946879504364642
Co 4.644425178993073 1.1957756176197831 6.21659987460621
Co 1.1859792353584957 1.59954188546958 1.1207910459602868
Co 5.962805530553464 0.10465059154098165 4.722062584170158
Co 1.2555408940802308 2.921697785048659 5.041489498077474
Co 2.9896903422697068 2.951990499248179 6.610432898858646
Co 3.56420504274975 2.2398261285645957 4.402778993328211
Co 7.2317092668137555 2.0666542921020308 6.5400887382180946
Co 3.6369306688858574 9.526958541733666 4.171459396704051
Co 5.2835029750653355 2.6636284653706324 0.8822290775548672
Co 0.9689666393269979 3.4996107650886485 2.5709761496048613
Co 7.041535219885413 2.8384409369861054 2.534861647825977
Co 3.1546278280865687 2.469397096486216 1.9110496067692813
Co 4.0739893494751795 4.7498045698595535 0.960343963247591
Co 5.935163821278633 2.522683743122494 4.721937080285983
Co 5.183650436182758 3.1486957477722637 7.395222937640617
Co 0.495373898290363 5.0898357411962305 4.475572290206704
Co 7.805950663235852 1.3324544565447292 4.134158844132678
Co 1.9914587657727618 3.810974524950222 0.45734429989818687
Co 2.2823889556979027 5.23463348371305 6.224820545021391
Co 2.6210241018733043 4.388381703303803 3.8706445735877515
Co 3.2231180588656665 4.514365107556792 8.264931449695023
Co 4.473749169560112 4.424264666575235 5.303878403336173
Co 4.777618118226723 3.699174956373888 2.9315838888319625
