55
Energy = -317.48225868 eV
Co 6.8804106230441056 6.054638584667115 2.837709965388161
Co 4.841004846809824 5.08782390024603 3.5894913202355703
Co 8.408439508787541 6.282757262899255 4.633477165927438
Co 5.062629588401488 7.528504657544823 3.3202786456922624
Co 9.219046473292277 9.800438599749153 3.209475697300615
Co 9.514026868075394 4.249181722110723 4.833212803824159
Co 7.021735435461086 4.35249689866273 4.610661250018136
Co 9.661468981418484 8.194169264704376 4.716117632281634
Co 10.78079476117267 6.22733408089078 4.6512130129596265
Co 7.383644084667302 8.364010756204305 3.646173242045086
Co 6.065231813280769 6.419965376703838 4.985686492836035
Co 3.642212506693634 6.480687521092569 4.996572509699593
Co 8.389563207009598 10.224383972180975 5.197240096735472
Co 3.1178629845891943 4.283154794667974 4.859098319009497
Co 6.603133422839839 6.02296529089654 7.230287334812278
Co 4.929534859141222 4.722115257736968 6.083934504773997
Co 10.450097019149856 5.733657937719964 6.809709619628165
Co 11.187708876347177 8.117450757481455 6.518982879487301
Co 7.1570978763170405 11.947529151348451 5.812980289085535
Co 5.893534601832819 10.113584149768737 5.418632440253823
Co 8.826485928130996 7.421263249535965 7.036603047916701
Co 10.731888382601033 10.196164123098852 5.3109411759849
Co 7.15371538580314 8.230551845028376 5.8646865141583735
Co 9.657132621972872 9.67393703294911 7.335198422182702
Co 4.771019533923312 7.93158474529934 6.35769972481729
Co 4.156357955829989 10.035839034352707 6.875637217781404
Co 8.344252186397371 4.756865247012602 6.635401629352692
Co 6.183275138954136 11.920532229055521 7.9244430856742545
Co 7.414561796950008 10.094980134730875 7.416315948553755
Co 5.297997925371795 10.11752868670584 8.820302914906106
Co 5.909492080232988 3.839525093696377 7.933279331855662
Co 11.597019060613409 10.794879072558729 7.410045241040073
Co 6.303464577768856 8.13089034719463 8.159971599084955
Co 8.127539129391222 3.732273668793447 8.70741937109492
Co 11.805150883238245 9.21449496721817 8.890503027265293
Co 3.975956950613107 8.117152225627494 8.57900890044445
Co 10.743584450334238 7.173679426473334 8.616247823153534
Co 4.759732648046805 5.803629805182991 8.678270355134089
Co 6.758143209897635 2.2585349369290215 9.518424147202447
Co 8.477208730257725 8.459773044512085 9.138159026623526
Co 7.481523629782615 10.792767270803918 9.6193174595935
Co 9.879888183072945 10.37489398635088 9.567444679135098
Co 6.507776577520246 8.817174786597993 10.60019564206053
Co 8.887932717872946 5.891430662010599 8.808995520488924
Co 6.818874670504364 6.501063330747274 9.691947718242506
Co 12.317562857343734 7.447985712153447 10.207395219117226
Co 4.16738478550303 9.379355261530257 10.595586708359896
Co 6.225791717691133 4.285377049286252 10.265966682510797
Co 4.309770496480715 5.098954848909776 11.065333010441778
Co 10.350705780250383 8.39908953107206 10.724307678722724
Co 8.54577183047747 9.738580397056408 11.468507730237299
Co 8.310064243450231 7.372948953120082 11.308977974909363
Co 4.7414290591973 7.223466952815906 10.669736245190487
Co 8.354304098232856 5.0308391706337074 10.843448130705784
Co 6.425278347323464 6.062359143042683 11.920561783426571
