52
Energy = -308.28356039 eV
Co 9.541910295535963 5.277447201490078 4.0567355288360405
Co 8.156301569854433 4.291844456640219 2.2288132849492346
Co 8.417808398435927 3.309523395821352 4.4350549125958825
Co 8.49895343664822 6.9046124730677825 2.781559532209448
Co 6.556563050323647 6.090778121895828 1.6841074571634207
Co 9.63047696567621 7.169399563555504 7.047971190931066
Co 9.124702730741085 4.969533838025689 6.353559107498315
Co 6.8263698930194225 2.2995721223245167 3.1161414065803403
Co 8.630475249663835 2.5353791226035916 6.689331119640808
Co 8.284630035364271 7.055066248110221 5.133990686177076
Co 8.906086552528267 6.1341198818186085 8.963537798345154
Co 7.134841922822545 5.307146627997601 4.009434535138626
Co 5.739106708931412 3.9876900327135028 2.1518706225469737
Co 6.640554731656087 1.8967651868598598 5.379078594221704
Co 7.316642120585086 7.895262803230514 8.9844665417595
Co 4.181384645646008 5.538431027604513 1.1017765432511708
Co 6.432386739715307 7.624155068465395 3.5115039992366577
Co 4.680854732025493 7.759148476273657 1.9597705183475715
Co 7.961016732618715 8.740943914132346 6.90037622006382
Co 4.859303792659933 5.852900809089321 3.3140250647648166
Co 7.325840121185987 6.360687334533557 7.212482576173644
Co 6.974340900550057 4.0972929880600395 6.095107029705333
Co 7.983971591189954 4.134161636172572 8.348466245758475
Co 7.713298291404073 9.24003826895057 4.571218786074062
Co 5.244271332105051 3.816612416152822 4.527807373257537
Co 6.57255996109979 2.3157883708854636 7.808606643699222
Co 6.093383143931877 3.42743633954023 9.836239459636703
Co 4.500615060897943 1.8572038981905465 3.764752892118168
Co 4.672359828003311 2.5348168475583153 6.3967799374111864
Co 5.433893376358739 9.663265122817265 4.042075887927546
Co 5.611798368027227 4.563430506191462 7.846285428661402
Co 5.972280736601045 8.106306924030147 5.8694244747006294
Co 5.278916845734825 5.882585513424638 5.767906949454024
Co 6.374900664091142 10.499856863689539 6.056291567603007
Co 3.4920259233790762 3.9594612660293564 2.8757629190779346
Co 2.7405841801242987 6.574920003352042 2.693305873719349
Co 4.128899229358033 2.9347326466834565 8.631166712410984
Co 6.63147917606994 5.733043653304183 9.602162060519161
Co 5.707182458893334 9.265271623906731 7.904209795388279
Co 3.995448155803536 7.870477373129727 4.246285716224185
Co 5.14396083063044 6.975451548128715 8.197723229413867
Co 3.481300601875558 4.569775961736159 6.955179526384734
Co 4.257199696750203 5.065454632280682 9.661970909643903
Co 2.909701053181543 3.171882200572873 5.063508450705862
Co 3.37664338857084 7.26439374407979 6.473783984702012
Co 4.072159698297528 9.456191483758777 6.094324539644114
Co 3.00469778728196 5.467279770179227 4.7538663374753245
Co 2.1349571661007496 4.290695517532238 8.800345700009062
Co 1.7619559134832985 7.400948663435164 4.790871199501905
Co 2.781029959499886 6.4510446220123745 8.533880020036781
Co 3.505751349785001 8.718546688816497 8.2785446773356
Co 1.5660828166449732 5.769948702881564 6.608542592574803
