50
Energy = -297.30726351 eV
Co 4.54657669812377 5.6721950921597655 0.04555698956729112
Co 3.7252705206454295 3.528849095171562 0.8542021922922072
Co 6.137497565011852 4.037362183446735 0.9664424243997801
Co 2.481348922547445 5.5852462655544075 1.351063286668724
Co 2.9004932707410696 1.3879903168100922 1.6990437357529284
Co 5.332806550221448 1.8876183746351847 1.7977707776335934
Co 7.741731802545728 2.4325046025261137 1.941206022521559
Co 6.346878405332139 6.443809442171131 1.4920380598532923
Co 1.6438984405222672 3.422214705588185 2.1694953613127237
Co 4.073309749371932 7.395685081444644 1.732920451020559
Co 4.598437783880396 5.171844010939798 2.34925035024848
Co 0.44375291829537716 5.517642869923227 2.672105086411865
Co 7.920470563411634 4.809599846077887 2.4130871884156835
Co 3.7592971456919586 3.0088170285210256 3.1489237190464325
Co 2.0130406938258343 7.3137757417087705 3.057822540630032
Co 6.184904546411784 3.5527026280225478 3.29189342081337
Co 4.175987920054203 0.7566956369666958 3.68564148006984
Co 6.588643356924848 1.2587219537711765 3.7898895465852753
Co 1.9224197806891081 1.7238299518531843 3.91211117498697
Co 8.05885246000358 7.246290107416376 2.7324865046286004
Co 2.5122764360871765 5.080065890809022 3.6592110336779218
Co 5.874776445435374 8.170378646150205 3.145402763015544
Co 3.677538808757106 9.099586241828053 3.479412170838368
Co 6.566146150371934 6.0218763547287955 3.950156460748149
Co 8.21966873920841 2.9825394588969636 4.238826678754078
Co 0.6809160254667102 3.7873683662397517 4.402252942661029
Co 4.660580503853586 4.700554463602554 4.654740375617076
Co 4.158791139509409 6.883097656843923 4.050577985963769
Co 0.9071238580207672 6.160090012793728 4.98967981107353
Co 2.5516597709812636 8.016359830640024 5.298498886534689
Co 2.985171920057177 5.835007765417066 6.03812493858625
Co 5.050044032005639 2.4264472495541156 5.150251344107973
Co 2.793738601328466 3.3900514184353887 5.388736770927938
Co 4.887859694331725 8.529633307133459 5.488073288777425
Co 5.506296361894912 6.34399833258814 6.1231844398725634
Co 8.700344002570327 3.4099246921839947 6.594412176454075
Co 7.093187946926073 1.895229247126398 6.122388328293558
Co 5.445185266501937 0.1626781946501101 5.676834320832667
Co 3.218351367613384 1.1254923038679123 5.917503629503096
Co 6.8468406758742955 4.34896372248153 5.636091365033484
Co 1.0101661989230224 2.1113193117221143 6.173904167545103
Co 4.627208697859013 4.1008118274433 6.893560495942932
Co 3.90669073679982 7.406127563360999 7.43095778029513
Co 1.1888898482931838 4.48509489119386 6.712176090542081
Co 4.999277669586029 1.8227953745978425 7.44042416227498
Co 5.37548337769786 5.691614395023758 8.382639875090415
Co 2.7667935412261526 2.798944603152347 7.682659549407918
Co 6.659262177434697 3.530892143766996 7.874013490537699
Co 3.0470819141610397 5.115922254434403 8.269948397376789
Co 4.620292280646151 3.5470028283012773 9.165669250529966
