53
Energy = -313.40849628 eV
Co 6.417434139507479 5.317957954396496 2.2194883234439273
Co 6.967278516428389 3.223041691872228 3.1817280623197286
Co 8.805262630156625 4.553080582687185 2.4812969547097317
Co 4.83975766884088 3.386413542362611 2.31797721955863
Co 4.478366209929918 2.282378399680111 4.38143235499983
Co 10.345012125572673 6.345477958996839 2.3371457792516592
Co 6.575617139629127 2.582382615426016 5.373569144206108
Co 4.181682836826452 5.673699220835967 2.3026458934133185
Co 8.105803363569468 6.871989793547049 2.281948051197424
Co 8.606635794554725 3.5190236955215735 5.0771856436021405
Co 7.657600317688564 5.473724444407339 4.221722438086959
Co 2.8918412547060552 3.8871159662287558 4.947377511512191
Co 3.1763275498048977 6.00923196214046 4.3436944499227454
Co 10.129499329781897 5.1421308115155275 4.30561832360481
Co 5.004536973343999 1.167906538260702 6.460438326676757
Co 3.667131155276478 7.898660267373459 2.6981778143652946
Co 6.590797179215159 2.6963152461755295 7.700746740417676
Co 5.2807374962725735 4.5411094630631785 4.2923879660371345
Co 9.170563599083252 5.321568502867516 6.440084887119546
Co 5.899134782028675 7.730927309704225 1.9532313725104062
Co 9.436680870939275 7.338760944638468 4.189172416226451
Co 2.912082810215668 2.116609288218767 6.586378088597467
Co 6.815128324019028 4.823013161210719 6.422015644792161
Co 4.733569365542314 3.580166286320511 6.426499479462761
Co 7.675328446547666 7.071585046644392 5.904219463569641
Co 5.451239795947091 6.862110530865983 4.024488329526
Co 4.3333761887606155 2.4654853884936445 8.43868642356804
Co 9.928134325702873 7.534832812084088 6.4942756044625
Co 8.011631787495935 4.469715205959949 8.356665792051615
Co 7.294268528734573 8.434967082869276 3.903424954418057
Co 8.95357452849151 9.314183512875065 5.312663474576976
Co 3.48051702654534 8.192275688259851 5.02351024796848
Co 5.16953954811288 9.367844912174279 3.775903714700853
Co 4.6133615749426 6.035807791879773 6.273787728981045
Co 2.778082006571822 4.461177291741683 7.31408614433918
Co 5.524683616077106 4.673490223702459 8.54078679814019
Co 5.702918828111954 8.321291729612957 5.891960315723316
Co 8.472959504132366 6.829773584376236 8.190561469701635
Co 2.293542172292666 6.570282627985365 6.418822123359474
Co 2.0073877164469693 2.706466771066797 8.644008173593033
Co 6.078175959005541 7.039957397694545 7.924395512174925
Co 7.7956650544718045 8.952373907508724 7.269460475690796
Co 6.7615062127983885 10.282448937733994 5.484979726590098
Co 7.02346815255418 6.012782155027043 9.873415043415743
Co 3.4375311437855345 4.265627794299639 9.605100726599833
Co 4.3832157629649835 10.24207929220774 5.932675073007972
Co 3.828053005799911 8.295824890374375 7.3261291066788115
Co 3.707825054118701 6.317455254380992 8.48855242621724
Co 7.225198494261847 8.406080442697005 9.49711609322151
Co 4.801791889062309 6.002235288484902 10.469132078882593
Co 5.679878806925206 9.650464155082524 7.855715302902534
Co 4.850487679849676 8.210933744851642 9.567233231709661
Co 6.199493764875451 7.626709750950954 11.377390827785216
