54
Energy = -317.85965293 eV
Co 10.080662836197817 8.585619479747331 4.695156024756289
Co 9.049838469689925 7.804282121455261 2.7194045893609915
Co 5.485391372997625 9.54565888509524 4.133119700921392
Co 7.818872662384015 10.111332543770239 8.087734951652726
Co 4.477698085984979 7.615015317874879 3.803109308597427
Co 7.720871183219093 9.07486108390188 4.250951896714664
Co 6.542131430931552 9.84121383269655 6.196392340099613
Co 8.573805853451367 8.611217859276431 6.4961631498205294
Co 10.576799999726195 6.462260125618124 3.958120760680806
Co 10.044417504508695 6.6595589980411205 6.493860106554857
Co 6.700995981624365 7.1948904896261165 3.0615762704472878
Co 5.295009353050791 9.782290215641087 8.10650022588687
Co 8.438480641719435 6.924506535232867 4.795374565065849
Co 2.4107067669031292 7.804083847322645 4.85624829901053
Co 4.070876921261459 6.04143134264124 5.417733354914815
Co 2.7070012030025428 6.0385139415547515 3.320018870167725
Co 8.526843331035213 5.464637027284796 2.9616875867449073
Co 4.24168834677245 8.817284365730155 6.1370460551953965
Co 4.778790909582063 6.2462841141356 2.0245231265865997
Co 6.817317735711532 8.083452373527402 7.980242185276077
Co 6.206897041985879 7.512867653524817 5.5859956193119435
Co 2.031700193098183 9.36580871431966 6.579027796762167
Co 7.778355444174541 5.998656802031121 7.023069080642108
Co 9.28033789497229 4.790553659650533 5.10183511928099
Co 3.2769567511007986 8.7858015822889 8.485587164875595
Co 6.4680558673234545 4.676358221310916 2.3197011957586504
Co 6.6333669432616436 5.322402991668296 4.6142367848606085
Co 9.564048070285821 4.4987486359135636 7.390997839429297
Co 8.992115327196762 7.420999922947509 8.49523582973174
Co 4.423982226483983 4.486790259924381 3.5125519467353667
Co 7.771215078834203 3.359050636704306 3.9165204666927695
Co 7.686930423382471 3.5711621906705218 6.29365491192553
Co 6.609635330366375 6.206452089293403 9.28551970697838
Co 5.169810128170466 8.02326753249736 9.784541252964852
Co 4.7541956785006745 7.010341537886692 7.698118682368929
Co 5.591107922254658 3.2233675943016666 5.1868194970869155
Co 2.4201521138289497 7.156289064139878 7.084872087379113
Co 2.101736175519884 3.8457272207103896 3.7827483461402265
Co 5.835063121610779 2.448483219718398 2.9676888719036763
Co 1.8211740940021253 5.508759825414451 5.448255525830964
Co 5.644665188724486 4.988424730387823 6.8050999279339885
Co 8.71090237360313 5.28154739298365 9.324165968797116
Co 5.062282630245842 6.055351827264742 10.993294278962747
Co 3.3511515581404185 3.6832609891446935 5.720171259294157
Co 3.791443241374421 2.153489925488403 3.912638014857908
Co 3.206330974183796 5.060055640988765 7.5369537887451195
Co 6.840954061299366 1.3567570413724432 4.883241431737645
Co 6.556257258796531 1.8073172962870654 7.1994316829618965
Co 3.325536042608375 6.596877398131708 9.476577090302554
Co 4.801300850871005 4.74769546909163 9.148952996151309
Co 5.092552420935215 0.3308824129228954 3.781130068483333
Co 4.665653097867845 1.2245018726745793 5.88319685098132
Co 6.969109054081293 3.9365506029555575 8.465628988854023
Co 4.696374336572586 3.0158309818281817 7.601313407114427
