55
Energy = -318.18533218 eV
Co 6.734552815200726 8.817169894694144 3.347411681225565
Co 7.252358840263523 7.1342544689867315 4.676049558307239
Co 4.9564426789770355 6.530206331888907 4.904354226924137
Co 3.9301685949271667 5.278376284819124 3.3438011423962015
Co 4.590817917528738 8.648521816648863 5.5391926746168245
Co 6.661847508171713 9.698047509990944 5.407193184684126
Co 10.333209576199064 4.941035339077172 5.0758714553618764
Co 8.567814044930715 5.666822215967073 6.185307858483672
Co 10.296777417517157 7.231666802608458 5.172465520896433
Co 8.955012420199415 8.941607455092663 4.248544587639809
Co 10.980326469477697 9.570326178883628 5.277924507767237
Co 12.713684598991343 9.790900354519213 7.0306083569120155
Co 12.603614355669702 7.866559602316744 5.851141141081233
Co 6.218033203205499 7.493797408399952 6.843461016949936
Co 2.9173399612185014 5.439047390149094 5.4291973326829295
Co 4.723753369735016 3.8426097911599517 4.810699252084713
Co 6.593652251031008 4.965328379202106 5.488005673664708
Co 8.908620921958873 10.471423375572716 6.040599790661732
Co 7.0078530180522085 11.779287234415898 6.528276300400663
Co 3.7625111090836176 7.015636216514172 7.162409028232905
Co 8.446071653262363 8.210778146438935 6.401791632951287
Co 10.928044416867403 5.7111236445996365 7.121872591292126
Co 2.9946314772529083 3.4308967791417486 6.3555940986742865
Co 1.591735974401087 6.452552302126884 6.895284970295409
Co 9.117315014362175 6.800509027562692 8.108014017206512
Co 4.797128113919785 4.83683723306281 6.979518203401209
Co 10.834207575811597 8.261430506037247 7.259395800951109
Co 6.778434831249798 5.568737141727634 8.163495182802482
Co 9.28064435284376 12.622579986741433 6.756383377436632
Co 5.136717147166613 11.397410155900042 7.712969084378192
Co 10.692187046975953 10.774285337617213 7.476435900123078
Co 2.554411224334097 4.821729479011814 8.056776958965193
Co 7.00159324275883 9.767362042933213 7.76148780093363
Co 9.171978759029951 9.194181888110357 8.582579115531296
Co 9.065247530729307 4.44374357132329 8.29879942360411
Co 7.217458241082304 3.5143526372386433 7.175990809986972
Co 4.750690083291932 9.19347155684392 7.769839133652539
Co 8.48962400698943 11.4922912681642 8.488112114442375
Co 12.549612442893888 6.99771062441483 8.044395469029395
Co 8.098025456851992 2.466388579210646 9.04832669941677
Co 10.76515361789619 7.487590279402452 9.564125061864132
Co 4.408835836135883 5.2549426672459525 9.246425626424697
Co 6.473514160084539 11.751534850461587 9.446829352441245
Co 8.011317005485068 4.170651460478273 10.53298922051504
Co 6.0878198120031195 3.724182569921502 9.389257313834388
Co 5.036704580159234 7.392460994263615 9.206499525217067
Co 7.303440637073746 7.7148430219516015 9.06743392415713
Co 11.572475550492815 9.555865263337324 9.240597155985844
Co 9.778423398477962 10.645043835500145 10.229089551045512
Co 6.636914433130839 9.620927880452367 10.137848046529857
Co 4.393590914374252 9.34746626525402 10.071144575687423
Co 8.918489224722315 6.214809499378713 10.258673155533067
Co 6.446248814643271 5.943713144585107 10.504424072575622
Co 8.701657202336298 8.56742513727226 10.806563307066819
Co 7.957387411149596 6.223669433961485 12.174645697652586
