55
Energy = -316.63029246 eV
Co 5.3129206366580854 7.21115274086282 4.018339690429803
Co 8.204015997051803 9.42253062335347 3.6068112129444487
Co 4.566984728051704 9.218696554723943 3.461378699092071
Co 6.767577975166508 5.575879378715364 5.2147020351741835
Co 7.624398952539029 7.6513545452289655 4.879405054761687
Co 3.2089432256321384 6.410783600235309 3.7527269914783905
Co 9.335170460802466 6.474916157067516 5.988822330145303
Co 6.094889261210699 9.383603671143161 5.107331372595736
Co 9.859333973848852 9.759621732365552 5.135885352457612
Co 5.585058274360125 3.6782938348707783 5.925847780382358
Co 9.655170963890619 11.934454054027944 4.3965068729030445
Co 11.718852746006988 10.294031490002169 6.059653144005841
Co 4.287959288476983 5.368191073799923 5.4669925106318376
Co 7.518506818753881 11.320263791133545 4.592046993361232
Co 5.4374047098835145 7.3118911408646 6.277964023962279
Co 11.15402345621347 8.07423095935141 6.535645337847186
Co 3.6224281940888425 8.492935703303576 5.360104304631728
Co 8.916262394079673 4.787351263542297 7.5276670777476165
Co 7.480838298732053 6.838227784898732 7.197761873254919
Co 2.0296038552747873 6.912496804114796 5.602595363222865
Co 10.348821607145133 9.944308336519963 7.772012821826607
Co 9.747955423767403 7.687176045157817 8.322604299816513
Co 5.765491442439512 5.1544798284980455 7.535253198913743
Co 6.2960040722938215 11.291011159362894 6.5015109292660105
Co 3.47116572550663 6.48852208268477 7.319461302239932
Co 6.128632626585238 9.202947283914307 7.551253747353038
Co 8.794967591663543 11.382607320808027 6.5914127503614415
Co 8.36559307621623 9.015635962419823 6.755337066509738
Co 11.194684929148936 5.842021691619902 7.250456005157039
Co 8.168967253294502 5.964055443487077 9.225773038908399
Co 4.263574826006108 12.166059728055707 7.047870827313108
Co 5.182433423277772 7.200992584380919 8.680646614220441
Co 7.418870935879392 8.174794421109862 9.178014703711977
Co 4.086569149895654 9.959801839341266 6.983935663647402
Co 3.352500645436927 8.529793327370257 8.492602439805959
Co 12.863294476297852 5.17970116243117 8.802889753045097
Co 10.996039770054473 3.7183173017244266 8.600187229296226
Co 7.606370088095028 10.892512109526415 8.442400776257136
Co 10.415224626094131 5.760895278090401 9.592400520372017
Co 6.783321550699909 4.3037521129669365 9.523527604668296
Co 11.097203444073157 9.06178280468603 9.946910667385174
Co 12.049225053720857 7.365529023392195 8.76221775604629
Co 8.861052412997184 9.684880675881159 9.639028061297195
Co 5.429399513194075 11.21306331821382 8.72870975956921
Co 4.704751806903626 5.221672990567471 9.707087685648638
Co 10.814803795292816 2.4839768699578615 10.444956002028375
Co 9.061557116385986 3.831480227262424 9.937998423108446
Co 5.405082257040902 9.187305264661608 9.871409252665808
Co 7.15509806233637 8.725978465659862 11.291888735071108
Co 11.87049288699956 4.5191525995429815 10.746651611056404
Co 11.571550253389047 6.844020544410529 11.101897717293884
Co 6.435481546618283 6.508440474262708 10.712537451150746
Co 9.281174222641557 7.577159388765341 10.801322249294799
Co 9.33909885351254 9.598184654656766 11.849300686215411
Co 8.598999722105079 5.502879172734794 11.486143026181473
