52
Energy = -307.13226381 eV
Co 11.199502060572865 4.07867632812558 8.505476224759747
Co 10.362231904574164 5.610182783588126 6.886235738986644
Co 10.318891459377156 3.339440559565726 6.54247252129417
Co 9.386418367412281 5.375052702374497 9.043914575713083
Co 9.338230551145797 7.130310188406233 5.4258847630413065
Co 9.056601759828377 4.591024185387352 4.832414638806228
Co 9.064208616080888 3.073562262405391 8.587806131665522
Co 8.615304707651466 6.400277781825342 3.387006220084196
Co 8.379816984425656 2.109347971388183 6.403686388598208
Co 8.427358762544019 6.8930131038984195 7.566136583434514
Co 8.293273818840914 8.760331906537036 3.9953823348656226
Co 8.498197759178305 8.119627991475939 1.7631131958586217
Co 6.872777789775261 3.5379566252163372 5.322924847769892
Co 8.322581697886925 4.534407701874435 7.024099397872175
Co 7.6559676306310145 7.166501457821223 9.753855412283027
Co 6.704613516181328 2.8374536784750743 7.7834767102057345
Co 6.8923948905387045 4.79600285928416 3.280739797865105
Co 7.238808615018639 6.027825954845486 5.470899546085912
Co 7.306899465838155 8.346662435921923 6.060399694739564
Co 5.535990401652544 6.345134861262162 10.148848104305976
Co 7.118527895413719 6.336037626199361 1.5023553656762259
Co 6.642619978338323 9.268580120917994 2.3310157268809877
Co 7.047527108829718 5.028800531582878 8.938854731486014
Co 6.423061759924201 7.286542796183331 3.626733222015413
Co 7.2187465518377545 8.979837548662374 8.386062062643349
Co 6.4027064976966335 1.2846050952894048 5.503663108737892
Co 5.087971050937474 7.267925068738028 5.652921969575014
Co 5.5586349508026975 7.87815241035093 0.9321102192960344
Co 6.030353695056004 7.050783323126418 7.8341594299244965
Co 5.011291152172216 8.474103385615745 9.27255890003006
Co 5.543097006845493 4.8575638626190125 6.963874983394515
Co 5.091255759051835 3.883124056352966 9.14295726335384
Co 5.318136082902972 9.297993462942907 6.972508291401693
Co 4.878810651244032 6.077298738074913 2.30278883338282
Co 5.094045178946616 2.8588022092883763 4.014788750298337
Co 5.824007813322875 9.406374098584276 4.588525624852207
Co 5.001323894953292 5.124457473107962 4.537229965263958
Co 3.267792110835869 5.719199347638631 6.2265289578222704
Co 3.9480715130094493 5.943656531547556 8.584979833908843
Co 4.827938176328975 2.5963024373672754 6.43326327009551
Co 3.5636790894686468 8.970532551321824 5.183189573746852
Co 3.2780346295429585 4.546886314957618 3.073256256341214
Co 4.443636777263392 8.431045047841256 2.9546449803931063
Co 3.5446124293511065 7.898416117309827 7.40852944601989
Co 3.3093022133588015 3.853954043944866 7.675470179545413
Co 1.8058080652618491 7.478067993100747 5.8151072777023805
Co 3.159956707817802 3.611691824255817 5.194048916443489
Co 3.3279603279131824 6.775499523577985 4.032419465219477
Co 1.3028159416844767 4.282720192099856 6.647364035316826
Co 1.6726982161859 6.250968370538813 7.842951289110642
Co 1.5669850775350784 5.3514749632804115 4.624510395488121
Co 11.199502060572865 6.127235012859314 6.208850097520654
