55
Energy = -326.33153299 eV
Co 5.434092936386029 9.830132713915305 8.79750590121659
Co 6.794877465365108 10.201877752257591 6.973205683307001
Co 7.3013521415950615 8.591118411362613 8.519873422328157
Co 7.467066097327707 6.578302666189891 10.010758922381985
Co 5.328622191043338 7.326818944347733 9.209393099066526
Co 9.019229121735156 9.401254749559621 7.316345796622482
Co 9.028835984846834 6.917475596940386 8.305842260726994
Co 3.609060142847217 8.385180265864891 8.230271220310883
Co 4.255768044245026 10.064409768940587 6.685693363155909
Co 5.585512184366134 9.857832652301175 4.788439242321264
Co 5.594203046146685 8.11644280159114 6.428737642305707
Co 8.041469669011644 9.746799241293013 5.03568606563143
Co 5.794555327769217 5.002375112708989 9.516709649641431
Co 10.313937670936081 7.355229375594307 6.3061843290101605
Co 6.771583570288461 6.2639422574828485 7.719619636806013
Co 3.120302169436202 8.134638595624734 5.948205927385375
Co 2.054125532312931 6.699181457638164 7.852663861725856
Co 8.101899539516548 4.659440117358654 8.747879679047273
Co 3.5612674303566467 5.729790361326608 9.344615100187806
Co 9.412810705952479 8.069209188596602 4.335808024859609
Co 7.9885912798989835 7.640130852002997 6.1774734221642404
Co 3.300457350656401 9.762875639180615 4.37997542788971
Co 8.882803316844637 5.460425270765749 6.522670748771841
Co 6.783922884973884 7.980997286816862 4.219626974186317
Co 4.292966832001576 6.285105280994047 7.150282404983094
Co 4.603817709239164 6.75353350370385 4.616271269291782
Co 4.636062988522494 8.37443217493763 3.046390655892076
Co 2.554626376972254 7.4813001252213835 3.7387390889415997
Co 4.242837342703797 3.286338103379842 8.946706336419
Co 2.7949808659562048 4.428471050843753 7.527322078865051
Co 2.2791641879618703 5.95451340120322 5.6694818377379725
Co 5.632227457595364 4.203314302593774 7.364815782614846
Co 6.506548567772679 5.522996760705658 5.409268639394542
Co 4.14310915995054 4.4998139745920325 5.542470862013371
Co 10.40197281772982 5.531404863197627 4.814566104203511
Co 8.358771308683718 6.06092082082624 4.100388488537173
Co 8.728132023498071 3.738602326229385 4.84107429498386
Co 3.8932289651377223 2.5032002724264775 6.640385271480833
Co 7.739280968982779 3.3983034011976936 6.866872218402545
Co 6.022067731418835 1.952733445518572 7.624054631942935
Co 2.712138324035531 4.9658660477182295 3.6194019721299724
Co 6.327365562752011 6.413368382003141 2.663728257451483
Co 4.0453452924353845 6.250240696349568 2.1061548304070397
Co 5.0816765108907695 4.624500557744242 3.4385297125035996
Co 2.0867084898623736 3.487096947457913 5.3708412143501585
Co 6.091168624210996 2.9422149477121415 5.056168958495151
Co 7.300160364818516 4.235813250092343 3.0474452895668165
Co 7.513028890616709 1.2707562279383866 5.835937317279758
Co 5.178943378035548 0.7855904680136511 5.83096361835098
Co 7.778827451050766 1.9786478692692904 3.6517422873185406
Co 5.58987010358456 4.686013127630525 1.142590668454435
Co 3.6217272926727606 3.6638654434997324 1.899480814987313
Co 3.919066156181049 2.5377792304702624 4.107801691276926
Co 5.686136658658347 2.64633101702931 2.3503001705048883
Co 5.791800041931904 0.8611551495608536 3.7067420798900512
