50
Energy = -295.35362305 eV
Co 1.6049019956423063 4.624710183883416 4.562126431874454
Co 2.449435570772597 6.839663795781337 4.663655786477717
Co 4.305142079186289 7.328624338839101 3.35272128850702
Co 3.525201222015905 9.005178303340935 4.752210159399577
Co 1.08590365635353 3.4029023797185776 6.403289154637212
Co 2.865528629044675 2.767227335412678 4.136713616424536
Co 4.784689764315762 10.99920507190635 4.794519358331737
Co 3.8229465149155057 5.022613916845034 3.767809495746469
Co 3.6985601787711326 3.961881085462828 5.978877930058772
Co 4.492781699542825 9.730808444564838 6.76023826862934
Co 5.517261305415563 9.360375120161079 3.2692405319593574
Co 2.7360155039457807 1.8724667900779253 6.347569745964644
Co 2.055448769623258 5.590918260084502 6.650879961499222
Co 4.952049675917049 3.1507732578999614 2.9707016107267763
Co 3.0396390557984847 7.788137000753204 6.771583283817551
Co 6.116206095759343 7.568089485966854 1.868160593512241
Co 4.463015035769887 6.215619643556864 5.77498975414775
Co 5.742821061230063 8.24156495645315 5.2881560752235295
Co 5.3106480527751225 5.315566288925607 1.9635657398828077
Co 2.779071990799264 3.6601641206422046 8.084538885521903
Co 5.998154082175457 11.526205721262723 6.652352500174973
Co 7.572104267394811 8.125287490059543 3.697335116845286
Co 4.80937603779159 1.9605402726890848 5.117060039079692
Co 7.001732274164474 10.224722068436332 4.960417620294014
Co 5.9972330462815835 4.060846555392659 4.976037552608258
Co 8.02136361156105 6.21693607304121 2.2959108392841454
Co 6.748442883111056 1.9163495595200175 3.8673297902432147
Co 3.8148179000993543 5.7775609362079825 8.128558807371206
Co 6.243910212428864 6.192485174649533 3.9083027239001082
Co 6.790401314842633 9.438737445342925 7.1603385390837
Co 8.541026490757147 5.961387254211645 4.598066516086317
Co 7.134760932686641 4.168146885331254 2.8669445022399094
Co 4.787055219447641 2.4125935895665855 7.508504042872064
Co 8.278271306916931 8.180649278329447 5.890509685542909
Co 5.253048540189288 7.635354642113529 7.640273122647192
Co 4.824378070485787 3.899247666687203 9.376549956496746
Co 5.681266147532593 4.6036843386079855 7.361740813949056
Co 6.889458649440098 6.317212738273126 6.322323997905912
Co 6.8231601852808526 2.2497408084940673 6.286869371832316
Co 9.579420599394004 4.540213343821346 3.088706054175808
Co 8.45058734274889 3.254966650148978 4.544986866532787
Co 5.8090369355727205 6.1225643896869215 9.353513316127248
Co 6.991964946939557 3.0888312638596984 8.54865150103403
Co 7.566848250356894 7.545027229894384 8.219015080023212
Co 9.252247381713552 6.312629106975385 6.948262431148101
Co 7.878671636498965 5.257712021220883 8.691909126550799
Co 10.108144382413656 4.562892145847508 5.603257618998153
Co 8.019831749454125 4.192394791648537 6.583935279450563
Co 6.806767737418072 4.383191996385271 10.508981474613066
Co 9.829028998636783 4.2751777733458525 7.981587031877037
