54
Energy = -307.57062393 eV
Co 6.517783109502405 8.733576393163926 2.1173035331672825
Co 8.082210318323684 4.654157289441864 5.3414837197052565
Co 3.1885776393286642 7.540357493385933 1.2162981200573022
Co 6.735030422002992 7.827975368185945 5.978004003062715
Co 3.658570043914397 3.0416361994665713 4.897916581924982
Co 8.421123063098193 7.599573451483222 7.702750460520972
Co 4.570758567098617 3.026598412767586 2.622175446263539
Co 2.8871707240486195 5.436727751262512 5.517778823757371
Co 6.132518559408227 10.170319108308899 6.0270512609182765
Co 2.1417044339275897 4.256075122545559 3.5838126079130714
Co 1.6370929998887505 3.7537189637502255 6.172551223916947
Co 3.94058106318748 7.167782334637218 8.873609387515872
Co 10.347704214964057 6.062941287914075 10.289843248603123
Co 6.972387260906958 6.348764704702169 1.2823254852063262
Co 8.327442700778931 9.581749000730973 6.597747332952732
Co 3.58355098337629 8.743697915184528 3.078347977713135
Co 9.113314036326642 5.452408267536651 8.594541181484791
Co 2.622158692887399 5.454223416773365 8.001345939748534
Co 6.105748898760879 3.186741670040363 4.667757685016748
Co 7.116949219949563 5.80070566125532 7.27343824964563
Co 7.108862008433412 4.439902255767051 9.334891623904083
Co 3.9003719134542547 5.727740720473172 10.652544563875594
Co 8.621569031703572 3.4979135150092326 3.2977949134265723
Co 5.030304226465771 1.7855976488881637 6.372041287353108
Co 5.020769924159736 6.886088651225292 2.411935941288499
Co 4.291150672348105 4.694406275676873 12.51684737356949
Co 7.815499018567422 9.137585150433416 4.3984607626767565
Co 4.798328851770636 6.124385004475256 6.955649871759115
Co 4.938975395581176 1.2879663113780238 4.040663529819819
Co 3.664127455610633 3.5131939103719714 7.22358110992002
Co 2.7438833435610066 6.403284232142914 3.1251043477762606
Co 6.698185910509664 4.8340656189981255 2.9781268194842943
Co 10.293551116400895 3.322268674310298 6.8503377098459195
Co 5.537723246160949 9.236693253534684 4.064268068020757
Co 6.821760022869549 2.46097890525636 2.587685110034888
Co 2.0251224564623183 7.9158159161302635 4.641161088426326
Co 9.74613912499001 7.921390937306192 9.400377689551217
Co 5.299915685693932 3.684388823294173 10.826262208472986
Co 6.997380449723901 7.075740558910264 3.662249384497232
Co 3.6627721755296307 9.577677592782438 5.423895099758606
Co 8.246423400972398 3.508811379505586 7.4681748703458295
Co 5.420118024166668 7.763443797401507 0.30971743410805397
Co 5.281297395722063 2.4998515457877692 8.73785667443266
Co 6.67283811452357 9.1351280233342 8.167263076338834
Co 6.0986198695927945 3.717270823704999 6.92266084068737
Co 4.335244791452933 7.325737033183477 4.786090376175455
Co 4.403198655263608 4.9929286449978925 3.6297943431829904
Co 5.988510539145754 5.6251214835768275 5.145718609138007
Co 8.879931491955961 2.4778064263125446 5.339802578164116
Co 4.814736540668593 4.821892440300734 8.841941068150884
Co 7.548632180147029 4.0161519135461 1.03889618007629
Co 6.997330198719405 2.3991365874580937 10.177380463559304
Co 4.790083677392187 8.505816010729916 7.07585244893186
Co 2.7555113455591926 7.418072190863643 6.7873839702180785
