55
Energy = -301.51546026 eV
Co 0.9855319615832332 4.082536210805402 5.810282044168424
Co 6.032735766245162 8.967914765626968 7.611913793038985
Co 10.381651209131476 8.106368288201498 4.6764477579460815
Co 4.32299649635107 7.67549693742419 8.5178746617358
Co 4.255872362913171 9.160743445716337 4.057432280438115
Co 2.3181573462613545 8.207904771912082 7.016079506989612
Co 10.945441567995191 5.603497859111072 0.7354797479824737
Co 6.705138704014881 4.5029313334750185 7.850920886319186
Co 4.456444123031924 5.155412685512555 8.982093281135137
Co 11.36480786152462 3.914026114457911 2.114257114829881
Co 3.266785719058758 3.078433890042591 1.8709507986893694
Co 2.1931477724732766 4.574312102531032 9.619734550744917
Co 1.9065254840218537 5.733473271679028 4.3369495052904785
Co 11.009324143348547 2.297490163358034 4.366084295898469
Co 5.495751082213775 2.990394691695325 9.162135605046533
Co 3.863755669471418 4.560071519961254 5.034076998543916
Co 8.405858240952982 5.963125978074839 7.0980330072725
Co 1.1549487087241537 6.360797499412653 6.463062785020212
Co 2.834232769555713 2.6419046875672842 6.0708636260049955
Co 2.764462506777591 4.798468516216376 7.166948363591006
Co 7.679789443461795 2.8628523353287503 9.433880185323318
Co 10.605462219114921 6.190265657660778 2.8661622157692235
Co 3.300156143423683 2.8084289567120533 8.44133016305913
Co 2.230424074947682 9.424482940897198 3.1057460236054237
Co 2.8411596260146283 7.09689202969877 2.599886842020124
Co 6.377684853888002 6.703360826171873 8.51676951300026
Co 4.89179466774734 6.0287728332362205 6.732056397187606
Co 10.451853253029142 1.9118696841760812 1.8666135459942643
Co 9.466618226783647 3.6492147156090895 5.680650513944411
Co 3.8218970929688276 3.36498087283826 10.605086759460832
Co 8.91043644066662 3.837164748379682 7.879240984625226
Co 4.8391470335815425 3.6275676391133147 6.924064387756918
Co 2.277590202867831 6.582405586491926 8.66532528441681
Co 10.703770194161331 5.015976474992958 7.219986368510113
Co 9.825197504270236 5.877192122068231 5.235063190261092
Co 11.415069730364353 4.484631849537097 4.359529920020199
Co 12.081976909832969 6.591509439056124 4.59028185637565
Co 11.458873242526392 9.624021289593044 5.8244805120043415
Co 4.094236812468279 6.778694785353063 4.527136774568548
Co 9.43243095843085 8.87830330772538 9.567063644969094
Co 10.052409031338337 9.092408450859777 7.387582645453529
Co 8.077628056812928 8.120616300529207 8.010713563226219
Co 3.7114378141345914 5.013470075866789 2.851096109916244
Co 9.355957092489689 3.400721815005927 3.38018764203464
Co 2.202593217685287 3.4246500194353637 3.8795389395762983
Co 9.856581873704133 6.734453120465182 8.717386107535127
Co 3.8281392028544627 9.97892830597736 7.813747987358624
Co 2.457311749170712 8.788144343962857 9.383131999934893
Co 1.4589664802163957 10.168446934515792 7.779313511444043
Co 1.9696338274085072 12.066579818102985 7.022031575827019
Co 9.2531988137949 3.6437367337054116 1.1283878235992464
Co 4.485995211243055 8.260010229814334 6.159950319245732
Co 2.1006669447299364 8.06151281928422 4.767403492734121
Co 11.087127381938446 7.253685273020645 6.734021948339632
Co 2.7012287833510524 10.24675653910564 5.75154424728862
