54
Energy = -320.61363217 eV
Co 2.9112961999573157 3.8488076531127535 9.07883793216795
Co 3.975197223645008 3.593591708054529 6.991142848588087
Co 5.330767466862947 2.699999902681617 8.825944662953539
Co 1.776915694522579 3.8612063812894433 6.438370511342187
Co 3.420942659015195 5.064878209490337 5.138999673080709
Co 4.69919934952679 4.261305619378854 10.721987918551644
Co 5.412502205435258 3.799044682312569 4.993830059032268
Co 3.2946046226920807 6.016584739996685 9.961361046330858
Co 5.8342050850418365 3.4059022079837007 1.9590294760557716
Co 4.847506921004084 5.0208369071048224 8.581170864079256
Co 1.2851831010428791 5.9708040709872945 5.232636954636121
Co 6.464358143958831 3.910686890700619 7.077134978056874
Co 6.637341069653532 8.545859312104351 8.158591115189799
Co 6.87979357327066 4.261095142990243 9.519247310454777
Co 7.932482090608586 5.513877242148076 6.1072880523325175
Co 4.51769846376287 7.332880514484815 8.228195987896807
Co 2.3539862428438343 5.479249242899947 3.093192268818353
Co 7.291736185356772 5.393905105363538 2.155951788617409
Co 5.654027470980631 6.48022666994255 10.163263559849401
Co 10.24865811056747 5.364228944344254 6.360408200817514
Co 4.91036959549549 5.255427084632017 2.9798755846947067
Co 1.63432101058569 3.5822780821932683 4.170372562013016
Co 8.689051586721057 4.356285336441598 7.976018057333386
Co 2.2387371566730025 7.696756997415791 3.848199869295264
Co 3.4762774181977587 2.3074727422828243 5.181423024355918
Co 5.03219239336587 8.567127206860283 6.36882600045599
Co 2.764714890694988 5.65089614035357 7.523676331849146
Co 7.634275370854092 2.2110865367942663 7.936943859016775
Co 3.660755012871148 9.449175241176233 4.772892706200048
Co 5.269186457555633 6.05618485814014 6.3171731418305015
Co 5.2932391903427884 1.7422690715761473 6.621978960034402
Co 4.468815390792159 7.237211120820326 4.26866673775921
Co 3.4311166855337376 4.521764044210297 1.2268886138218997
Co 3.7384716212533484 3.279059694573288 3.148484546793218
Co 2.9850613377554933 7.393934013084174 6.075527198640274
Co 4.274103757114151 8.999322564478419 2.614658216942335
Co 6.758790253967498 10.113839770917716 6.206025367222116
Co 6.626496619978826 6.003635747693189 4.323492528049542
Co 8.933478372662794 3.472187042766345 5.7515560638144265
Co 8.951012799208431 6.967262779230783 7.660536358578178
Co 7.2005384563236445 7.778852710880493 5.9823325112224675
Co 3.6866512690787876 6.918316320282124 1.874696139394516
Co 6.114919669772627 8.95272866565033 4.143114866198134
Co 6.876567732617147 6.252679079940992 8.179690667704524
Co 5.563558277587562 1.8534875664185058 3.7995445463074926
Co 8.791242722770159 9.187820762743998 6.986717151543381
Co 7.181279261890169 2.0902762793103 5.524266056065492
Co 5.398341674531385 5.599953764490297 0.7175121565628303
Co 7.369213258704572 3.641848018593642 3.754639130136337
Co 6.008197978981991 7.374535301520359 2.3189144475093797
Co 8.092515986993243 7.5332363412114 3.4133402351863684
Co 8.97815198523216 5.351891942825758 4.025228425696923
Co 8.410238851104994 9.443720095788136 4.6938420022411975
Co 9.437596337767049 7.29930472859142 5.373532610954392
