51
Energy = -301.68850775 eV
Co 3.1028327186662463 4.773214524713074 2.001807024389821
Co 4.419347207013088 6.37490456957759 1.0487402148042497
Co 5.539219610528679 4.396585270705768 1.9368638310670008
Co 2.508897948706445 7.060070434396028 2.3957499262284263
Co 2.3435260909388074 5.351637555503612 4.151720288576015
Co 4.242374419716501 3.915644429587873 3.897146711519358
Co 4.962072574526322 8.321437089066835 2.307013346127494
Co 4.463349279038477 6.280845049667681 3.420467581823473
Co 1.412523302404108 7.385915837931463 4.561528936139487
Co 6.555288766799532 6.532246737484613 2.0752189990349286
Co 3.4560892533127894 8.362882114250104 4.121124207284181
Co 6.5448081714796595 2.9388069833331776 3.6804874180807494
Co 5.069254562733618 2.6542337272492174 5.570718367621651
Co 7.758697131375018 1.9485079361504103 5.431014354363773
Co 5.12034728014184 5.136697496610538 5.831708327261475
Co 7.903351842276911 4.4627656511887945 2.3144193348727007
Co 2.214621230432308 8.842333520853952 6.175303236590271
Co 3.021625839495456 4.260604415660962 6.072744499373893
Co 5.795652189990238 7.474108700147864 5.124699747729242
Co 5.158383590213297 9.829648671162884 4.142395553861121
Co 6.473147126742922 5.197815105536813 4.007232894267116
Co 7.029126432196523 8.438621775929713 3.461835076649166
Co 1.4416739186543457 6.480094924540759 6.788980201216066
Co 8.39116774916598 6.458322680316092 3.6674872352479997
Co 3.459102694730768 6.76339599217166 5.8085792592877326
Co 8.505019461423226 4.127327132200502 4.651531142765675
Co 4.585435647421061 8.953005267626503 6.385609221877508
Co 7.533905322200564 6.073254316962314 5.979149171744581
Co 3.108981257989353 7.777869547723025 8.008469005105663
Co 6.798004016749965 9.709440150043385 5.684373619763561
Co 8.49491396506178 8.108154386396997 5.352008090629519
Co 3.2400853537399974 5.444515675641117 8.100983363212423
Co 6.956903514494007 3.766005900134102 6.525637358914213
Co 4.744424445412791 3.6378161623166814 7.686203165467079
Co 5.245675315923035 6.706566434262874 7.649854151739332
Co 9.876798082394954 6.1084845235650675 5.422294722422136
Co 6.2042137407064955 1.6692250371142079 7.3708425958702355
Co 5.267894510506316 8.923088084630244 8.594192629645129
Co 9.928994587123677 2.782456331996966 5.873663959429449
Co 7.098677999641177 8.119303049156224 7.307482293071874
Co 9.12472784727535 6.97030777731217 7.540565712753481
Co 4.2939269161452405 7.115538748541997 9.85130331355132
Co 5.246458907070194 5.077494933989263 9.45087991566082
Co 7.351817624941364 5.443585894214821 8.31759177380409
Co 8.53934671605435 2.409221020989506 7.683539492343217
Co 6.6926701052463615 7.285989403354433 9.551233507007836
Co 6.757182241287975 3.2583538068101974 8.987518734427928
Co 9.198230906772249 4.60966438337695 7.07296421550689
Co 8.94964204092453 6.312301337131642 9.76129847111816
Co 7.20062450996181 5.069366722957159 10.675720617176646
Co 8.945737145041749 3.99190618570123 9.392461940659636
