54
Energy = -312.09781577 eV
Co 7.535374954471503 3.029467061654326 8.869548107955266
Co 4.785774675031004 6.362352231239464 2.3720539294272505
Co 2.083498016785839 8.72999757971126 7.012529200746094
Co 9.300555133788217 7.192521843749889 5.7925184275155965
Co 6.106337859772521 9.480129002397222 4.925359579989348
Co 3.0800911626079595 4.904438548450167 1.8017390145789176
Co 8.169173462729203 6.672712600778853 3.7969690834128587
Co 5.771613688822044 2.854602264726773 7.398751526212085
Co 6.547330592145147 3.10583895738887 5.040994233495699
Co 7.761988559042996 5.315998253541546 5.687318776668108
Co 5.139314387181684 4.894949734597 0.6816993717057163
Co 9.756841721293107 1.5781043631820784 6.33187003078791
Co 8.02871361585847 1.0150253658517188 5.133097187576443
Co 1.813219004387839 6.583541276607007 5.981238738320593
Co 5.417686266747442 6.694457122133351 8.058615510157226
Co 6.019919855795623 8.879761749002197 7.250087309446921
Co 7.61973115026547 7.190722107365963 7.300712273134117
Co 5.680230278470818 11.058479801882768 6.5937729765900785
Co 7.00649549371454 5.008079048763784 7.90366523370264
Co 2.2917949277220733 3.405086488242854 3.3697776709319127
Co 5.119454599573527 1.7761883899194917 3.4600699493467393
Co 4.087077849818729 7.58763643788356 6.292316156997188
Co 3.9245699216913446 8.548828381441016 8.375449362175768
Co 4.468681933752839 8.362676404619574 3.820107534907485
Co 4.927496856180304 10.483863569040041 8.589679895681773
Co 4.227925201825843 2.614326701116861 5.585932983853722
Co 6.493077110356031 7.90173470791116 2.8532968604283355
Co 7.133264456333583 5.6939756059827324 1.9129611157699595
Co 6.398310697267877 11.058479801882768 3.7972714309925872
Co 1.4829754180336274 2.8914428778339003 8.424048051334111
Co 4.016842891424995 2.8483280658241705 1.7157166919556404
Co 4.967016382312321 4.522266308743619 8.847957581166762
Co 4.346801471967839 4.014429136068732 3.7436722062162224
Co 5.070247230736682 4.961184277256957 6.291015545990009
Co 3.370150059034873 3.4952901012413147 7.566039966290437
Co 7.398667214995228 1.923009885374278 3.170121449372374
Co 2.3298626202891994 8.437405947491767 4.659142875508551
Co 3.8786732939235824 9.836113442982322 5.997680200537777
Co 7.565958661599884 1.2533388485659693 7.402122365056728
Co 9.27394503974815 5.3060427043572185 7.359750463608331
Co 6.166931274243755 5.34138179327785 3.9798648046346874
Co 2.6204384115799924 4.391520580359718 5.527104038020334
Co 8.140917926051058 4.123471604533287 3.5887274844793686
Co 10.332789868029575 8.990500623480488 4.983428575495934
Co 2.460566683752452 6.788148417956251 2.966733895397943
Co 6.141148052250123 3.636654799032693 2.2580908683845258
Co 3.1863242125030657 5.860010612286473 7.751073022012556
Co 6.237139272858034 7.222699928811051 5.3901567831696955
Co 5.833243390026787 0.963840228261068 5.7439066117030935
Co 1.2419805248894165 4.717484348993911 7.26478020645765
Co 8.37281933284175 3.2502958689765284 6.672922731063677
Co 0.3580582239345805 8.195917394212712 5.586015444432634
Co 3.789942800235636 6.18491993075005 4.574818651786681
Co 8.205182725671534 8.843001586237772 4.359002944080397
