52
Energy = -307.6336385 eV
Co 5.861835173038236 5.541824056653038 0.5182969454095337
Co 4.052641406373527 4.410976398944757 1.3174756256199425
Co 3.8961010008188657 6.542267475744241 2.17147816504435
Co 7.783598116762528 5.7555857860711575 1.8209663964565228
Co 5.9171908756527865 7.43051141854458 1.9370286220390893
Co 6.663636138856786 3.4460758391255712 1.5501610194494395
Co 4.476978844479387 2.878445093412669 2.942370110360711
Co 3.509061140271168 8.781743834137682 2.5322092329520474
Co 9.362522485771363 6.165556916504035 3.6178185275123416
Co 5.79162593893942 5.060943646654944 2.8572880588391545
Co 3.277433595405352 4.856848409435013 3.6477990319585905
Co 2.6712766588586025 7.1431723321081435 4.099435424530626
Co 7.285596618642347 7.11559099209112 3.75686925087535
Co 8.019918908383179 4.167428010734315 3.4862032320191796
Co 6.609395546146722 2.346826734016035 3.638913079948884
Co 5.269717006972251 8.67642501433926 3.91101224303913
Co 5.135652022638546 3.8539488614662556 4.952223890342117
Co 4.7914412743095 1.5624802611626432 5.033246597205239
Co 2.8112893061551723 3.0689109107667134 4.970531687534427
Co 4.974195260752843 6.421349394612119 4.504913031017706
Co 1.5135886926586322 5.364419847668683 5.256510772471017
Co 7.068266233899142 0.772452882917628 5.202991625964345
Co 2.9683120395274933 9.465735071940458 4.701041008605964
Co 8.626309572299467 6.940919388078553 5.866347703002371
Co 6.9418144882514525 5.429763907855082 5.350165924234202
Co 9.285515907517869 4.686491617681459 5.360221016125989
Co 4.090466203539967 7.907672805682905 5.978752666001341
Co 9.230574960230172 2.2714409408762983 4.8046007783863125
Co 6.5620079559019375 8.017595682447503 5.884988766666589
Co 5.036726264901201 10.033506611835191 5.874658654922317
Co 3.5652982593133644 5.295804819118327 6.189751002448598
Co 1.8747719525687518 3.6798952643393794 7.062592470791333
Co 1.2055063534934793 9.844633026803926 6.082158064809283
Co 7.4156759864754385 3.098756008661253 5.799239075178885
Co 5.4523691456222885 6.4028497553727615 7.246378735734507
Co 1.7551373499758467 7.652339861787302 6.198671560917548
Co 5.840940372972741 4.135055568752955 7.194185248549598
Co 6.0295158786503915 1.682346493375028 7.1184987758019815
Co 3.1212275862099776 9.558859445753308 7.233389850422531
Co 9.622388742523682 3.2047274813087276 7.035689710953746
Co 8.503072635405927 1.2576684155139684 6.922516067492139
Co 8.101555002243705 5.17651995008662 7.427402380495649
Co 3.98446463601788 2.847194370803787 6.965070038204404
Co 1.6401435988990603 5.825209937092546 7.634417868228867
Co 5.3745463489823555 8.753943217306578 7.849515959400499
Co 7.407546796799356 7.3097730114447685 8.019412693349821
Co 3.353831087471519 7.272364413256574 8.083219309005063
Co 7.5840131695823745 3.0041476155255142 8.337719329578057
Co 3.9438175917647253 4.902791703082307 8.508762803918094
Co 5.327057391794021 2.9772256606846894 9.110687730629355
Co 6.417616973729968 5.146382104118891 9.155664117752398
Co 5.199422029973116 7.0592102607288 9.483146646228189
