55
Energy = -317.38817862 eV
Co 8.65743662974878 6.506081144533226 2.7513501898841737
Co 10.525373242955725 8.989906307081656 3.232670241648172
Co 8.500974494247224 8.401524503239274 3.9819407908483653
Co 12.143216637396835 7.572591725718047 4.005243343994541
Co 4.83460414067856 8.308078539027065 3.5687277026578705
Co 6.54138783227179 6.890627203297884 3.7406707101475187
Co 6.374907780632335 9.003305798040564 5.110701848463867
Co 8.167690731486545 5.499254471340185 4.781551250564411
Co 10.667126406201417 10.724143286110317 4.700064744633956
Co 10.228188940472942 6.547487515744038 4.445582811397836
Co 10.509555342677817 8.547678991743863 5.596568925211879
Co 6.96014122489808 10.24933777104265 7.004601917777556
Co 12.687693299338871 9.557399863326635 4.995884712796885
Co 8.211651501765612 3.35056714617013 5.492397853894986
Co 6.159003340385461 4.404292092548527 4.888375549751473
Co 8.13823643171888 8.098696633566611 6.188217912977842
Co 9.124989954691731 10.237111941397695 6.382189111683243
Co 4.422386251770607 7.463002083648746 5.6139084442872935
Co 9.432242986285177 6.167107284733805 6.730466371650825
Co 11.628568960331162 10.235172108246575 6.887670036138753
Co 4.961816585700597 4.757619537707948 6.951838126145579
Co 6.370461511226337 6.517741500003454 5.998650014716492
Co 11.569010276192486 5.658619937172379 6.221588251876009
Co 5.308731745948851 6.710948792089199 8.052160090291084
Co 3.130890345239613 6.534638500724195 7.268696555259508
Co 12.454671025025116 7.629172534565817 6.442268806808925
Co 4.897846304570253 8.948180779300726 7.37284433645063
Co 7.491998374299487 7.065060158819945 8.182708261757211
Co 4.95862055948185 11.17582390590484 7.22092374376415
Co 7.610156924298181 4.8428075722879 7.0892769717904685
Co 3.9313739845187126 5.193798314272291 9.088438054273162
Co 6.361063579557274 2.9633872300800004 6.819213845486845
Co 10.879640012461863 6.449616438476164 8.527567845022553
Co 11.903870045642618 8.480751125509805 8.4103374506436
Co 9.898659553153882 10.665011118345022 8.468540115792079
Co 12.061110699347129 10.547473702418683 9.216799114059251
Co 6.3174582857071195 4.53753976771825 8.946123781270625
Co 3.6376019358880987 7.999671522561969 9.095633504825134
Co 9.651345314405733 8.302310193743615 7.956165478366074
Co 8.777177096177425 5.333741871326095 9.100941657450496
Co 5.939370266721618 8.468520097468335 9.513068437268213
Co 5.904829153229678 10.706226603595194 9.208473297108243
Co 10.252800512139684 8.984740570447615 10.129773183813445
Co 8.000593814719373 9.556420538887155 9.01446223963408
Co 5.626070571486035 6.2426977415247284 10.293735353197006
Co 4.255774697811496 7.85858788966627 11.261642834313227
Co 8.447867025943362 7.441241351176489 10.238410786357514
Co 7.528457922064142 5.44176137559749 11.080920793091275
Co 5.589165015669484 9.856837160889153 11.359732450338102
Co 6.750169500654622 7.801506737648115 11.937226917567875
Co 5.2991315214035 6.156298578862325 12.54558013968151
Co 8.179351206053031 9.608153120406444 11.268551635483291
Co 3.521957969006619 9.753011506526116 12.260546984749013
Co 6.875304691750753 9.794969875050244 13.183326544629663
Co 4.953463980565962 8.474934076687369 13.388236064324143
