53
Energy = -316.03654922 eV
Co 3.48380756879455 3.982495599595472 0.03967513081683291
Co 4.299166244558287 2.1247695469578054 1.3720276342536526
Co 5.874432951892411 3.9024206421965686 0.6815489850757109
Co 2.361070497666685 5.546892982416379 1.4640657514542803
Co 4.6348475490508205 6.073821239827071 0.754071262835358
Co 2.9847580962943523 1.2370012656663303 3.2226526985407027
Co 5.175693026581419 0.25518789658458035 2.7376673589120912
Co 4.208726312609383 4.305691851697325 2.2659931809981573
Co 8.68368557514154 3.0629990851265183 1.9586624651778235
Co 6.708032133947525 2.065518780879497 2.0395896250547056
Co 0.17991719948592685 5.200651425723431 1.2934389587653503
Co 8.16447780745433 3.7587217676370233 1.28504538037329
Co 6.913396915424532 5.9683739542506276 1.296626559179591
Co 1.0468655267295432 6.940757170175717 2.9582897424037204
Co 3.3788020508821064 7.610146749985221 2.2459977941147424
Co 5.560303447242182 8.124187312506608 1.4372873842657234
Co 2.036429689920938 3.1216339287320327 1.7963006721065136
Co 5.0082434111050835 2.4272400107510794 3.6053650529319845
Co 6.678253274597888 4.342424143323877 2.932996533927587
Co 2.9675945349414254 5.853933467222048 3.757824932216946
Co 5.4151182468520815 6.47355390796349 3.0170462897141346
Co 2.8005167457820894 3.405065367581088 4.102194035890388
Co 6.836039791910462 1.1306988593634184 4.334547879245006
Co 0.820272773445027 4.617936025135546 3.432197157164656
Co 8.36152167319146 2.8881742345323564 3.6402001279626464
Co 6.880667977394776 5.790621453855417 4.888185759055463
Co 2.6743445170731532 7.9889957722294795 4.6312319155604
Co 4.856367418267057 4.645676247078951 4.46430271850675
Co 8.643948995514462 4.391495773667406 5.708795583956859
Co 4.84363426932323 8.58554814810352 3.811796829153808
Co 1.074166338695879 3.7055499513140715 5.709245070303714
Co 6.662632576744803 3.3185628685701247 5.199162526462604
Co 4.7080553358763515 6.8550589054227915 5.352635383841627
Co 0.8244263320399753 2.183926876275735 3.8404567873468407
Co 8.469689575557926 2.0366574521517267 5.9457542376007
Co 4.177702229876448 8.912388307081642 6.210086123816706
Co 4.538597480582053 0.6346282440842064 5.07349120181386
Co 1.1824651877089905 6.151902105465949 5.293484146625136
Co 7.478299485187391 5.925730588924489 7.195716835935815
Co 4.344983810411675 2.820716424220571 5.959765911061837
Co 3.075224233527188 4.934777689949464 6.021673199116527
Co 5.458637998849009 4.911273083321145 6.721454328295198
Co 2.3456623145317868 1.592763973653898 5.623881479705091
Co 6.173594766657362 1.5169045671945374 6.675949261164914
Co 5.166495464089578 7.051932122875972 7.6287499355197
Co 7.271758683873594 3.5696012022361234 7.473592507563217
Co 2.843442523576096 7.092978578618759 6.903103242476656
Co 3.900644990123995 1.0371130342949402 7.420639607287821
Co 1.3433253789907604 5.248383482855123 7.5845190122495
Co 2.6161478110358325 3.1507840277064054 7.529900766059181
Co 4.974306338502446 3.1066420868804303 8.205726728182562
Co 6.068635957267665 5.17571092699391 8.952475715657755
Co 3.7067693218406514 5.21717866292147 8.276710366077909
