55
Energy = -331.86184565 eV
Co 8.278094393490028 8.278094393490028 8.278094393490028
Co 8.278094393490028 9.524713490173534 10.293089493878025
Co 8.278094393490028 9.524713490173534 6.263099293102202
Co 8.278094393490028 7.03147529680687 10.293089493878025
Co 8.278094393490028 7.03147529680687 6.263099293102202
Co 9.524713490173534 10.293089493878025 8.278094393490028
Co 7.03147529680687 10.293089493878025 8.278094393490028
Co 9.524713490173534 6.263099293102202 8.278094393490028
Co 7.03147529680687 6.263099293102202 8.278094393490028
Co 10.293089493878025 8.278094393490028 9.524713490173534
Co 10.293089493878025 8.278094393490028 7.03147529680687
Co 6.263099293102202 8.278094393490028 9.524713490173534
Co 6.263099293102202 8.278094393490028 7.03147529680687
Co 4.283126817227139 8.278094393490028 5.809161031536961
Co 8.278094393490028 10.747027051123345 12.273061969753089
Co 8.278094393490028 10.747027051123345 4.283126817227139
Co 8.278094393490028 5.809161031536961 12.273061969753089
Co 8.278094393490028 5.809161031536961 4.283126817227139
Co 10.747027051123345 12.273061969753089 8.278094393490028
Co 5.809161031536961 12.273061969753089 8.278094393490028
Co 10.747027051123345 4.283126817227139 8.278094393490028
Co 5.809161031536961 4.283126817227139 8.278094393490028
Co 12.273061969753089 8.278094393490028 10.747027051123345
Co 12.273061969753089 8.278094393490028 5.809161031536961
Co 4.283126817227139 8.278094393490028 10.747027051123345
Co 8.278094393490028 12.303672237480717 8.278094393490028
Co 8.278094393490028 4.252515845179584 8.278094393490028
Co 4.252515845179584 8.278094393490028 8.278094393490028
Co 12.303672237480717 8.278094393490028 8.278094393490028
Co 8.278094393490028 8.278094393490028 4.252515845179584
Co 8.278094393490028 8.278094393490028 12.303672237480717
Co 9.522145904742302 5.021005338924713 10.291159765428764
Co 7.034042177917999 5.021005338924713 10.291159765428764
Co 9.522145904742302 5.021005338924713 6.265029021551467
Co 7.034042177917999 5.021005338924713 6.265029021551467
Co 11.535183448055514 6.265029021551467 7.034042177917999
Co 11.535183448055514 6.265029021551467 9.522145904742302
Co 5.021005338924713 6.265029021551467 7.034042177917999
Co 5.021005338924713 6.265029021551467 9.522145904742302
Co 9.522145904742302 11.535183448055514 6.265029021551467
Co 9.522145904742302 11.535183448055514 10.291159765428764
Co 7.034042177917999 11.535183448055514 6.265029021551467
Co 7.034042177917999 11.535183448055514 10.291159765428764
Co 6.265029021551467 9.522145904742302 5.021005338924713
Co 10.291159765428764 9.522145904742302 5.021005338924713
Co 6.265029021551467 7.034042177917999 5.021005338924713
Co 10.291159765428764 7.034042177917999 5.021005338924713
Co 5.021005338924713 10.291159765428764 9.522145904742302
Co 5.021005338924713 10.291159765428764 7.034042177917999
Co 6.265029021551467 7.034042177917999 11.535183448055514
Co 10.291159765428764 7.034042177917999 11.535183448055514
Co 10.291159765428764 9.522145904742302 11.535183448055514
Co 6.265029021551467 9.522145904742302 11.535183448055514
Co 11.535183448055514 10.291159765428764 7.034042177917999
Co 11.535183448055514 10.291159765428764 9.522145904742302
