5
Energy = -21.66583295 eV
Co 6.068247903159017 6.059353873234003 7.819628182299277
Co 7.627676563563265 4.710060721716174 7.138937955642409
Co 6.338293121817384 5.60484328274201 5.617850084072706
Co 5.129627341821808 7.400757066915418 6.192483540130895
Co 5.85636394959859 7.134652216892554 4.1881638716493965
