51
Energy = -301.50718093 eV
Co 3.3214125780797517 4.420961423919113 3.222100521540014
Co 1.9512977489977044 4.671510557478193 5.186123475539246
Co 2.180835678810959 2.623755363657813 4.160843401361045
Co 4.130396361563768 5.678772793916132 1.4639725426391224
Co 3.8837062913647067 3.139970333781317 1.4303048976952664
Co 1.7805506129414677 7.09024360206363 5.643557724769968
Co 3.3823528721643297 1.5187267379071145 5.7360798894808855
Co 2.4709586684717717 6.600683838044816 3.2630924674334096
Co 4.3395618451312306 2.0327997993868756 3.4309588459686755
Co 2.684680297262916 3.343278746928788 7.027593217935356
Co 2.8279794089515446 5.681004260156316 7.255684350010281
Co 4.31366489883848 3.673922416215749 5.289971605493824
Co 6.388027370182333 6.465272473442291 1.4802818849272323
Co 3.452171036016056 8.497974571616522 4.551846961694197
Co 5.95560442207006 4.139359305133123 1.5194058157359136
Co 4.167637847715988 4.275136233501833 8.741347488598462
Co 6.7544245365954625 0.7497998202967199 3.444281683536401
Co 2.4128396892221664 8.14914238722646 8.399443677157528
Co 5.6823184884895115 1.4500175211635449 5.386946488470005
Co 5.929088947685385 1.8694443315226985 1.6970713424567272
Co 2.0496734630110445 9.264751814837624 6.377456355575782
Co 4.868596291030765 2.5118670554498914 7.352629593521702
Co 7.273565553218839 5.516888232746847 5.080456193121727
Co 5.699702472801972 9.300672745425617 4.158791527649618
Co 3.9302896397243003 7.78147197922935 6.71720748573155
Co 9.543681865456012 5.481645340129441 6.140082946925938
Co 8.002833378125056 7.548003359689627 5.953298507968742
Co 7.681355156105144 5.532327028114694 7.438396681645436
Co 9.179424659990929 6.409075714199287 4.054257190792904
Co 8.857170668753643 3.8765872465632842 4.562814688085615
Co 6.2941399789172445 9.279661217570776 6.463052982022575
Co 6.607207805638258 3.628509514673104 8.433691540406802
Co 5.7438679150136975 7.3150932076388315 5.293683703544969
Co 8.739799508545145 3.3780634186621246 6.997565415956702
Co 6.174105599291538 5.65597090967098 9.37277359771216
Co 6.269994236505791 7.36860135752365 7.716688666242262
Co 5.270445001099896 5.319542320776199 6.9879999701384765
Co 7.154723286910036 7.405582194872957 3.4794320172585103
Co 4.167640210944601 10.10378854016997 6.241458922097508
Co 7.82303414248399 4.994140387885451 2.7322656946841057
Co 4.209408312812978 6.690887788504431 8.84695151650827
Co 8.05602157382397 1.8168782743778384 5.041422085642469
Co 4.669561186874476 9.116149730692825 8.41434672691592
Co 7.15276685989147 1.5449505203311318 7.258149977149004
Co 8.170397101942532 2.578766001260545 2.559612268708155
Co 2.83911120427954 10.445079347059744 8.185629936377703
Co 6.664352380846239 3.5141391796959245 6.09448584726272
Co 6.400913780252016 3.1887659651666915 3.7635089108758972
Co 4.685730280913877 7.449964827055651 2.940829340632971
Co 3.809127399392001 6.051754226902876 5.034230161936471
Co 5.516314484608962 5.373109035527634 3.490386264227111
