55
Energy = -331.93689376 eV
Co 6.002490989667713 6.002490989667713 6.002490989667713
Co 6.002490989667713 7.249220830130329 8.019628391150498
Co 6.002490989667713 7.249220830130329 3.98535458818524
Co 6.002490989667713 4.755760149205359 8.019628391150498
Co 6.002490989667713 4.755760149205359 3.98535458818524
Co 7.249220830130329 8.019628391150498 6.002490989667713
Co 4.755760149205359 8.019628391150498 6.002490989667713
Co 7.249220830130329 3.98535458818524 6.002490989667713
Co 4.755760149205359 3.98535458818524 6.002490989667713
Co 8.019628391150498 6.002490989667713 7.249220830130329
Co 8.019628391150498 6.002490989667713 4.755760149205359
Co 3.98535458818524 6.002490989667713 7.249220830130329
Co 3.98535458818524 6.002490989667713 4.755760149205359
Co 2.007587713409971 6.002490989667713 3.534600287554866
Co 6.002490989667713 8.470381691780704 9.997393265925714
Co 6.002490989667713 8.470381691780704 2.007587713409971
Co 6.002490989667713 3.534600287554866 9.997393265925714
Co 6.002490989667713 3.534600287554866 2.007587713409971
Co 8.470381691780704 9.997393265925714 6.002490989667713
Co 3.534600287554866 9.997393265925714 6.002490989667713
Co 8.470381691780704 2.007587713409971 6.002490989667713
Co 3.534600287554866 2.007587713409971 6.002490989667713
Co 9.997393265925714 6.002490989667713 8.470381691780704
Co 9.997393265925714 6.002490989667713 3.534600287554866
Co 2.007587713409971 6.002490989667713 8.470381691780704
Co 6.002490989667713 10.032402054545466 6.002490989667713
Co 6.002490989667713 1.972578924790218 6.002490989667713
Co 1.972578924790218 6.002490989667713 6.002490989667713
Co 10.032402054545466 6.002490989667713 6.002490989667713
Co 6.002490989667713 6.002490989667713 1.972578924790218
Co 6.002490989667713 6.002490989667713 10.032402054545466
Co 7.247898670389028 2.7422786672855897 8.016899529769105
Co 4.757083308946681 2.7422786672855897 8.016899529769105
Co 7.247898670389028 2.7422786672855897 3.988082449566319
Co 4.757083308946681 2.7422786672855897 3.988082449566319
Co 9.262703312050123 3.988082449566319 4.757083308946681
Co 9.262703312050123 3.988082449566319 7.247898670389028
Co 2.7422786672855897 3.988082449566319 4.757083308946681
Co 2.7422786672855897 3.988082449566319 7.247898670389028
Co 7.247898670389028 9.262703312050123 3.988082449566319
Co 7.247898670389028 9.262703312050123 8.016899529769105
Co 4.757083308946681 9.262703312050123 3.988082449566319
Co 4.757083308946681 9.262703312050123 8.016899529769105
Co 3.988082449566319 7.247898670389028 2.7422786672855897
Co 8.016899529769105 7.247898670389028 2.7422786672855897
Co 3.988082449566319 4.757083308946681 2.7422786672855897
Co 8.016899529769105 4.757083308946681 2.7422786672855897
Co 2.7422786672855897 8.016899529769105 7.247898670389028
Co 2.7422786672855897 8.016899529769105 4.757083308946681
Co 3.988082449566319 4.757083308946681 9.262703312050123
Co 8.016899529769105 4.757083308946681 9.262703312050123
Co 8.016899529769105 7.247898670389028 9.262703312050123
Co 3.988082449566319 7.247898670389028 9.262703312050123
Co 9.262703312050123 8.016899529769105 4.757083308946681
Co 9.262703312050123 8.016899529769105 7.247898670389028
