53
Energy = -313.23310418 eV
Co 4.437987821196481 4.0413216954846956 1.0891465400698332
Co 6.4097136066951865 3.1039428091240504 1.8530251631384342
Co 4.385027542773155 1.9300158876609859 2.341304653291271
Co 3.8153237828953643 5.883303016980529 2.350235916300649
Co 2.5978122654017866 3.7880627612669144 2.6616747876698397
Co 6.461982447346629 0.7855115179268177 2.464990555493667
Co 6.2208869687013495 5.488406394175756 2.326787486741312
Co 8.468304260086828 1.9487990589111437 2.65188810087873
Co 5.46374244063897 7.50214930614765 3.245006726823575
Co 8.157442935538647 4.2986369724610745 2.9518766312076328
Co 3.096465514378067 7.874139566154309 3.5124308173085157
Co 4.676401584784096 9.806900928919651 3.720560754961691
Co 7.760415696959746 6.765821155098831 3.839173030770013
Co 4.772823397158178 3.9637979528030183 3.478581430993177
Co 1.9171457674523602 5.753590979976588 3.8230560496926
Co 5.149253435662562 0.7993546733739416 4.390259542846405
Co 6.659931457828758 2.552401658747313 4.097912572700911
Co 3.0650691397659644 2.1280249178399555 4.253180508617677
Co 6.840697813431495 8.920546333126978 4.470092732873746
Co 0.9951837872825948 3.614567578723225 4.347779473792694
Co 4.217002997717065 6.125437281769904 4.679828717088525
Co 7.8185155023196495 0.6041347584853294 4.560367933819289
Co 6.61262908603215 4.9373783741435195 4.636691523302763
Co 8.896073907321094 2.831814505872396 4.827712207508569
Co 9.114132435284423 5.124444736716427 4.892235245962766
Co 3.9278641649651753 11.6422497659254 4.884096712098972
Co 2.5429229732424123 9.750843714624972 4.9004930224409815
Co 3.0490484580231274 4.205472029963594 5.257572680266404
Co 6.210053941760604 7.041333674105425 5.6542676959616305
Co 4.324192469777774 8.505936029361559 5.548707263525688
Co 5.692999468184122 10.384636017323105 5.844849900683571
Co 2.1868478049907227 7.239203963016749 5.63849078215943
Co 7.1459286449315895 3.288602331440436 6.37447537512341
Co 4.77096819583687 2.6674776514920353 5.7383718404543504
Co 3.6184306304514124 10.47974338635912 6.835361812972193
Co 7.262987138630903 8.682341211941104 6.814728597963848
Co 5.364745310299403 4.844791476248112 6.625810772771963
Co 1.2628127419165474 5.200103276444409 6.189332695445091
Co 7.863253486430026 5.758370959006632 6.703030140868671
Co 4.056779275263098 6.63565891791309 7.072835961348438
Co 8.715635980537133 1.427094360487237 6.619815885719826
Co 9.206692570965284 3.8604718099070836 7.074249659974826
Co 6.405383062665834 1.1058836217685126 6.419949559307613
Co 2.7091023636515064 8.539175836754206 7.541554735541309
Co 5.1359883716328545 8.803218566827862 7.726952850333878
Co 3.22537848568726 4.046523716475059 7.491756305534521
Co 6.247931660310813 6.786461475030616 8.097572946977381
Co 6.989461348021014 4.483523979260907 8.457312786389288
Co 2.1794265769386754 6.062944840674573 8.13931892696626
Co 5.334391091369506 2.8723656766900008 8.011114479501165
Co 7.623387869412961 2.225992151830331 8.43748863247965
Co 4.711360271593864 5.171169594975438 8.890927827244106
Co 3.9379937616230034 7.427838856028278 9.255694759857365
