52
Energy = -308.0092109 eV
Co 7.07756654572083 7.462093874039137 2.4991588281095165
Co 4.986375646111326 6.660532962531982 1.1086145999198591
Co 5.044539542924394 8.602720004149555 2.3652830411435892
Co 4.8054544307559945 4.257822954197707 1.7134288023977664
Co 2.531346044952886 3.417316179911961 1.8375912426982441
Co 6.669218863678929 2.6351019089327488 2.2341920305567817
Co 6.788007894961762 5.277786916273323 2.0407579671888447
Co 4.3479400659535345 2.2826509099264753 2.8440024693314094
Co 2.964489422428951 5.781882202285522 2.010337853603557
Co 9.018572297598572 6.3533438258424395 3.4400172377632576
Co 6.864142385320972 9.882273348693126 2.9501209269345083
Co 2.9651994382016817 7.97717606445412 3.0151534208233843
Co 2.5663223010733667 2.2194264525303664 4.405563272622047
Co 8.331366165480635 4.101232979337894 3.2082849773525397
Co 6.127335488394547 8.257657916793509 4.554871555235032
Co 5.809247581031465 1.425306941780141 4.353875343980852
Co 4.83161138160541 6.3929938252879355 3.4087144846975805
Co 4.426325458583988 9.84570580964018 4.271448751716911
Co 1.2251509957114366 4.207831319788308 3.538689573437275
Co 8.4198750293655 8.571074500287459 4.082527763637195
Co 3.54406127155075 4.290869618542174 3.765010451827762
Co 5.912870937736638 3.9309149920400452 3.907412302492974
Co 7.745100093518728 2.571342515479946 4.764767869178381
Co 4.469207816998139 2.9970963447204757 5.58621870840174
Co 2.3527095984351174 6.180549070642492 4.366875414361006
Co 6.995389738382466 5.943483538249888 4.4483955540013
Co 2.1342002083932723 4.220419917740023 5.676924343841478
Co 6.495418073766615 10.601549678271413 5.068248883562334
Co 3.788494049647716 7.824533220425329 5.254575293920284
Co 8.810884649790282 4.649226638234636 5.429118162962312
Co 5.2370725207563025 9.169738902321628 6.518838770015126
Co 7.645768949767512 8.989463885143746 6.2848583656975086
Co 4.156343250907393 0.7428199729477613 6.006551989138973
Co 4.613116276224509 5.604192955219438 5.707965325560271
Co 8.745056734610234 6.901649305078207 5.794576748605259
Co 2.4534717911266624 2.2066087540739177 6.828481100389962
Co 6.56601687982443 4.211340956837521 6.231583091716423
Co 6.405463448814468 1.8483419355901323 6.5920409310327175
Co 6.523970377689344 6.956349818390259 6.604889234879636
Co 3.7947854857801024 4.207062103119415 7.510270309904249
Co 1.55982425952004 4.433374509397173 7.977137036699838
Co 2.524373951925413 6.26244229568242 6.76079696832918
Co 8.51303820665261 2.9583427303776197 7.010846883780249
Co 4.3685438023934 7.296845164354854 7.560604820596556
Co 8.044609105147776 5.354395634627406 7.577802421965414
Co 3.0492724641507203 0.5210188688750989 8.169074480621095
Co 5.655395738094517 5.447352235667142 8.206079572974485
Co 3.3020661952922272 5.789317478687521 9.070139834609309
Co 4.647896489886693 2.077685557485109 8.05587034033673
Co 2.6833584109787396 2.7841251095488175 9.128868251495046
Co 6.668551099300585 3.3866597263743903 8.432975102209175
Co 4.654360806946113 3.889735333035649 9.680346955609151
