50
Energy = -294.79688174 eV
Co 2.349917897871755 6.614548294823515 2.725007580935799
Co 4.530167204118986 4.168813237967997 7.42795213374868
Co 8.867543160102677 3.0544219632558924 5.9782628024716935
Co 8.971856070585293 2.9606959829386854 3.192457827013945
Co 5.070532380430579 5.758667495025779 9.20543937841774
Co 3.0638283704240514 5.881503381693632 6.462109447431993
Co 6.871940150693358 2.1028710655011156 7.306202016216438
Co 7.943573236298117 8.674965061072868 4.664141725417461
Co 7.358476541255479 2.0941068782818504 4.694223108777556
Co 6.392026316032031 3.826825170845145 8.908000222503079
Co 3.8312171401805166 2.847302538937762 3.70293361789255
Co 8.84754343442781 5.383523996678612 6.564389548417313
Co 3.525205625575834 8.27025226032211 6.0547971623136645
Co 7.91722196137922 7.076224263100304 2.893164366593077
Co 6.061749930953139 3.3261231912889238 3.2667471222979616
Co 5.279783002054621 2.4044225953690175 5.562112188464587
Co 4.187305161309801 6.734604498860373 4.340865655365167
Co 2.8283783445745563 5.244912562511634 8.670178275223934
Co 10.219177683559348 4.443304694512811 4.762563678855892
Co 2.6473394898115643 8.593877578198976 1.4704314995438421
Co 3.7341326692852275 7.447336621170042 8.23783432033717
Co 3.036652025019304 8.687901223109565 3.7309169420464854
Co 1.3123911419404153 4.497552572234584 6.572815954618713
Co 7.2500571376657215 5.931052397828135 8.193993098755996
Co 8.06753891205444 7.647367255144874 6.8558578216624655
Co 4.567128364917891 9.616020669466659 7.537290095853845
Co 8.540202203576401 3.682888537052451 8.152455225129879
Co 2.468933235304281 4.828167522268555 4.394517843258247
Co 3.9973199982590835 4.910853656628135 2.627357824768231
Co 4.220582184092395 3.3257400329690174 9.578371043382377
Co 4.504742188075395 7.330184754367811 2.028445357084266
Co 4.4356307539062625 1.8529852430479117 7.713494608687382
Co 6.037759462058549 8.594145770699336 6.148821600775799
Co 5.8900567862071895 8.335560070882407 3.64016446458572
Co 9.236261725815263 6.702863371400773 4.748755746107435
Co 5.921905878876987 1.650605218845386 9.430094001221596
Co 7.868179495818421 4.602004751127982 4.321498054583739
Co 4.9331237579537826 4.641142430357683 4.95223591009477
Co 5.314055351979308 6.393084910919536 6.851269801998547
Co 4.674584454273817 9.920866320846743 4.82869851462124
Co 9.516154497968826 5.33001467606561 2.7650924837974475
Co 1.7487077868081535 7.024865732765465 4.946319248676261
Co 2.3740403083780004 3.033943537392103 8.109549746895294
Co 6.045077331497482 7.988441918563159 8.455863509058096
Co 4.544796556927994 9.696565708314044 2.3363032244313593
Co 6.755095814302539 4.309858375810741 6.46147198166497
Co 6.079059783819726 5.764343317355719 2.9623095928329217
Co 3.0552077582659485 3.1516097752709564 5.9063148526403895
Co 6.83901965057943 6.5647534594864805 5.102612721719962
Co 7.607529988483932 4.416023763172553 1.8980053565575803
