54
Energy = -321.90211716 eV
Co 3.3934277131108255 4.661830079968366 8.974136540938815
Co 5.848596634644577 4.958248974638317 0.47593436899441804
Co 5.615734107481301 2.729186747135308 0.9509710823625117
Co 4.405387686768872 6.637787952489898 1.1096338341250755
Co 1.198532055125883 1.455743723866854 1.2121336551420285
Co 3.4213097765441334 2.1069600768118364 1.3353786676905786
Co 7.247957713147795 6.634185187702361 1.3745745852135836
Co 1.6965876626272585 3.739375250671514 1.4080297259302061
Co 2.188655119624935 6.066193447143301 1.7158588744450662
Co 4.054438362357057 4.3184453268913545 2.0516437093770996
Co 3.1709572297321693 8.338363685920918 2.0521569393911743
Co 7.415404861570493 1.6723642556034282 2.1696235804980453
Co 7.579725513630026 4.117480443118409 1.8536091797052483
Co 5.073558924425519 0.9574143631878822 2.656718528286377
Co 5.974331064880841 5.532370652821192 2.8368033670694937
Co 5.646030112790299 7.866800920987143 2.733512331594956
Co 2.664266525525902 0.49686418125191567 2.9220140588337133
Co 8.984615846312368 4.362158207329617 2.9596848177896984
Co 3.7483744269298143 6.644335377596527 3.4113873770314425
Co 1.1599001465888286 2.3568371267840877 3.2834077105289925
Co 5.917194739289626 3.1041221280893594 3.2457760024473967
Co 2.1586533208450303 4.610344470258173 3.6330472214954947
Co 1.9792554063246766 7.731534928977546 4.238715774173538
Co 3.5434585902957703 2.4931076261118004 3.688587058136741
Co 8.166843784714256 5.605217473916424 3.6583690574330343
Co 8.161358333924401 3.138098770201367 4.014314013134162
Co 4.437206221017529 4.611491178115296 4.375121933236061
Co 6.685599326170321 1.2136415697115346 4.471473963363009
Co 4.294029624756832 0.5787934438857806 4.901004717365302
Co 0.6062360337551843 5.885614802770257 4.823549605813287
Co 5.606596098136185 6.7646455504470895 4.871670164185854
Co 6.683957182550788 4.573168887549054 5.110101233398134
Co 2.065374136249464 1.3984956843680028 5.235587095533456
Co 0.6029083602563718 3.5586621218626635 5.221686409029765
Co 8.915343008585253 4.5886212342501915 5.829625938053336
Co 2.888934656660243 5.957200603437407 5.518195685213065
Co 5.1653867340498465 2.652929736676611 5.559871642958457
Co 6.281464822251783 8.607585255393735 5.957489113876279
Co 7.652018841181969 6.563194531279557 5.9672286016955445
Co 2.853227163248702 3.5416321435608653 5.821927497647243
Co 3.8972593876391146 7.9777848210148425 6.008460704533929
Co 7.4048047969691035 2.6650773807627752 6.30813538270547
Co 4.774886465938849 4.861461185972216 6.672300960119041
Co 1.5368670679244143 7.511924654772378 6.566656139749404
Co 5.891973077481576 0.7917140444686257 6.77277153184443
Co 1.3829988460955984 5.021450538128703 7.023384439732241
Co 3.6335499291619366 1.669983177304575 7.06554556000379
Co 7.030979172512629 4.810691476254432 7.449275419795565
Co 5.647089712113831 6.915401861936695 7.341112751277216
Co 1.3511317654998283 2.554285377604079 7.315397722015548
Co 3.320317571342125 6.351897303579627 7.788836508857149
Co 5.51091700491229 2.9605133182604817 7.8903176587057215
Co 3.2303794662508727 3.8822653241901017 8.129230282055163
Co 5.1701251335468035 5.121459011635241 8.974136540938815
