51
Energy = -301.0795917 eV
Co 9.699837428289275 6.622191828066672 2.8442132085330605
Co 10.317336414311827 6.766153096692598 5.624690062001512
Co 9.89011762195152 9.25495631781084 4.935302463874043
Co 9.619726495779624 3.9253460230115476 6.372804517019932
Co 8.960043378336325 5.218596795402289 4.600360713821293
Co 8.36335840156066 2.9781602116656414 4.288680112099847
Co 8.708484868596 9.055040421234132 2.891484531583336
Co 8.860811828747412 8.20058939832467 6.854591268350214
Co 8.079835949001204 4.813900078128579 2.5120393745079004
Co 8.45868461713658 7.527836943402519 4.515717723218293
Co 8.680979225748104 5.8685885685927275 7.127281736631254
Co 8.259029589778674 2.0653144669067065 6.536862945033582
Co 7.744554017166271 3.6927721182528255 8.131478877787579
Co 7.597719694790449 9.613215797362425 5.46239455376144
Co 6.243899923373151 3.6590673342976676 3.6770940061061403
Co 6.4557307637443655 8.650930946270835 3.7081288646447788
Co 6.457252883111127 5.587790915204586 8.00205863744126
Co 7.202448805736648 4.229517436180001 5.900338798496507
Co 6.593852894905674 6.010610908114941 4.01942554843622
Co 7.622806383437747 7.3664465182986225 8.783022880513638
Co 7.505303084026425 7.136441078480311 2.205484665605627
Co 6.244883845757637 2.034136286083603 5.429417951114397
Co 6.852348949839242 7.083311728755023 6.148170920034751
Co 5.78205546383745 5.093057911842351 1.8593518144216867
Co 6.5109499258844945 1.7287002416980626 7.987313857614775
Co 5.050565602320399 5.329132413278024 5.942842916974183
Co 6.537671220525554 9.002415342673256 7.50154521215657
Co 4.346758483526379 5.342509948573294 3.726402093406311
Co 5.002857175469001 7.1714798300259055 2.3604001470563887
Co 5.320061654453286 7.713498627444295 9.13048699593216
Co 5.146010332856293 3.2759846719072603 7.028232038577731
Co 5.599563496345772 3.6587478412355163 9.277336908156249
Co 5.193214956443932 9.54930300562178 5.722085871488263
Co 4.0597452071095645 3.4706167124779497 2.44653657621819
Co 4.201742808600597 3.2228497946885692 4.836223479195507
Co 4.627520388056304 7.5903897947489405 4.623303140254351
Co 5.608333524485364 5.745327618922822 10.238393745149958
Co 4.686799290457156 7.436735953500527 6.9666889729055175
Co 4.132373025689652 5.396107375833165 8.292437727813818
Co 3.0564313818178173 5.4930074237803 1.852325253429635
Co 2.798894856319562 6.229491242396272 5.791555871636552
Co 4.039187821010904 9.400627145243739 7.927380419318575
Co 2.869175958809399 4.0919452278513475 6.548491390945457
Co 2.651007532924794 6.991697914833748 3.6155993418836667
Co 3.3508922235188145 3.1198194932558603 8.639492299051566
Co 2.2843309220576318 4.4988743059716425 4.183518760912442
Co 2.9133914394952463 8.592936604668225 5.921889230369837
Co 3.4401291843928825 4.5727795739827615 10.397718240458662
Co 3.3260323197738613 6.847614437423188 9.993708258918517
Co 2.557011570034935 7.326897451480998 7.909439859908291
Co 1.8998777888873617 5.107026925917709 8.612049039510303
