52
Energy = -307.48060846 eV
Co 9.0211937432877 7.719078583362698 6.673710266923114
Co 8.064524491874009 9.042126881303743 8.302642717703629
Co 9.407527108746011 5.37816866375381 6.611818535114521
Co 8.3915094454905 6.558155970039509 8.666320119308182
Co 8.233798257133117 9.912921005559914 6.001648816061352
Co 9.112917907460172 8.233970744991431 4.451954061859367
Co 8.62242064502959 4.301770755974652 9.135562462816047
Co 6.14767299204648 9.689986423890756 7.135729457823528
Co 6.774785793467628 7.4137207427746805 7.2752783984366864
Co 7.577402491490572 6.32440012346423 5.26878835370574
Co 6.039261499253086 7.506753831584262 9.421422560489264
Co 7.708706767352167 9.882858112232915 3.5550604561918986
Co 9.461668363662797 5.891684954877758 4.187827824306244
Co 6.0015277758903975 10.707384670867205 4.928599284235976
Co 8.631022893915235 3.0433313802803985 7.226037480119649
Co 7.53147064558083 7.570702543873282 2.9172530021080743
Co 6.478284001229986 5.250582711736188 9.554732537849791
Co 6.664020631410833 8.504210107110131 5.067118170192556
Co 4.458545531604504 8.151080578128308 7.799303483718376
Co 6.5883327739528585 3.067760043530682 8.62040824235007
Co 5.620852723916613 6.646986442795325 3.697017263872042
Co 8.230853549487586 3.9309855439321986 5.1036357818588005
Co 7.225869606695742 4.914570592602183 7.288473239857343
Co 5.158107762187424 8.866242887447582 3.302198739103683
Co 7.360606097799931 5.07698896505262 3.1630170078648483
Co 5.047259289750591 6.937440617268759 5.8229610654130015
Co 5.948253285423774 4.61588879236834 5.311312107544005
Co 6.211139085228618 6.204518323402398 1.4239330241699497
Co 5.024134732691658 5.75120043898967 7.7333986815423605
Co 4.877726707688777 1.6292250497092073 8.604674614219897
Co 6.548027717167035 2.4412257594045994 6.1820442037338506
Co 3.8434226563171467 6.442980614559786 9.484493753864733
Co 4.317298041862952 9.142834537058132 5.576941166920048
Co 6.512011577443989 2.9432595145655283 3.680134004015386
Co 5.9894091190227945 3.920122180111248 1.414570356746191
Co 4.663505694423613 3.4767248163673585 7.124864339557393
Co 4.3741080807886785 4.073462343181129 9.352380626767836
Co 4.047458298984928 6.669810944545639 2.0240887878653906
Co 2.8185438614204026 6.998973492059796 6.583323340044386
Co 4.690819311790861 4.590307850035155 3.211771545569188
Co 3.348958349834923 7.4254857329502375 4.229238654358114
Co 3.6575531850092373 5.13039822667358 5.309073924758248
Co 2.8090455346574132 2.5582997322747896 8.290706403437152
Co 2.7641919531796098 4.950995386108814 7.716687543726329
Co 4.5346119021404485 2.6570765191579246 4.800209820244812
Co 3.9580469157740072 1.3142438850844975 6.5110537738808905
Co 3.663415943739172 4.374717217507507 1.223256532422573
Co 4.347216177651567 2.4295098916087903 2.420861740088791
Co 2.429053868702433 5.506384352987482 3.2106748042820494
Co 2.4566995208266103 3.2357889672872293 6.05464861171761
Co 1.4219493116435187 5.296183105845174 5.442873885991301
Co 2.5999496001487783 3.3643009438040727 3.7209215227298644
