51
Energy = -303.56117307 eV
Co 3.479498618973698 3.508787263991948 8.887932195970464
Co 3.75511739212572 5.6222522361625415 0.6721373846050057
Co 5.6961586344791995 4.129997222255434 0.5351984641565052
Co 1.7295339878795037 4.352364934484287 1.1645557596069362
Co 4.862754609337177 1.868159222963287 0.9388382115579368
Co 2.393284562116498 2.002641487034435 1.3279787201411208
Co 6.040905484541635 6.338952774658848 1.6069932144702663
Co 7.863347694398557 4.813881084077956 1.44894551487527
Co 2.000676918031209 6.604399961483125 2.2276873540249253
Co 3.8522515309608614 3.6920104741621858 1.9872013738510064
Co 0.041605096048932214 5.2876841602126845 2.6487584214873845
Co 7.0432748491964245 2.52909224648987 1.8374542420745557
Co 0.6690403167134357 2.9173102639476722 2.857142264687975
Co 6.285438764045999 0.3547758258724444 2.073531395706544
Co 3.7711861528525588 0.40273627554884184 2.3863483580365283
Co 4.148025972637601 6.01957533833133 2.931385653955117
Co 6.041367919256825 4.369138661679718 2.869964275668055
Co 2.1218580953437787 4.624398101953208 3.481473707288591
Co 5.181848293378092 1.9321974386882321 3.3519334941537497
Co 2.6998823549659914 2.043595163464989 3.6756287637112783
Co 7.545237382539179 6.085657692953082 3.5319546051047968
Co 3.1447598005537776 7.856277026709335 4.047957640235919
Co 1.1329852901646558 6.5196408207997845 4.5153079712382125
Co 8.174441284442661 3.722553799140504 3.676411677437561
Co 5.680670334273991 5.670225060839326 4.9276255367041415
Co 4.205014158803617 3.8998107849433143 4.276256112031543
Co 4.68336631704906 9.42672330767409 4.686178386048748
Co 7.372684917249019 1.4718250374785498 4.016453577415766
Co 7.135543650329777 7.4062819184915645 5.541177220934299
Co 2.3773767223078024 3.5362939024284166 5.69935562671796
Co 8.427189024017318 2.6356200309714177 5.876281891070468
Co 7.802352129883402 5.0497103864464234 5.733807212121297
Co 3.2582813821857646 5.8338277408181165 5.293126700296041
Co 5.685568839484534 7.678416605894107 3.6496448328359214
Co 4.248786514439211 1.891893916419326 5.625155453885568
Co 6.335107796456723 3.2889731870747574 5.082116383532564
Co 0.8015355989084486 1.966259741788683 5.092747420158045
Co 0.2687275028658214 4.265948414294482 4.898264887154775
Co 2.2865836797793455 7.710318494808722 6.287419469043143
Co 2.4185040524633465 1.7003284787902497 7.10816120622931
Co 4.735644364837655 7.5881050078176715 5.996259859644149
Co 4.5978262008852 4.211973688307496 6.60432328979469
Co 6.424636465369323 1.4151654374487301 6.409936976865228
Co 6.069741408534593 5.948651372706996 7.23822335558752
Co 6.711018874586677 3.56820400251409 7.4008716167383755
Co 0.5557214736013865 3.201083821869 7.132115979290739
Co 1.4201833180619985 5.487744224217116 6.725141399771037
Co 4.6539922591667295 2.275287810299953 7.915934271325638
Co 3.637406190232315 6.114368106162319 7.606780501986222
Co 4.981592317759415 4.497223715606116 8.887932195970466
Co 2.7531564814243006 3.8643493067649444 8.02793755220073
