6
Energy = -26.67927716 eV
Co 8.312388661374742 5.5352809137253125 5.632640972037299
Co 4.648651205766112 7.491320799116229 7.277798936546017
Co 4.39025695267611 5.919819871021188 5.822179361262497
Co 6.379176092032186 4.812878220726957 4.9918676264478306
Co 6.480081652067941 6.491001057970202 6.484964479165637
Co 4.339903112745273 4.300156814102213 4.341006301203215
