6
Energy = -29.09960241 eV
Co 9.521193993769936 9.212840902562041 8.223398498958508
Co 8.708477018218934 7.3358666864210145 9.206619643134015
Co 7.3086812902068345 9.04359933871629 8.68869790060504
Co 8.610646283259229 10.472661792381171 9.875526947564751
Co 10.013823358866217 8.763554381102784 10.39178403571488
Co 7.798799499160473 8.595047335994385 10.858929921397916
