6
Energy = -27.50719736 eV
Co 8.06137873280289 9.570243460659661 6.94098014660675
Co 7.770874917197699 8.004887243040736 8.342796120617551
Co 8.323319448699124 6.25999034308622 6.8487461229282545
Co 5.789038677912203 7.057647567578828 7.487417293927737
Co 7.164787135164021 5.7972264637686015 8.632284079423792
Co 7.1092866242981145 7.809051250401935 5.919221456717849
