6
Energy = -25.84656372 eV
Co 7.793629376692527 5.483654045639115 5.165659702784529
Co 7.4485670017706225 7.267248819661028 6.456713121490363
Co 7.196915489798912 5.178338068897001 7.323364251923284
Co 5.664506564339625 5.976087323347963 5.838677634603668
Co 4.004576200562354 5.275110964756271 4.599648554371943
Co 3.586828812997782 6.5206554737429485 6.320535425165977
