6
Energy = -27.11190703 eV
Co 7.028310425652515 5.3675808302881025 7.01011181546117
Co 6.976979319455776 3.8793049202065073 5.411534890248019
Co 5.111690223406098 7.534246086576349 4.31263719704837
Co 5.651167141451938 5.602804480466592 5.185687353213437
Co 5.811997022003619 7.55593896456326 6.382698684427532
Co 4.994014380296207 5.881742809098516 7.474869121048955
