6
Energy = -29.11652237 eV
Co 7.519752297283971 7.915868753461199 8.926504880955989
Co 7.92773947813818 8.859428801495582 7.184930587234979
Co 6.117544015920838 7.868521315681437 7.36648071561527
Co 7.112867190715074 6.180555649902022 7.855455774689138
Co 8.922581720657963 7.17158928874773 7.673353155952948
Co 7.519752297283971 7.124273190712027 6.113509885551591
