6
Energy = -26.248341 eV
Co 5.6219775655170645 8.546612284530818 5.22581691545375
Co 6.345880868314334 3.611944610722323 7.0698834921745695
Co 7.6051163667830854 5.354262767438079 7.368147473522534
Co 5.534189386213851 5.145838450042691 5.826155905183011
Co 6.601375526731949 6.938543295782002 6.229795480238392
Co 4.614107175563804 6.72544548060803 4.602847622551682
