6
Energy = -27.42009103 eV
Co 7.018340163381409 4.619306839365674 6.089728165426032
Co 6.95482889477725 6.611288136437565 7.010204056837682
Co 6.163304224708302 6.2034931575901195 4.800370379497465
Co 4.968484416051796 7.2587510528866375 6.414811141386845
Co 5.291441302898348 3.9882043005873964 4.8953085262671365
Co 3.9954656131195927 5.710821128069308 5.181442345521164
