7
Energy = -34.21141151 eV
Co 6.023993233707489 7.7306604240094545 5.2237312257277795
Co 4.305457217676191 6.243983138300197 5.509926806662889
Co 6.320753835759809 5.503720311851384 4.791431866655728
Co 7.321148496090494 6.506851270227986 6.657423504746052
Co 5.279979867610879 7.224018501777811 7.3291935919110385
Co 7.727766822630703 4.312515889159773 6.147313522482434
Co 5.636253243565326 4.9974090041891746 6.901878831437444
