7
Energy = -33.56123019 eV
Co 5.806662704885407 7.811267424751146 4.749535878352268
Co 5.078993683692564 6.619113589083599 6.440828278827532
Co 7.226092426637752 7.530783462754274 6.338749000724854
Co 7.380214437864704 5.312889597126328 6.265121772769243
Co 5.88239464830212 5.54173221934291 4.58406969996491
Co 6.168687233106607 5.489516605809231 8.070825285934
Co 5.204634975161611 4.366059424695867 6.390839292672319
