7
Energy = -31.30331144 eV
Co 7.925629780116112 6.166116526270257 8.694501300000002
Co 6.836188259514963 8.152763457883703 8.678089324014474
Co 5.746746738913817 6.166116526270257 8.694501300000002
Co 5.746746738913817 7.506259992759669 4.977875219029927
Co 6.836188259514963 6.836188259514963 6.836188259514963
Co 7.925629780116112 7.506259992759669 4.977875219029927
Co 6.836188259514963 5.519613061146221 4.994287195015454
