7
Energy = -33.78808659 eV
Co 5.319110622643697 3.841363227896646 5.419398166061665
Co 3.7367798194599793 4.755661249555947 4.083501812709855
Co 5.807856140725469 5.486865313257886 3.841953585086218
Co 6.854644876671901 5.483389573030725 6.0108216401544965
Co 4.498857798744618 6.021992225702072 5.821771161402361
Co 5.390977875646129 4.746618304053846 7.495637649646254
Co 6.092581811278905 7.364919051673701 5.027724930109973
