7
Energy = -33.04590614 eV
Co 6.815482367394523 5.179594753104187 7.132302138754828
Co 5.015879423091183 5.667430924842019 8.260108371923122
Co 6.082580157621561 4.215334033494883 4.988956274502551
Co 7.074556028204233 6.205751821790881 5.1170337901795495
Co 4.890719041476267 5.828574438642018 6.086980703058468
Co 5.324703435000369 7.390925821361094 4.4535012046367575
Co 4.6838417512778205 5.416976956921483 3.7737578475479556
