7
Energy = -32.70919305 eV
Co 5.845316877899705 7.635327273820413 9.67724467037785
Co 9.24422225864788 6.540433533182356 7.568260006267091
Co 7.510834092950279 7.945203035128578 8.240036182433752
Co 5.843267962927787 6.491378580945173 7.887238294122106
Co 9.459139528655154 8.666562841924561 7.155275967856842
Co 7.50991606131937 6.739776070338088 6.2423727143455245
Co 7.549498084833168 8.931975157545974 6.138773152752922
