7
Energy = -33.98679142 eV
Co 5.709134128351294 5.342886596801802 6.888479990460802
Co 7.496256053464177 5.668453983664497 8.280117085562587
Co 7.256032120777841 8.607240716724881 6.041075538127433
Co 7.624646237615055 6.330746052986011 6.0727892413464915
Co 8.44790269140246 7.677221397979994 7.75773556716355
Co 6.150794258781466 7.452543835718159 7.703120436106618
Co 5.557281295863864 7.162953996394128 5.498728721501632
