7
Energy = -32.8985731 eV
Co 7.416509770673579 9.10733231568211 9.13927522869418
Co 9.210044222738077 9.415545797044029 7.844016509922069
Co 7.278822678956862 6.552164656701675 6.213317146450156
Co 7.770818019091061 6.984503061787667 8.350684838588908
Co 7.36990196778338 8.733451509049399 6.780662600726119
Co 9.340745701209714 7.4056963773621325 6.854176709641095
Co 7.156347589284568 7.35683664188501 10.422830044202211
