7
Energy = -34.05048033 eV
Co 4.657340381746449 6.70433190836595 4.766767657594406
Co 5.936613777387718 7.854374303271487 6.099610649657743
Co 7.626387561132918 6.433895527879022 5.648953635970533
Co 5.9573614497374745 5.0017445394194615 5.161827847351588
Co 7.044771444526426 6.910569293409709 7.824108072976237
Co 5.08599808611392 5.952250360714491 7.0598740896764065
Co 7.057187178963746 4.745198522667869 7.1114528500416325
