8
Energy = -39.11685532 eV
Co 4.409314306054307 6.003949815505371 5.2481304254504675
Co 6.132949506759564 7.519947445832315 5.542728120999458
Co 5.307381627552829 7.138942664459879 3.4816332381674946
Co 5.24400754609726 6.356057531902239 7.3352211727974375
Co 7.428892808666044 5.814218803173114 6.585519362359662
Co 5.706155670144138 4.307024107694083 6.285995345573648
Co 6.586966912877163 5.479172583721459 4.491186290135907
Co 6.512659388486485 4.709014814349327 8.35791381115372
