8
Energy = -38.67591527 eV
Co 6.2672006651803605 5.24396319588638 4.9357588975295705
Co 6.290189410632144 4.069008474586873 7.011279059598766
Co 8.103947934060551 5.204326527319279 6.268296813691779
Co 4.521990682690851 5.399552653147218 6.403028482533061
Co 7.6778879863681215 7.154656458237232 5.201756860579846
Co 3.2564662774929145 7.067254100216219 5.743857877881195
Co 6.415344141086922 6.455244840843181 7.093560753040898
Co 5.383354037771451 7.322374885047366 5.258842390428625
