8
Energy = -39.52674197 eV
Co 4.689460439903286 7.153099127311592 6.977342528876952
Co 6.4310092371144005 5.741870033705495 6.864611527205502
Co 4.30170614562696 5.159089259704145 5.953022590594223
Co 5.489096693805226 6.8967984492266785 4.880352693208323
Co 5.781072816107535 3.6112828091290963 6.754112907814393
Co 7.672593388194793 6.389632194577583 5.108405878837395
Co 4.370363158114814 5.376324211663661 3.673876537665411
Co 6.243797202749968 4.6510029962987325 4.767374417414787
