8
Energy = -37.65690706 eV
Co 6.099382570929956 7.449017373891511 6.160563943167871
Co 8.31056544974125 8.337351343535362 6.123952918098028
Co 9.624767064647981 6.986174327720632 5.003634848197948
Co 7.96658590888138 6.072710980809628 6.16095403498603
Co 7.5060319184859745 7.294291885315387 8.05089528954646
Co 5.955134460345456 5.585065140518257 7.37535311798253
Co 5.222206153008858 7.500060915100488 8.375430898800506
Co 6.6005049929537964 7.980874368692466 9.967295761267588
