8
Energy = -38.47302715 eV
Co 6.2196464686559185 6.355420002678219 4.332540324818725
Co 7.8832936110383525 6.520340190013518 6.169852517883976
Co 6.631657636661372 4.752072615448998 5.787989238455674
Co 6.59735186877599 8.25324219234337 5.5086253912536645
Co 5.557876578318545 3.372573241163062 7.159500155270931
Co 5.077464982856129 5.544457409382776 7.16922194340852
Co 4.636546277851961 7.141274698757302 5.71340169890642
Co 6.3017610442345555 7.332278625054899 7.548348737926405
