8
Energy = -39.93801633 eV
Co 8.864072401079056 8.014274301241308 7.244872154416352
Co 7.052546756419083 8.070688563331963 7.038369716709141
Co 7.242075296103033 6.961695860103519 8.245175249208852
Co 7.761371451155079 6.537701902317653 6.670362534955391
Co 7.730121022465785 9.825776339824722 8.071825597769658
Co 9.077088605651827 6.513729321090202 8.071825597769658
Co 8.316235591441794 8.01872217178131 8.982233341168817
Co 6.574508281776481 8.675430946401576 8.745727808002126
