8
Energy = -38.35408351 eV
Co 7.0756582533234145 4.918749033596582 4.199221353933378
Co 7.735825528056644 6.22891870379146 5.773188805212726
Co 5.012722661953496 4.3173988199044 4.065699600150674
Co 5.8945854548228125 4.729237150939568 6.32412337641517
Co 6.332506037458735 6.965097994479637 7.2313919414158105
Co 3.614707166020608 5.048232892110338 5.531250636406753
Co 5.45145346821016 6.5562028842558275 4.976320252001727
Co 4.265135821320158 6.378007377670589 7.093997765669089
