8
Energy = -39.74984522 eV
Co 6.691532458463195 8.295650309058015 9.6383311787308
Co 9.45294891526804 7.773754101914236 8.0015638113594
Co 10.267268157878505 9.855889797420005 8.34164419162968
Co 8.965581531274763 8.470493964339715 10.106612434366502
Co 9.041487169170248 9.36134130516307 6.43787911481693
Co 8.011857669563833 9.666978292289185 8.431234811827917
Co 8.041581593199393 6.519154985356718 9.231312434311459
Co 7.252586709996492 7.77140801305766 7.438622218356348
