8
Energy = -39.12541215 eV
Co 5.0232852953976 6.1844733459100825 6.358926702034564
Co 3.4251740759083846 6.854437581355939 4.994987265197192
Co 6.744206733337413 4.670102830000615 5.491995002184003
Co 6.629047223011105 4.044049479486396 3.3791607964946264
Co 4.666743732008417 3.9750932511362036 6.050991106731977
Co 4.6579508261087454 3.2052731629652707 3.9218728267678302
Co 2.944272640712014 4.710400263392469 4.779816454038797
Co 5.036169858124424 5.483020470360605 4.149100231158592
