9
Energy = -44.77151234 eV
Co 10.826324734582718 7.2512378810970235 8.491704341844656
Co 9.707487917662153 8.989759489423369 9.174861957225573
Co 9.540405118964824 8.317335946609445 6.885967432657482
Co 7.642511860771189 9.183966110433182 7.914948085899727
Co 7.406979802872571 7.407452176949114 6.471332650787231
Co 8.515882225051001 7.019482974696797 8.481140962356891
Co 7.6055376076476735 8.400274140188461 10.041817649732684
Co 6.128491321220761 7.407791958132441 8.492620790217625
Co 5.595428868711042 8.780958370082022 6.8891193563716255
