9
Energy = -43.54248935 eV
Co 8.479832725235504 5.954522416893705 6.424566393580908
Co 7.178555313951553 5.099389421383642 8.045668287859707
Co 6.719500602483321 7.031199725738502 5.594916619971833
Co 6.654849202350374 4.657037760923579 5.838772675979519
Co 5.395499566205217 3.6453459964682913 4.351450131189878
Co 5.474119300313148 6.242658229803686 7.185479659432328
Co 4.845672906560725 5.68845488987963 4.950815443297522
Co 4.969855057602292 7.970415446818646 4.592644559412734
Co 3.6915952705619883 7.206202555085263 6.271264851191808
