9
Energy = -44.98526308 eV
Co 7.398966738103039 5.531379243002963 6.528517418669934
Co 6.121386571003794 6.706936650655692 5.0211904318590745
Co 7.560265487406814 4.947066748475618 4.33158597239367
Co 6.040156629353868 7.389896761239759 7.204109738587625
Co 6.558812466525876 3.5435337430212117 5.841324376575039
Co 5.108914315683974 5.259347542961684 6.566858355393169
Co 3.8705978323991443 7.24763629246027 7.007679879403594
Co 5.297435505809788 4.676025678400659 4.340546645541838
Co 3.8405636444141464 6.495276530482585 4.955286372276888
