9
Energy = -44.60990036 eV
Co 9.43847819195455 9.601907665540944 6.1214526366962385
Co 8.159002335369049 7.879920284869568 5.5739819957300005
Co 6.496915029440646 5.873084665193503 5.91553257787261
Co 6.604323143425643 7.018085793691035 8.94935944678915
Co 8.149481061954813 6.44435696504013 7.376368857525965
Co 8.25305119708681 8.714466496452326 7.7626784438757515
Co 6.2641193670086635 7.922261839066841 6.886179484348509
Co 4.903259719858026 6.229953697116459 7.57554074144642
Co 6.61849352233368 4.885843341924994 8.019267533430925
