9
Energy = -44.15897293 eV
Co 7.037056970177873 7.715011186337383 7.531951454679521
Co 6.366612957407955 6.705584828174932 5.628112513255231
Co 6.480187526696652 7.394203502473313 3.5613150289102986
Co 7.089927404289548 5.427393015379343 7.476150887509249
Co 5.099131914596822 6.54155963773868 7.647416634653828
Co 5.4875263605833755 5.466928340487412 3.6252378966690606
Co 6.439154222015972 4.461451839767327 5.416624473903078
Co 4.373576022056928 5.636539845754814 5.587402459223632
Co 5.110356025986401 4.274751023792207 7.261274998622378
