9
Energy = -44.75108652 eV
Co 9.10072683672923 5.913907518610171 6.714679903434453
Co 7.344586404965198 7.351685272971127 6.660710117875108
Co 7.2332978562973915 5.187008469488261 5.726000050693784
Co 5.912180171164014 9.082826994934393 6.986367400457402
Co 6.709063192415571 6.914430142172198 4.47958396174132
Co 5.6285075138595895 5.580357131221959 7.25825659587337
Co 5.097324490287724 7.304619386804038 5.913163556747689
Co 5.952457355037326 7.467290575543392 8.502959236693794
Co 7.617833441957703 5.793851770968336 8.354256531447831
