9
Energy = -45.05451892 eV
Co 5.373067197681557 6.692426430539872 6.694290536218672
Co 7.357902126049164 7.20655833948089 7.697945272278543
Co 6.041846056132739 5.52646754522979 8.578352967022383
Co 6.027626665164468 7.868236530529519 4.812474531108261
Co 7.340955752252089 6.166918268538961 5.669211050613049
Co 8.00829172480651 8.383449062001171 5.816639417204509
Co 8.005627429034124 4.991813285660527 7.55217246758637
Co 6.039000769356002 8.902692474458712 6.845186859447187
Co 6.023637151482508 4.479393203902806 6.551681591558711
