9
Energy = -43.75824829 eV
Co 5.487549146953209 6.773175955455196 2.914037836513807
Co 6.211981430507845 5.844917394833098 4.831167853709161
Co 8.123889895603597 4.800422796107283 5.4564413649182315
Co 6.174999793189004 3.7126708639087274 5.763986467910331
Co 4.500542053480176 5.31273597848871 6.377705434384319
Co 6.712262583842935 5.397184183685858 7.192629110789155
Co 4.248301213655442 7.01102232193434 4.693183938517903
Co 5.600910320706365 7.370485469273333 6.531066833815918
Co 5.136738272456485 6.204701585669684 8.452014867944733
