9
Energy = -44.60232078 eV
Co 11.07427691686563 9.029529187570754 9.023710166256901
Co 8.95661717370599 9.701034336762891 8.606774439484747
Co 7.340254056251925 8.234868531952872 9.261840525879496
Co 7.6630465480828915 8.719047840265258 6.911050391441524
Co 5.956712207448373 7.077319726820455 7.204135506087331
Co 5.6656385217311795 9.042602133872208 8.057302393325854
Co 9.55759528579274 7.52906742468357 9.541313979440146
Co 8.066459129585086 6.635589821328028 7.890166969307283
Co 9.825179334246984 8.052446107096273 7.283252943006367
