9
Energy = -45.04624166 eV
Co 10.236076329031654 6.194023869617575 8.257316200259034
Co 8.56272048908712 7.04446731512218 9.497096130266065
Co 6.393646682281351 7.260192816449014 8.507799457737292
Co 8.255540621445803 6.837333464617613 7.198504230247262
Co 9.750272519010151 8.393702288402602 8.065941818650947
Co 7.9638244203140935 9.06458144517884 6.623539769755072
Co 7.6520733572404875 9.118468724652795 8.864337384122207
Co 6.222936262150843 7.670114793265117 6.2947452120122565
Co 5.759450335172165 9.405548633159146 7.598683654589029
