11
Energy = -80.48967037 eV
Cr 6.856760287197405 6.411487695129685 6.149372020295456
Cr 4.507001302088882 5.920128974568547 4.840325884565564
Cr 5.0646886419755575 8.57512125976685 6.102160140772594
Cr 5.507606522698722 4.116969553519958 6.89350377691378
Cr 6.4391853071159115 4.549115945310898 4.731018072904766
Cr 7.755606276610035 4.662266357830507 7.453323301417252
Cr 8.92421627316843 6.649514876888252 5.353497689556092
Cr 6.519365590555927 6.2170196182794175 8.842782930729232
Cr 7.0302454344963765 8.278325501902062 7.533729680688086
Cr 4.642496911642488 6.474418022954566 7.2987645273759005
Cr 6.1702670970241495 7.563071552687684 4.218961619355038
