10
Energy = -50.53573716 eV
Cr 6.838328212257405 7.347948685586505 9.80949177852948
Cr 5.288330458601789 8.582579389947435 8.300680687705247
Cr 6.833964438216938 8.318965277409268 6.176974225616449
Cr 7.473334151576511 8.904356083082794 8.283017633750369
Cr 8.469404011958888 7.801274536378836 4.715637458933036
Cr 9.14994712260701 8.73475451151963 6.637038948445918
Cr 6.27398829088295 6.686655350695601 7.723288044998436
Cr 8.345475363556725 6.583369118822276 6.687661285642327
Cr 9.115894427321603 7.405532231369853 8.69668135317238
Cr 7.896257215368022 5.5454605141840965 8.840029040817003
