12
Energy = -86.74463661 eV
Cr 9.21419906801433 7.312323237377425 7.572263718633143
Cr 7.617004356023094 8.39683031690352 10.258007754292874
Cr 5.9483177827791875 9.298395273454547 6.004287329388078
Cr 7.047431213078037 6.617601533202436 8.664273248438118
Cr 7.915483974720382 9.210107053800707 7.891904537920715
Cr 9.594258629282741 6.7938184267107875 9.885910313628964
Cr 8.495359577047637 9.466488964244805 5.592777112124061
Cr 5.608354603143059 8.580383324997207 8.320485500186424
Cr 10.514355081377817 9.292865321366856 6.9156150428946255
Cr 6.818765482459795 7.175314703426771 6.282896428056256
Cr 9.92527760054948 8.712215236831534 9.505562699296044
Cr 9.806418029461526 8.112407239953036 11.966715751344712
