10
Energy = -67.73328744 eV
Cr 5.121659346371981 10.136125063775044 8.408377832041968
Cr 9.88906450018152 6.458924415815279 7.622526100689433
Cr 9.901492245597925 5.85190926255364 5.524956658397313
Cr 7.056616288082004 10.084501076714888 7.323944456612068
Cr 8.277617835754013 7.838487651153433 6.657905764806933
Cr 6.793115078452566 8.836190698715274 9.818292916543063
Cr 6.301501974652539 7.60348476332409 7.921850915844109
Cr 8.083561679906747 5.717192838541434 7.1189896929964585
Cr 8.659992773550147 8.747384814988603 8.728216730217436
Cr 8.005201996006146 6.578606887558338 9.172367866780952
