17
Energy = -128.32666743 eV
Cr 7.391756652752561 9.904713368627734 8.519782549516941
Cr 7.8175098869621715 7.814621740534072 9.514971216432484
Cr 9.933104544827525 9.45427803223466 8.749777328319599
Cr 7.4090990491942055 9.417177314784865 6.152660090515366
Cr 10.279513816999321 6.939451953328324 9.196101337281581
Cr 4.998052138896257 9.679267760559748 6.784859842732791
Cr 5.116125362796267 8.531502332694242 8.962570760057686
Cr 6.01923840016641 5.904951977680742 9.300803595999835
Cr 3.981039490214024 7.037918619199283 7.290104810127949
Cr 11.47327162863026 7.614912853804797 7.190402785926006
Cr 5.329649718735991 7.58598990067173 5.351791578359973
Cr 8.392115761207299 5.737438641857878 7.7996417021795255
Cr 6.550528314294369 7.640391391515199 7.399791706923422
Cr 7.592583913910786 6.118643063914906 5.541364484828868
Cr 10.370473006734167 5.644861409597987 6.563355592352089
Cr 9.127486103092739 8.121169729930894 7.051481079061276
Cr 5.6793022458247036 5.299442335173079 6.990931243185738
