17
Energy = -128.33082151 eV
Cr 6.9012558870665455 7.931351742005413 4.823167308538264
Cr 4.705263598991523 4.349562386432166 7.420417134470598
Cr 5.673721090384738 9.301628386390867 6.9694820087608935
Cr 3.8952952831747645 7.119794129444621 7.306176810957046
Cr 8.505766710813772 5.896766355955813 8.804956427257064
Cr 7.56496569431123 5.5069157962938196 4.9506989091672935
Cr 4.4799234564756185 8.043444676031662 5.239598484727197
Cr 8.87568479049752 6.757061260556119 6.555809649590007
Cr 6.152896817828696 10.29543008295442 4.814187813176859
Cr 7.379525370220402 4.475345068464484 7.122051053038664
Cr 7.7459139406523265 8.18513537542873 8.711330056177955
Cr 9.653962451207558 4.430389780279932 6.5659761044201534
Cr 5.840572073339702 3.314701055095257 5.621188121410915
Cr 6.169187559154585 5.963149281177354 9.368885625964737
Cr 6.291539651623633 6.764294172285127 7.108117148006642
Cr 5.257074582204392 5.660902760927332 5.097959131315012
Cr 7.984633289607028 9.081309937831483 6.597180460575732
