17
Energy = -127.47990799 eV
Cr 7.416000419544405 8.900654893182086 11.907391838077073
Cr 8.88453283219213 4.433795484605069 6.506611317570245
Cr 6.938403004936275 7.703803861070524 7.981524671528455
Cr 6.236242802000614 9.066073036125815 5.599038592653257
Cr 9.243647694200122 6.526707448328643 7.713516105689587
Cr 5.369257512306119 9.693168649746502 7.697728027406141
Cr 7.331981230219243 9.747495551931875 9.563940216122429
Cr 9.365709978150385 8.88938041145196 8.787478127719748
Cr 5.114435353868562 7.279265675260708 6.246621828075608
Cr 7.538572268427536 6.611186624428351 5.49537766102363
Cr 9.527640949703377 9.495860778953595 11.26441803777903
Cr 7.997532629744147 5.2708307721348255 9.124404710102029
Cr 8.494667744957836 8.674096479188137 6.227360936710599
Cr 8.184111173795817 7.271909163256115 10.179174566856142
Cr 9.773662555581693 6.030016890338968 5.062557666232031
Cr 6.6680475196208535 5.241488588408963 7.179422493749557
Cr 7.503900911592394 10.673498301275295 7.380721413466839
