12
Energy = -87.41010431 eV
Cr 5.458395993714158 7.474733665125659 9.484368895828837
Cr 9.179376513213828 8.87858777843171 6.935503283853037
Cr 8.89442318528045 6.4659963612238895 6.544079549575611
Cr 5.977457759613245 9.678821940959232 7.559741048040529
Cr 8.963941608357002 6.127783044973717 8.850833803854854
Cr 7.36626967720474 7.833692495822843 8.173555915839966
Cr 6.498719839957761 6.252737517751225 5.996616371730764
Cr 8.875093889880414 8.732118220333525 9.757679211755404
Cr 7.021202667791017 8.668381950598771 5.711969281273858
Cr 6.548916898788064 5.658131451887339 7.8387278749005525
Cr 4.784416402403243 7.578415827889513 7.263024249882505
Cr 10.693962929616132 7.708040578583052 8.448473551131784
