13
Energy = -95.2871762 eV
Cr 5.305189558986118 3.811791955739323 7.8214777332276455
Cr 7.014075354005417 3.7346978579069816 6.482875426375093
Cr 6.925177704742785 6.280350355177561 6.866188775645437
Cr 4.990435224880531 3.85418873208657 5.033986840365407
Cr 4.733555944081521 5.678284748998305 6.585348929009305
Cr 6.78981331539657 2.7864947305666212 3.7250451640743165
Cr 5.531218836863806 7.999686915617685 5.492472187588147
Cr 6.60724729321049 5.543988778160914 4.467089015652184
Cr 5.864570459428648 4.312974211992951 2.517708523452646
Cr 2.6905808843901378 5.093347005470294 4.968642214127848
Cr 3.2831906610494106 7.56624026955305 6.178449018608241
Cr 4.5867711425697015 6.424412897925291 3.968488198869648
Cr 2.999765052149367 4.236371653509364 3.1765884466984042
