19
Energy = -143.28332253 eV
Cr 6.372333981787522 4.42073949126906 2.0471044769192517
Cr 6.5621194146974595 6.821938991919802 2.2942928589339333
Cr 4.20759872040496 5.3235149899189675 3.5977514361674587
Cr 8.894447138823448 5.978740644695675 3.4487230143108274
Cr 2.4140328203666943 4.218576785081513 4.597853800733029
Cr 5.1042936020347565 3.2788631489481292 3.920777119694274
Cr 5.725522732339504 7.240377061829275 4.497997362222453
Cr 6.9108715692294105 5.070470972062462 4.460838377437979
Cr 7.694457531073237 7.707117348851158 4.69745494307449
Cr 3.816208044669907 2.61179937353648 5.8661602019521
Cr 6.631914444577948 3.3870106337743358 6.08287376276765
Cr 4.58783993020209 5.053799481671288 6.137425456299784
Cr 7.551874116817891 6.049213498404384 6.314179540618388
Cr 2.9371737338463078 7.095112149898853 5.54889090348114
Cr 2.3524121542985497 5.0146064196614075 6.6838500786180814
Cr 5.270519749354245 7.284335217509548 6.958180382682627
Cr 4.6326389098091045 4.067367059648456 8.287941983517035
Cr 6.507067996792343 5.170938514120383 8.317096281593887
Cr 3.872881385297618 6.251686193621663 8.28681599539815
