19
Energy = -144.81143097 eV
Cr 6.601876939532811 8.246461532171244 8.821659218204134
Cr 4.99677082390359 7.485475112286775 7.218236394492136
Cr 5.23658631175504 5.678046514506171 8.879472955242496
Cr 7.467738569940447 5.884331156129836 8.366767303022417
Cr 5.955669224935133 9.32812917742144 6.005600949411752
Cr 3.836124234510686 5.012308572310479 6.991212402360561
Cr 7.719885928386745 8.023421678913632 6.75338361851624
Cr 6.03822567061736 3.513367750496952 7.937031924281355
Cr 6.216770723466555 5.487956858220448 6.2834215434124365
Cr 8.460272346206802 5.577159008293055 5.429153168864156
Cr 8.348202708004855 3.7799918277799063 7.179170855411596
Cr 3.939953357130984 6.927081108049661 5.042386378395701
Cr 6.2109843227371675 7.325698550204425 4.613026092216263
Cr 4.750235931370447 3.073284808820828 6.01428368173219
Cr 4.959235065852157 8.801516060455 3.198547999981808
Cr 6.961058523950966 3.285171522352917 5.244389350227486
Cr 6.877708767123799 5.207988905402968 3.493644078443927
Cr 4.72067305081974 4.750352702453475 4.294346231820401
Cr 4.7754434325211745 6.840233429110514 2.449101716158654
