16
Energy = -120.41546754 eV
Cr 4.477818247148829 9.844986478529739 8.043800061210861
Cr 8.26210398487433 5.959446494976662 6.331315505214443
Cr 6.727669377445386 5.786231272209614 9.067831117490583
Cr 6.726688138465144 9.687323879820477 7.860442418370343
Cr 9.080731522119974 9.935037087514766 7.1676850467802025
Cr 6.426161778930069 7.333354523745941 7.112748158180466
Cr 10.656866615084114 6.610573921624838 9.163689801870353
Cr 9.031818979115974 5.111571685003439 8.279338621135587
Cr 8.446307931448436 7.858526161379382 8.351713286939251
Cr 7.958268253971609 8.647684162079383 5.602372761407192
Cr 6.233704945625483 8.252572447148596 9.777844526627936
Cr 8.514215529275956 6.741183098207324 10.435341199615372
Cr 4.372645598762022 7.458966226893642 8.440411039051085
Cr 10.11468700514824 7.316119075324743 6.8015666536640795
Cr 5.073333849397373 8.883747837466787 5.883933827909566
Cr 6.55367130127124 10.736075005407278 5.77571265790162
