14
Energy = -104.12411086 eV
Cr 10.791602470816342 8.917468546379576 6.0354837511546044
Cr 9.876125714152279 7.044094122128056 7.222002595945967
Cr 7.06814012505161 10.728996205538504 6.25479738800351
Cr 9.341358159352042 7.543351224999337 10.811755444277765
Cr 10.962109551206552 8.118488879380953 8.886949429651208
Cr 7.135769009425834 10.747898500306372 8.659238902123015
Cr 6.94771035039884 9.243880011588045 10.743467180751944
Cr 6.037703507957151 8.778636670673054 7.999002862646525
Cr 6.544326224108593 6.8970472919529255 10.124662041682543
Cr 7.933080362417146 8.512564006960085 6.301898144147993
Cr 8.339248700197835 8.355531627123565 8.950992962431027
Cr 9.40961413265608 9.96343245971097 7.710374890870343
Cr 7.308558523772279 6.316358265918469 7.941670140695901
Cr 9.172456339851363 5.787762665291239 9.317014785241904
