11
Energy = -80.21708473 eV
Cr 7.205728105597187 9.936251497010076 9.247581889100333
Cr 8.25084222829493 9.02088280148946 11.099363608515352
Cr 6.839600025479629 7.5364827716093234 9.090629753833955
Cr 9.736540042245881 9.459347570485237 8.577020378410039
Cr 8.151047074632526 8.491862650252328 7.219274717806115
Cr 10.320011979057615 7.139819557308662 6.829505476637259
Cr 8.207880429822682 7.270719164156243 5.27101078925427
Cr 8.557845868263477 5.906818937435352 7.679408367068418
Cr 9.185219127562188 7.390764101941102 9.551314617340049
Cr 5.999025301575817 9.038424510771996 6.846431046489666
Cr 6.281436823933021 6.541776286146886 6.751912126719787
