16
Energy = -120.64279315 eV
Cr 3.2271413772707933 4.797038064857317 3.516669507972
Cr 4.42773402756849 6.807923521030457 2.7298367120659055
Cr 5.378178262664304 4.257281447034539 2.267208642207383
Cr 5.169568915586905 5.103247748608667 4.933058913654162
Cr 3.621424949974892 7.400266433798017 4.710477842324303
Cr 4.2618006980296945 2.5556613364088094 3.9318097811384205
Cr 6.61173230648838 6.012353741510707 3.1129643197489796
Cr 6.59051876138995 3.386933648179898 4.56549115831691
Cr 7.623388313310732 5.937719531385594 5.650689853048867
Cr 6.056940586010968 7.6603006576394135 4.899943784023341
Cr 3.0435669611473974 2.979005080596419 5.676838084731781
Cr 2.7759100213183148 5.484343603087397 6.1565990165565605
Cr 6.6804795663809475 4.686995761078113 7.204131593817896
Cr 5.268437996605064 2.406768396676236 6.43740807027913
Cr 5.193640562734039 6.684008862051971 6.888854954397039
Cr 4.415683173661547 4.186298646198142 7.664164245859003
