17
Energy = -128.2489025 eV
Cr 5.459442831023377 6.062929425435338 3.8480772981440756
Cr 9.224986219674165 8.05431529683781 7.867496622277233
Cr 9.00302838976471 6.391580454274743 6.215840243029749
Cr 5.3710409955439244 4.513569101855782 6.237329753830304
Cr 6.484739625758169 6.540426498320895 6.04210409176946
Cr 5.993811003822738 3.9096990811827244 8.39731119712699
Cr 6.873824447267483 8.495016865161018 7.981563015810477
Cr 3.3990119564796926 4.737938314111856 7.972187935857245
Cr 7.364845940141716 4.4651521073412495 4.679386124325534
Cr 4.712642696208559 8.248370267694067 6.658035698330428
Cr 7.98687603527724 4.09044398847544 6.586768695145649
Cr 7.584135608184837 8.621499881527058 5.603354157689184
Cr 7.298341248084067 6.1179805564086935 8.196261163351839
Cr 3.7361057286197035 6.2017841088248575 5.707259694716994
Cr 5.321767087245766 8.403947330030649 4.393069107827707
Cr 7.729725832515548 7.120800178451395 3.773888451760946
Cr 4.9196637312151195 6.488535920893519 8.30405612583328
