15
Energy = -111.88053372 eV
Cr 8.77171900287724 4.554265937789184 6.634933157896721
Cr 6.9577396174326545 6.132384604857462 6.13265179685187
Cr 6.877830360658455 3.4721984815935967 6.001602811656603
Cr 4.515274251244522 8.768228525468109 7.499730839683077
Cr 5.0428750989047 7.64384782127812 5.46357088455133
Cr 7.368180802447562 7.452085039957194 3.861634967098191
Cr 6.090527237902452 5.226272896747121 4.255774416952219
Cr 4.733446259862421 5.132737558352542 6.81389161484707
Cr 2.8372776208274457 7.215263637512635 7.203805394219622
Cr 8.476253423703655 4.929942674454056 4.24957987566567
Cr 4.2127120791717605 6.312569148404233 8.818393811149008
Cr 9.07675761948273 7.041209977618178 5.298655984123053
Cr 6.3911170596857865 4.644722788348996 8.153166696232558
Cr 6.286186136809849 7.31052424261636 8.171855832989174
Cr 6.8929059390739935 8.694549175087568 5.971554426169062
