12
Energy = -88.37310486 eV
Cr 5.542232131296266 6.266053076025726 4.517616051578487
Cr 6.528740914194226 4.952195500831149 6.821354847459079
Cr 5.573547486269267 6.245289056056482 9.146508927097816
Cr 7.624483295250728 5.083530354035167 4.587238371625439
Cr 8.196884529310369 6.6708042882779175 6.825481197757753
Cr 7.653041578333562 5.065057262174113 9.051713619668988
Cr 6.0039877083854725 8.601601451946076 4.616027889199022
Cr 5.475824670870384 6.9789081376566156 6.834955863825954
Cr 6.024955576690137 8.578561116404257 9.06256864927149
Cr 8.078782545072869 7.411878548687995 4.5106751817643325
Cr 7.143892848050401 8.704877887718313 6.837258596996702
Cr 8.108030244275145 7.39564695377931 9.143004226160373
