11
Energy = -80.67612252 eV
Cr 6.900601413887495 9.38309641405274 5.3407947949520125
Cr 7.152413572061814 8.228367409693108 3.476831765473807
Cr 8.509119072472442 7.671221439635009 5.87186950284414
Cr 5.837680806473505 3.749446694321491 8.605589416394448
Cr 5.4788907082626945 4.746805408951267 6.354634364318354
Cr 4.730736807542567 6.257140362934553 7.990255050347196
Cr 7.3534999287077145 6.04190018327531 4.643481048537848
Cr 7.548934693069642 5.522927164220204 7.25450819850523
Cr 5.549327743722224 7.293409199826157 5.591404065122539
Cr 6.49796776630434 5.64839835181626 9.517658544361268
Cr 6.719667203614398 7.7361270873931405 7.631812965262535
