19
Energy = -145.48295447 eV
Cr 7.102412553111383 8.679577777707767 4.317014992498147
Cr 7.396043617643408 5.958673482800416 5.060831212109887
Cr 8.936143017972357 7.65738511426671 5.595471168475936
Cr 6.842983725306387 8.4483118391574 6.88442509829386
Cr 5.351521871379546 7.025591555553421 5.716731467794943
Cr 6.550766651143238 10.595101319505924 5.999896581581424
Cr 8.81450134099328 4.49613087984182 6.435830474503939
Cr 8.827480295032572 10.102771454711398 6.161404410492585
Cr 6.093262997856671 4.5176538882353 7.096447059238741
Cr 9.868493471345758 6.468955848642112 7.656519348607362
Cr 8.29952935586081 4.384751297862665 8.904984763134953
Cr 7.221658090672673 10.552610221440737 8.462210484809438
Cr 5.1580825036978775 9.253523367407494 8.429076660277953
Cr 6.186082690246056 5.357202534401616 9.670393100536186
Cr 4.929491477161262 6.82088210066341 8.110157673287274
Cr 8.89803747416341 8.780032552573038 8.265889423741895
Cr 8.919840539745234 6.393225636943144 9.865629232651468
Cr 7.018893154994207 7.927996842980208 9.583334232833128
Cr 7.416814478537474 6.411661592169131 7.615791921995408
