17
Energy = -126.49918066 eV
Cr 6.567925166793729 6.443011489318884 3.3931548500963107
Cr 6.716892242959431 3.4064722893992054 5.880741638907189
Cr 4.3566035962259795 5.402669689701334 3.7761421945467784
Cr 5.953852939289823 3.7974151265278264 3.5305605242179854
Cr 3.0886896280660605 3.3420152760246733 3.1620878993307735
Cr 4.523150817405677 7.684493393055936 4.8138338080135075
Cr 6.13574087034238 5.587422225445462 5.466465278302301
Cr 1.9939476010599146 5.300972209582221 4.625648529516382
Cr 4.861176181221735 2.1111023425144175 4.407506497428824
Cr 2.172311671308049 2.497862636646416 5.146533045864119
Cr 8.503890990349229 5.27496947815271 4.757360856836794
Cr 1.7924465073581606 4.37309506582389 6.634607966904591
Cr 6.250789512442696 7.5002056323904 7.0893408953885535
Cr 7.468259140324797 7.824042329933465 5.144656631333729
Cr 3.7173121657957617 6.431160017094573 6.255409903499479
Cr 8.302605621271429 5.562369735754825 6.888876912828153
Cr 4.1350931529685795 4.001408867817023 5.567760372167631
