18
Energy = -135.10618137 eV
Cr 7.011650145441024 5.0200551559892945 8.988179064107044
Cr 9.516023116359717 7.939910395912264 6.458027896689285
Cr 10.354654316150064 5.766106480594216 5.664597459795932
Cr 8.220085597216071 7.137252894520061 4.550852019413642
Cr 3.4176335178470088 6.1360223531586975 6.40216990819934
Cr 4.282323318891222 8.424153069840516 6.064978405571321
Cr 5.654831500180877 7.167163253682826 9.923148300497878
Cr 5.718244609298671 4.766087030293087 6.821436281526727
Cr 7.743605721808984 7.864678656532112 8.858538301697791
Cr 6.0377335489336845 6.766378653301404 5.374916652008247
Cr 9.905024325327133 5.095040137659303 7.805263140523795
Cr 7.955659058812066 4.79304514957316 5.3437686990100985
Cr 4.0982834984311864 7.242099201129441 3.8151289547125407
Cr 5.636703600951729 6.793747181116531 7.508146658006637
Cr 7.053027992174952 8.769057013905847 6.675304704204827
Cr 5.291471696180881 9.239370737265155 8.347552377950171
Cr 4.3484843546531025 5.166640503587149 4.408617479776214
Cr 8.0367206062124 6.231015811427013 7.171872605265589
