10
Energy = -72.72762248 eV
Cr 6.404655122614753 3.9318162312248717 6.823528804808043
Cr 7.841870256446796 6.401753066687579 6.576323219745527
Cr 6.495906348716625 5.41903341509838 4.8829499410140755
Cr 8.24838033311626 7.525222004175731 4.427956187988417
Cr 3.6774357783509117 4.284706077474241 7.483017812684237
Cr 4.387554158620282 3.791916764481206 5.451627593406666
Cr 5.495099672395659 5.873090814968181 7.797242741223826
Cr 6.052955767123058 7.639756910547047 3.879734437679436
Cr 4.44217948460738 6.293204973851863 5.707394535286301
Cr 6.173467212651187 8.064586321128198 6.230883385901088
