11
Energy = -67.33225028 eV
Cr 4.654662344614101 9.551237726664901 7.877230229509005
Cr 6.372420538064046 7.914531584303858 6.387504474235453
Cr 7.216773432944772 6.583326761259783 8.914478160418362
Cr 7.2358317918125525 8.866129529821453 8.422513639790989
Cr 10.994600078126982 7.027905699447259 7.34052503533209
Cr 9.528166002242981 5.099815638141911 8.672277378836684
Cr 8.494472321357351 6.556204310458544 6.8100970061348844
Cr 9.58306505194304 7.485057502595776 9.140019322384138
Cr 6.786454028760179 10.76257109468458 7.023916539787483
Cr 9.076502773876088 8.932364605810323 7.054310736073625
Cr 4.7897911622295695 8.154612762472933 8.749489385693206
