15
Energy = -79.28666189 eV
Cr 6.370993948320684 4.980604173198744 3.7142392918239406
Cr 5.928293361844946 7.672004110408566 4.110379911984924
Cr 7.943289018465585 6.451890413291648 4.420921866444446
Cr 4.350482966388815 6.018664865111641 4.016603952019174
Cr 4.773511375324842 3.9462646742268825 5.076019272215078
Cr 6.95599089151707 7.006828323086134 8.03535720185512
Cr 7.035207169927394 3.928015491035797 5.752746541539926
Cr 5.891873520306179 5.919520396205777 5.9398252618224605
Cr 3.4705716819656587 6.066345779495472 6.13712247590305
Cr 7.264564466162765 8.016846531734027 6.017378715941814
Cr 4.870322794723634 7.962054473202666 6.154493179738542
Cr 6.767641900563299 4.641562407991855 7.942869602443
Cr 4.5855467247197215 4.344042015239989 7.325702028384263
Cr 8.306532437746899 5.789238008029008 6.56822162690443
Cr 4.741737655810051 6.5126782515288895 8.0446789847678
