16
Energy = -120.96752321 eV
Cr 9.150964401620357 8.069228304361463 9.427248402747855
Cr 10.357036441469624 7.677557632300253 6.90251385070224
Cr 7.843277955784692 5.093332357250652 7.622354371135316
Cr 8.894717417437967 6.254465880209369 5.687211236377132
Cr 9.900478086006588 6.019897452515951 8.40361082312182
Cr 7.448582952862733 10.27843047853487 8.944659862256303
Cr 6.962454305762943 8.508459797872003 10.259308216459479
Cr 9.25910095506158 9.723837938030009 7.413634579573274
Cr 6.456921092651562 6.051269004508017 5.464449225532701
Cr 7.91849313321434 8.557665473290184 5.598922523798682
Cr 7.5254413498722155 5.8868758058869926 9.844647819418613
Cr 5.542380269515576 5.822358434905897 7.740441129826062
Cr 7.635038051161638 7.583064472048647 7.703859674923965
Cr 6.487276607943617 10.077559554400755 6.918197348261659
Cr 5.436060163300294 7.898325120871888 5.824620144342823
Cr 5.489381040514295 8.231828352239289 8.34543000906852
