19
Energy = -143.96141964 eV
Cr 8.860051479621095 6.605263553945365 7.5931941200151645
Cr 8.585348966737381 4.874236020447203 4.911917067748515
Cr 4.963646416312219 5.694236552045417 5.92777308690162
Cr 7.166564998997232 5.118574649681435 6.7899084656421325
Cr 6.112117896466935 7.1381998346695426 7.978948223511733
Cr 4.981166072681256 8.042263508827343 5.963188758209379
Cr 8.91068633714813 6.887753164899204 3.8374997883108275
Cr 6.882755810265664 9.13187768441669 4.100036582275694
Cr 7.362961966948876 5.792999097649965 9.534011246449587
Cr 5.205464036679983 3.3469544885290614 6.068905285750469
Cr 3.847685145563524 6.1775591822647415 7.995229853895323
Cr 7.853832303491717 8.488675808680266 8.720609852515473
Cr 7.221328712600906 7.180877585307808 5.393072899114672
Cr 5.4890572770629 4.447970703500045 8.431257512217154
Cr 6.315431755422868 5.42204020625613 4.000700546302806
Cr 8.900826103166242 8.669759380497101 6.174678711558849
Cr 3.0796541904552073 5.211278798361649 4.741451814402688
Cr 3.1107803689021454 4.064005988640779 6.896851405853696
Cr 6.7869764369611785 9.547056605855879 6.607134270104865
