19
Energy = -144.19041333 eV
Cr 7.503589043727136 3.72685915880525 5.988705436029309
Cr 4.771079242175951 3.9897926998190556 5.717865215827144
Cr 5.973198787881502 4.344211188135108 3.8036156939948103
Cr 8.282803346339993 5.212898715817089 4.107200449879799
Cr 4.513905285363 5.461155379712797 7.543968537259268
Cr 6.522850029836515 4.005125778496045 8.041618105713027
Cr 2.5609181313580445 5.058000592651852 5.396190288832973
Cr 4.068467061750757 5.425580064946984 3.2829898665753388
Cr 8.964392448419895 5.529082363548232 7.1559598851007244
Cr 8.06140788949388 8.148539478028038 7.386623569196764
Cr 5.339239122009264 8.084324289858845 7.222841897207068
Cr 6.747027792945412 8.536476452412678 5.038202049035866
Cr 8.814442090622471 7.100341732072777 5.1095168534489135
Cr 4.7992977472079446 7.227481888887967 9.243487262257762
Cr 6.909341233087398 6.068395068210702 8.648796912089923
Cr 3.052124159106094 7.204189922094757 6.691349448578578
Cr 4.6728244904663585 6.690992123520418 5.043007175041383
Cr 6.619950643887036 6.103507083682503 6.1808039892071305
Cr 6.688595768485051 6.94850033346221 3.2627116788877593
