13
Energy = -95.71717515 eV
Cr 4.562836985045179 5.821207769451321 6.493164710835721
Cr 7.02479361615451 6.071742632338929 6.147226141606308
Cr 5.808318441403163 4.228775983464825 7.757886212872969
Cr 5.74481457650115 8.003063736981945 5.025188391895514
Cr 2.8382334523391597 4.352560631359599 7.381833631304562
Cr 6.944264920568142 3.5568182950610043 5.708311645809883
Cr 7.497501490776534 7.420326173944859 3.7579186971859135
Cr 2.2236059539174846 4.696925814109122 5.220665771498272
Cr 4.535797392615306 3.706269687164383 5.309706986676998
Cr 6.082084296922223 5.513353457249113 4.0601915331973775
Cr 3.869020922511025 6.3151853923964305 4.167277106197467
Cr 3.949762598480328 4.002226649020746 3.0195922139717255
Cr 6.2211898821205045 3.392149393429454 3.144261490263926
