10
Energy = -72.29016345 eV
Cr 10.734097643019904 6.068771632414941 8.474278445730437
Cr 8.709971814081268 6.3302299161713105 9.495409068034776
Cr 10.02859871900799 8.06302541404024 7.590488190972489
Cr 8.244056584017407 6.4216632406140155 7.039994290874145
Cr 7.911528468847697 8.59010793208383 8.81200176956337
Cr 6.25202950045978 6.923658904270925 8.291064922294279
Cr 6.23092438684319 6.356149401854605 5.53324072438999
Cr 7.539217070372991 8.666634647768756 6.444518300799277
Cr 5.7421740268969765 9.720736540072734 8.391107541457897
Cr 5.099825687818782 8.247886042667156 6.556824694697791
