13
Energy = -95.36942748 eV
Cr 8.274938738926343 4.959185287969838 4.059389136043491
Cr 6.374902866854729 6.364669874602813 7.049529654685599
Cr 8.674801558072993 7.729843392894705 6.644378647491214
Cr 6.660007127576229 8.69170696892045 7.4776020774292125
Cr 8.149525180302476 6.643150066078208 9.035130313080606
Cr 5.950020385955545 7.439987371039843 9.477641097154825
Cr 6.207638356138328 5.890018358115965 4.726159460514735
Cr 6.621181249034264 9.59849650274547 10.30912372436402
Cr 8.565995031880833 7.291076538632517 4.308294264037855
Cr 6.524977634061055 8.161369630504371 4.926249213994117
Cr 8.561081101205676 8.986621228167202 9.018625246344415
Cr 7.83523580204023 7.875672915117205 11.411746650403222
Cr 8.386837734754248 5.482522124842237 6.457010317835862
