14
Energy = -102.94194831 eV
Cr 5.860136202592455 4.303331475030619 6.181071632281684
Cr 7.244265160061206 10.67229015449172 7.542214312071902
Cr 7.489017809528113 8.137129231509698 8.264114700709204
Cr 9.347796643220331 9.345374168335933 7.52390106166218
Cr 7.030178227379151 8.795067529234393 5.791596413709465
Cr 6.241823021221549 6.452937261054091 6.934822331512464
Cr 8.334133611512785 4.55454721562502 6.020383285759395
Cr 8.81931713315612 7.352554749949569 5.951622881467728
Cr 6.082977245888467 6.632328058217567 9.474066494507106
Cr 7.131274642171469 6.147598499659239 4.647420018428882
Cr 7.4340266432322375 9.877357841521208 9.857968942565197
Cr 8.63893511184216 6.046329024675486 7.866973988646343
Cr 5.3310421743349 9.039509147717954 7.9942822777686375
Cr 6.66447221979299 4.355402466720722 7.931531664142241
