14
Energy = -104.80327425 eV
Cr 7.047232968000608 5.421303874611582 5.748137557680954
Cr 6.815063594818932 7.762676316177273 4.715626071141958
Cr 7.922069589457052 9.627650486605859 6.329794391524151
Cr 9.07869813485196 7.238183758637405 5.464915591153936
Cr 5.029998272863474 7.306507016896639 6.334856450810946
Cr 7.241290986351852 7.471208199950427 7.316079866735729
Cr 5.607131349780575 9.589493405232579 6.659124863803204
Cr 7.585027742865406 9.830447270618208 8.64850724534204
Cr 8.954488873716212 5.389075592587032 6.984483453497748
Cr 5.666684934386061 8.461597031894623 8.902330004916227
Cr 9.292452748968538 7.582485599870614 8.490098098293087
Cr 7.131337172907326 5.532152608417216 8.705238668353717
Cr 7.514572316297198 7.515234675810925 10.091476328374727
Cr 9.276251470198089 5.434284318152327 9.7716315638348
