16
Energy = -118.60497865 eV
Cr 7.3305162438959295 8.517611239722727 10.12840129617309
Cr 8.761691316511556 6.690962175808676 10.309147536761158
Cr 8.944408587731113 8.01167623295862 7.845812274753602
Cr 8.970451450629104 5.7489604829154715 7.639457772529182
Cr 5.391823719825993 7.17222530831096 10.415796903383395
Cr 7.035437657733905 10.441644098928117 7.977234188784818
Cr 9.45111652584194 7.080659903462003 5.318229912964138
Cr 8.885690737707993 4.759111921153672 5.202315244017295
Cr 4.592268188121674 9.251799401066043 9.399924022821375
Cr 6.995629225941248 6.046950312532001 8.899392750065163
Cr 8.295516704354752 5.7192801898450565 3.1467126025815415
Cr 7.831605106213141 9.179506910205767 6.030329603643568
Cr 7.110804519841038 6.682429053618511 6.16570719496786
Cr 4.392243413330916 6.623949712961767 8.332004768512839
Cr 6.298476187440516 8.159061729863112 7.992098390134097
Cr 7.773972149958489 7.922562303827834 3.816107222713184
