11
Energy = -80.2320776 eV
Cr 5.206386604880458 5.456241053581164 5.738653221960822
Cr 5.949031105620389 7.716425803468627 7.227023506484463
Cr 7.155432766842163 4.939224130329046 3.864853515483212
Cr 6.197038295089989 5.441413545607936 8.002382856297237
Cr 6.524119258186472 7.2060030289540045 4.874894685410656
Cr 7.967747037664562 6.892043852705642 8.832255024982633
Cr 6.882658829959844 3.6833303120897636 5.738232972448065
Cr 4.0929201700003945 7.92251976654747 5.220155487490201
Cr 7.932783617669443 5.799405697041461 6.349851778755633
Cr 3.705451740821508 6.765845536194315 7.145349579240655
Cr 8.350778271018333 8.141894760046121 6.9706950691993494
