14
Energy = -103.2895145 eV
Cr 3.5055133861793055 5.743769437307151 3.6524940074160055
Cr 4.836214618831828 6.894547678840788 2.7586554185883023
Cr 4.196322430069189 4.604379512916268 6.23085199314971
Cr 4.97850543405855 7.6142024687866146 5.342130069990346
Cr 5.185651079869277 4.1383814602967455 8.302038613371145
Cr 5.281820505800292 6.486767638255451 8.02158634418021
Cr 5.77589480572921 5.508297958777097 4.867479947025266
Cr 6.898595930797753 8.125787084713133 4.180369142896047
Cr 6.980119363692351 4.637627902984509 6.817318326848445
Cr 7.162232100835006 7.105340115473988 6.683106792113414
Cr 7.3826447357196106 5.717276660739234 9.071648297137838
Cr 7.478467436364985 8.039071048484782 8.926356384612088
Cr 9.193397650000659 6.188517425668075 7.542666584002364
Cr 8.152542332976818 6.203955456909539 4.611219928822175
