17
Energy = -128.62428271 eV
Cr 6.04774521141342 6.894026418311225 3.9365162509105005
Cr 8.059744968499931 5.8367603180991 4.816798751456033
Cr 8.762325189360062 8.103246070377931 3.9765353601918356
Cr 8.826228442773342 7.229664315265816 6.578808841542854
Cr 5.458503216433431 5.318281296700618 5.814902919758155
Cr 6.830789452412386 8.391579063558389 5.465620834010931
Cr 6.627889582840897 6.903070389136177 7.72029770709565
Cr 9.237954556513339 9.560315035380981 5.896975009452741
Cr 7.377135763944656 4.74540087067025 7.049508080592967
Cr 4.8117387600554045 7.490167087571497 6.383898072698197
Cr 7.2364085962238205 9.272229488105106 7.8434872552599515
Cr 8.553978349703677 6.338416949642688 9.248838727250641
Cr 4.795262090088485 5.1291652701613755 8.18803678990575
Cr 5.160268426895987 7.691170116210187 9.436396782298514
Cr 6.335591728080771 5.362266374100983 9.877408510574032
Cr 9.474572828416397 8.533846569648379 8.504055797427037
Cr 7.280706774431154 8.077238305145654 10.138758247661077
