12
Energy = -87.97884339 eV
Cr 6.6195666120519325 2.6632765585637443 7.57811998343922
Cr 7.557581601597885 5.114299995174611 6.6655175127163035
Cr 8.896346769270641 10.35585594020051 5.327724490604839
Cr 6.7023941013822785 9.560678069034195 5.402551261090347
Cr 7.094068902073671 4.421151119947875 9.035607641668294
Cr 8.322363237119244 7.701710361921867 5.9089912019258986
Cr 7.91278050011989 6.986902653321379 8.232339785210803
Cr 8.629586422284087 9.608674034045162 7.519739451573201
Cr 5.168171967606737 4.369567456623397 6.92540547885443
Cr 5.990645906292158 6.9371630987958 6.117926503230922
Cr 6.316319174537424 8.833849817379678 7.7082014184202725
Cr 5.540593616764221 6.225306218558896 8.471890608741061
