12
Energy = -89.47159052 eV
Cr 9.959752359924488 9.868052588185643 7.367750245052722
Cr 5.932829969049416 8.647686234490214 8.509452898096665
Cr 6.371824450329014 7.294995682551717 8.757816422374798
Cr 9.71307952991693 8.447493700614508 6.482191567396037
Cr 10.662714370158211 8.109597603744623 8.84260186784041
Cr 8.567859096730412 6.831073532502859 8.029401981328451
Cr 7.162001030284385 8.185144035458132 6.42023399851899
Cr 8.435879195279165 7.258328497153791 10.416713546475178
Cr 8.435879195279163 8.668471068251781 8.372074787022578
Cr 7.745040463861146 8.35928015132976 10.74889323181815
Cr 7.469057224319658 9.584735730935831 6.51576485069087
Cr 10.143102114867638 9.083092321872316 9.875052750475492
