18
Energy = -135.83775237 eV
Cr 8.284861365461317 4.796219246135905 5.787574148832241
Cr 10.513707255334564 8.358362050640759 9.001564170839325
Cr 5.790706092034469 9.601942710117267 7.536821036621461
Cr 8.088345340839046 11.290660764436753 6.6930071106580975
Cr 10.228833692145685 9.419631531582725 6.819637876075566
Cr 8.692563334275192 9.098498598573759 10.506276056747316
Cr 7.3079320622080575 6.845461090860589 6.615840434122563
Cr 7.229162249410548 11.242077682789436 9.381896195657728
Cr 6.207380354304342 9.339372811217723 10.079761356220702
Cr 9.429707905106103 10.919180540925822 8.735744820312243
Cr 7.198749636219442 5.139827978104842 8.375446387653637
Cr 8.850881519783494 6.785660523406654 8.936079059695265
Cr 7.9702992436576645 8.967325413279065 8.029489517561514
Cr 7.511818045719439 6.906774500732513 10.95784916882502
Cr 6.182107068519972 7.277194430082682 9.098123901099555
Cr 9.552277763161964 4.61363910562051 7.6106659812128905
Cr 9.66684310382957 6.977485393764646 6.717741766966937
Cr 7.995228081261543 9.139474376562031 5.808027411183936
