15
Energy = -112.07372529 eV
Cr 8.032598781683575 4.154212944718259 5.559448363095793
Cr 6.764192028683095 5.3591239111837154 7.250591409645738
Cr 7.964321525300533 8.611540465176622 10.004658591575765
Cr 9.157789537235951 6.367667199718342 5.8873493480806545
Cr 5.761169748820847 6.932242160449777 9.074982407153728
Cr 7.8894686413543536 7.538998975906294 7.549786774651643
Cr 10.070428860550587 10.144069508852615 9.061502579836812
Cr 6.893030803080707 6.700711756027884 5.1548399074757905
Cr 10.041808662079264 7.855139740894263 8.703107143398961
Cr 7.836761170484393 6.316927553587604 9.68359074075808
Cr 9.953443960391237 8.869697726047352 6.462767062186625
Cr 7.951949880559214 8.850842494446079 5.241490296578224
Cr 4.5778909475989655 5.917767773645689 6.743549140414496
Cr 7.995881472059203 9.907593041242723 7.903813023546629
Cr 5.6874546507055435 8.039259456930443 6.867700813926168
