13
Energy = -95.60898968 eV
Cr 7.55306165094771 11.107276648077809 4.89124860584128
Cr 7.476414997654081 10.04446325332578 7.165292077281414
Cr 8.921259870283242 8.472545172073541 5.836440738793336
Cr 7.549894429977116 9.142494320754285 9.975578111083943
Cr 6.8159541523065235 7.4626333977835415 5.689104428048923
Cr 9.502987294995227 9.399666239666429 8.52217265709526
Cr 7.438026966047763 7.812709223646043 7.988849941820603
Cr 5.540620697708155 6.086856682222151 7.319004013406849
Cr 8.217593485579938 5.656599329285592 6.405737127483306
Cr 9.679994722382812 7.058311053010112 7.836758484940154
Cr 5.9561911030078765 7.2008036229971975 10.044504666406867
Cr 8.864320678137494 7.106854161168754 10.241665077974357
Cr 7.38374869227387 5.559759327447547 8.885128867293329
