13
Energy = -96.40716949 eV
Cr 11.72564658886278 8.66215685719422 9.809110417873265
Cr 7.728672662445467 9.446690568132102 5.957438527097264
Cr 8.899607426435868 8.464675903930065 9.625816271669112
Cr 6.841094963509808 7.093913829910667 9.80962457781795
Cr 6.078209776904266 6.23480268050499 7.643454703287953
Cr 10.29476542226788 9.095005956453386 7.321195727549231
Cr 10.631113911719947 10.410849690210881 9.511957502461641
Cr 5.7659062367005225 8.062493323778076 6.155041984763643
Cr 10.612489910969225 7.041320478185826 8.542823381247548
Cr 8.546949442283138 5.666347670550176 8.895975126362256
Cr 8.186735557787085 7.549485551612899 7.3828115645229095
Cr 8.323833146826196 10.28493972985559 8.107879271237405
Cr 6.362363666891939 8.961468666328981 8.331062603077344
