14
Energy = -103.68732785 eV
Cr 2.980635190222362 5.860844542017695 6.2746749678831355
Cr 4.047382914928006 4.061631488750709 7.260718478914888
Cr 3.5534488073292714 3.525150966634294 4.881767294759606
Cr 5.353588937550308 6.1796885016619205 7.792783234638157
Cr 3.3325441248190626 5.7647042655241245 3.9608621915401354
Cr 6.0322568307820275 3.339091198474194 6.223639882947575
Cr 7.001006942237166 7.41483890399089 6.073508620010261
Cr 7.680917273788149 6.1923870705294375 3.86947027725755
Cr 7.65859478334546 5.743475974179908 6.520209009683258
Cr 5.632433558502308 3.836092044665297 3.6392058140515284
Cr 5.542053552766354 5.431691398358554 5.397744948939341
Cr 5.412472283694079 7.261679370350552 3.97630113130936
Cr 7.895836824523948 4.189824646959706 4.441612429420249
Cr 4.400458926394604 7.722530578785537 6.211132669527614
