18
Energy = -135.37500388 eV
Cr 5.397327060336138 3.711586111636321 8.444235634448166
Cr 7.155360274308621 6.838477163661142 6.633531797841556
Cr 6.593134123821511 8.576955108999536 9.65627215768072
Cr 8.993671110515717 9.54967650375432 8.222182727854092
Cr 3.599168512289663 5.3053935594376505 9.11679636574676
Cr 4.910047591031473 7.328340910924468 8.064218005553077
Cr 7.679291981195723 9.549970693698764 5.1434828396095265
Cr 5.190875581172659 7.9958768480520614 5.413241553151779
Cr 6.136156118588975 5.158409654220545 5.027004610028385
Cr 4.822396174186279 5.343260428291826 6.643848073817281
Cr 6.287221050789424 5.879401883420124 9.088703044407453
Cr 8.93010996685487 5.552529085425032 5.312297149105282
Cr 9.700165095658429 7.536007754698886 4.0098256165122885
Cr 7.518183132619993 4.356878502562824 7.105537291628192
Cr 6.804659355738803 9.114019033397867 7.36880222060434
Cr 7.260555959367659 7.50493705196723 4.118399406222733
Cr 9.170788517336648 8.103931029315632 6.293656404544281
Cr 8.301839287863853 7.047094658272951 8.724097916584956
