12
Energy = -86.88509652 eV
Cr 10.659316233027452 10.516441237761436 8.549500889661008
Cr 9.452652987230799 11.226195564187313 6.6918528911071
Cr 10.220611472934934 8.406216968939704 7.120439678650676
Cr 9.373328223808711 8.406836883433458 9.251305315144712
Cr 8.23050382423469 10.445559899733087 9.26810664208627
Cr 8.460318230880212 6.415610289564322 10.01651801386911
Cr 8.078332691798751 9.307578783568784 7.268644941294238
Cr 8.282775261397273 6.6335804196251695 7.713345095359731
Cr 6.183200623114563 7.789697701715197 7.190781373017825
Cr 6.853185610048881 8.08047051793412 9.491741900397107
Cr 6.134619116444047 5.55711851421974 8.869729896252812
Cr 6.084792193160553 5.363873896419206 6.656349549344679
