14
Energy = -103.34610165 eV
Cr 6.37069297734708 6.785610471662097 5.850895099823587
Cr 9.130894413905663 6.308847588239646 5.667261193599525
Cr 4.046974696456021 6.252036959178593 6.164996854921956
Cr 7.982170673789533 8.473287279256018 5.434593799193417
Cr 4.920718018646209 8.803768976599805 5.559316606247986
Cr 7.570699862227157 4.331021114538866 5.628284887266725
Cr 5.481769924183178 4.2736077357429885 5.577098878024686
Cr 6.172981681804577 8.088129187120783 7.896953156124465
Cr 8.557310828577618 8.052127649966435 7.75559617569679
Cr 3.7587750734483163 8.196180975838816 7.611452548437164
Cr 7.688935677526873 5.727252598809593 7.615863934907227
Cr 5.2431540530511045 5.723602838847259 8.093549254191542
Cr 7.387372703199872 5.8521877458628415 3.996198157632016
Cr 6.037590032635389 3.4823795352185805 7.4979800306471684
