15
Energy = -113.04236108 eV
Cr 7.2430371806994485 5.395432169107655 3.6569069802339067
Cr 5.077344500192692 4.975608660620953 2.7292906381998647
Cr 7.320207270159558 3.1730872969589106 3.1410409128402508
Cr 4.905238551789125 7.235740983811124 3.661114376717068
Cr 5.360740933851488 3.3514713006424683 4.506655615922342
Cr 7.425739961624809 4.13188681012474 5.9117399137836815
Cr 3.0990841987616844 5.194256201342017 4.293635302340114
Cr 3.153808275290041 7.3782199887433615 5.3910637686682525
Cr 3.3843526336812837 3.503498171085662 6.033849238994205
Cr 5.302010879173284 5.660448141539352 5.381172123665553
Cr 7.464309246873767 6.513860248521688 6.1621477070678425
Cr 5.065770431366848 7.933774366861416 6.577190419405024
Cr 5.473561467953776 3.665006505250594 7.255226818516049
Cr 3.49756335704316 5.679396063668665 7.092287762752517
Cr 5.940297855200783 5.9213798353829885 7.9197451645557955
