16
Energy = -120.37534621 eV
Cr 8.163277890959284 6.592648318716437 4.249920244544581
Cr 9.117708128929477 8.872762165469846 10.698323231945626
Cr 9.702268890048177 7.600521311965833 8.470570473682587
Cr 8.04214477226959 6.854229871132054 10.776899881847356
Cr 7.498972122550606 10.309554444054173 9.787550270917798
Cr 9.939967202860176 5.880028653672708 6.598367307065237
Cr 5.656471703207793 8.09504032375033 6.646625579836289
Cr 7.619940300495357 6.570741507811722 6.594118127868299
Cr 5.943140656080341 6.658246486581718 8.952113297939686
Cr 7.39874637912943 10.078196531329812 6.910750683427567
Cr 8.986680641101788 8.523349614203395 6.133114727878675
Cr 8.150397995921846 5.574758201417808 8.771552289751126
Cr 6.244368593055164 8.330944776982955 10.844246612542552
Cr 9.511715090649226 10.203770086471573 8.27984995095429
Cr 6.977281364196622 8.464336441273069 4.6532295926925284
Cr 7.523566817794334 8.338125828989247 8.520593350265345
