14
Energy = -103.31871406 eV
Cr 10.871523870992975 9.857385152153913 7.686387921089818
Cr 7.745978821406454 8.23046576400847 10.475298997625911
Cr 11.617365736907981 7.683129763556028 7.26467766391745
Cr 8.509848993626663 5.715455789222443 9.752589457984413
Cr 9.845291736047347 7.609149202902016 9.056492715249531
Cr 8.958658532154235 10.1789848813144 9.92161374536005
Cr 7.080683517190865 7.260064210733983 8.26975755867625
Cr 6.68116007421057 10.660580793333251 9.75522487327356
Cr 9.629942712161887 8.205676480704525 5.801322069592884
Cr 5.455007807299028 8.682527001910396 9.945242609359036
Cr 9.114987405702786 6.381915813085934 7.169287847721726
Cr 7.152441552869237 7.620320559342477 5.7967538816875335
Cr 8.501706788834353 9.198068120930635 7.805269837456622
Cr 5.532174910676654 9.13500340983863 7.649887495021046
