12
Energy = -87.90995395 eV
Cr 7.072228287110844 9.007139159127545 9.417094060255797
Cr 9.316239891554309 8.539938971510315 8.976787643545501
Cr 7.301536785183413 10.528844985403628 7.5032643933347165
Cr 7.602199732882401 6.139808406358768 9.438548661321374
Cr 9.13969035291165 10.932476871043892 8.640152429696826
Cr 9.323817663209013 6.420807271161702 7.784997137604805
Cr 7.052889760893361 5.05468869063287 7.224343801604842
Cr 9.032935537671928 8.93962392884136 6.564348846069583
Cr 5.390998813030087 6.711588299291332 8.665465126947549
Cr 8.364698668898392 6.435878309436691 5.606099895674813
Cr 7.1622956539080205 7.814307411376724 7.464161607401493
Cr 5.36262971602954 6.219671997655624 6.283247794837761
