14
Energy = -102.91533112 eV
Cr 3.5527295916398685 6.4980377390357 5.58448977085741
Cr 7.629572431014296 5.95929969288119 8.18374275373062
Cr 5.4922857988994975 5.226618630471524 6.624238465143776
Cr 7.737871666056201 8.718038833853996 6.616517738475517
Cr 11.026894635081373 8.563079748964135 9.817630041209569
Cr 3.8393772205434793 4.563962295011978 4.416660660234202
Cr 6.020977368385923 5.724571028340259 4.269565706661147
Cr 5.5583908593921585 7.969906338448998 5.131593320235034
Cr 5.443156405395233 7.38927845815218 7.375979555779
Cr 7.7136825402418845 6.536216271968572 5.96358813992702
Cr 9.333224036885472 9.65375869443219 8.698442342701407
Cr 7.229575404465201 8.259940567596077 9.002418356309938
Cr 9.630871179673173 7.409951749833411 7.666712939688296
Cr 9.226230615048255 7.162447396894926 10.123144898413587
