16
Energy = -117.11965062 eV
Cr 5.240824905037991 5.961132057562917 3.6767456503992735
Cr 6.8212521847198 5.330043453795311 5.3940539981829
Cr 5.387460130041209 8.156893374735363 5.243684575381828
Cr 3.215088473295187 7.487583754196469 3.4564926848445556
Cr 5.729507733115462 3.5011893225139863 4.062114752425324
Cr 3.644969926374258 3.8143769265548966 5.709833588042112
Cr 8.282199371639113 3.282997348052815 5.120152715464393
Cr 3.3599508224965504 4.870605794972135 3.656405302644618
Cr 2.0605631944948453 5.761931346982449 5.071584038998248
Cr 9.349409992412383 5.255056216196058 6.385286971512672
Cr 6.095626019283624 2.864778650080298 6.304019348460222
Cr 2.5994485574831683 8.29635107134731 5.3401857369381185
Cr 7.258368841735591 6.965914689725755 6.906141766638556
Cr 4.255079533195559 6.17252420205026 5.601245440342018
Cr 8.038288237581394 4.305533786913239 7.727866548255908
Cr 5.524141963402714 4.835267890628626 7.206366767778426
