15
Energy = -111.41930945 eV
Cr 3.8487932093559527 6.271127305726316 6.552415971279137
Cr 4.100944669522003 8.641358840531874 6.651356260057125
Cr 4.2114052195976805 6.860686773682157 8.796027375371187
Cr 6.279277664071005 6.279922821115183 7.744478303644561
Cr 5.987692854607751 6.950225859593964 5.507433095199856
Cr 4.586607104822295 9.244434033632414 8.850588496013174
Cr 6.681445655905255 8.065931882751952 9.150599225277105
Cr 8.028354172298378 5.145427102449748 8.570639084113804
Cr 6.537759885087438 8.826462672251015 6.829846096143822
Cr 8.282295387182753 5.450878358994676 6.061272765764197
Cr 8.534326032041754 7.73476895802061 5.7679053981717345
Cr 8.847400132243825 7.422371558982726 7.992663374514644
Cr 10.407965184599805 5.683315932291455 7.284674669431134
Cr 10.94095983426808 8.367600806781082 6.91911235556039
Cr 10.766708272509476 6.757979149771761 5.21849746304129
