13
Energy = -96.15035851 eV
Cr 7.312019999162933 8.081358190992528 5.966166770153864
Cr 7.05014897918136 6.258878194865106 8.128899063026397
Cr 9.330804847914504 7.976556793476921 10.252655111443485
Cr 8.413452538150489 10.120724169992245 6.289520594071096
Cr 7.217416303980176 6.796417423642302 10.373676489224293
Cr 9.456043149597154 7.8030146993201 4.977075923660443
Cr 9.425873884490368 6.15964278467992 8.538934536556203
Cr 7.932499971015633 8.512537910186447 8.38127237309113
Cr 6.589614546619025 9.126918838812397 10.325159438487095
Cr 9.248034183326297 5.8697079699953605 6.142607988538054
Cr 5.303481361902431 8.049173534703364 8.552842461653347
Cr 6.314574442645609 10.132334973864678 7.62820937502768
Cr 10.001817539427877 8.331121835650809 7.309740723471551
