18
Energy = -136.75130194 eV
Cr 5.331997146927157 6.384509397753417 5.814416554419277
Cr 8.880378495774739 9.620099839788885 5.863775164098005
Cr 5.944489873637124 9.299987663754438 5.87183570938596
Cr 8.965800721553197 9.56009993467275 10.136340355955943
Cr 9.206156088151355 5.7183818707110134 7.723441346545326
Cr 5.85782749958575 4.356933366109314 7.158054472115837
Cr 8.021795387720195 6.811505849986146 10.129114970815325
Cr 6.810000494603001 6.239762802570125 8.16262008701525
Cr 9.574880145475783 10.752878230220338 8.318238928176417
Cr 5.155289050737816 6.151934246210277 9.86345433720775
Cr 7.295401942337297 9.875601891622015 7.747282979567579
Cr 7.840337959538257 5.060512692270509 5.919103089697799
Cr 5.187088007015018 7.918970909776656 7.673037292190205
Cr 6.493044796857572 8.432333826168636 9.754095718210824
Cr 9.938321202507115 7.010067610265492 5.9314270943766605
Cr 7.548972166731791 7.528340904756495 6.138818712530086
Cr 10.852945321667685 8.891827844091129 7.301284618310184
Cr 8.816704915300999 8.107682335393804 8.215089785502384
