11
Energy = -78.87745254 eV
Cr 8.90430783395158 6.917958811155186 6.605231232786228
Cr 5.031990863161872 6.026395447770184 8.12019242919583
Cr 7.130337029931745 8.154012704767295 7.955264645077431
Cr 5.938812060949165 3.8277457058171667 7.716368804436939
Cr 7.7239781528350875 8.498497330159072 5.273891654230878
Cr 7.47763398619708 5.716915298716437 6.997074714303095
Cr 5.6287835010942775 6.993153498817639 5.651944420506873
Cr 5.984069094766825 4.244349311601315 5.375541764234425
Cr 7.48239084403613 6.244952574410604 4.599785714111158
Cr 3.9522899500950475 5.254443966353773 6.142230253479529
Cr 5.656570995133641 9.032739733522298 6.473638786198547
