13
Energy = -96.04939342 eV
Cr 7.637392681929888 5.499075228840985 8.42078821408192
Cr 9.914055847758236 6.342017321101046 7.857213906738692
Cr 8.107663078004606 7.76868771355048 9.508873989063698
Cr 6.469193449069842 9.40409311944296 8.632044661247296
Cr 8.053902087656608 7.782354630809727 7.055578959321557
Cr 9.820911336060774 7.993265819760009 5.3784250748200675
Cr 5.96409195645321 7.185587160356943 10.334129149036912
Cr 9.184883394844253 5.631057364138102 5.727242189539768
Cr 5.741208725106641 7.044879423165089 8.047622858087353
Cr 6.9572384831472975 5.934862265863522 5.894069543591685
Cr 7.710557459634844 7.690893208751773 4.392668648168773
Cr 6.311435671081136 9.080825284241 6.1289115649945725
Cr 4.404405081911646 8.95642225070233 9.55205880833083
