11
Energy = -79.99540988 eV
Cr 5.355075663712811 6.474403730086334 3.285839992023927
Cr 2.9026749151705116 4.3450776682204335 4.391950318768352
Cr 5.1975311143220075 4.62886900125044 4.756954337347523
Cr 7.5338988502400905 4.804431506611756 5.034375111627439
Cr 7.854131131655566 6.4641444413411016 3.209720209914476
Cr 6.374065474556378 6.959139684569328 5.463529787943761
Cr 3.448006612913789 6.647600592706748 4.987918815026201
Cr 5.16872422809298 2.7303393444307686 6.106471327241168
Cr 3.39204509466438 4.300091338654825 6.803716472761913
Cr 6.2984432980932334 4.573661980283588 7.215417581662621
Cr 4.693308502700275 6.29014559796698 6.962010931804505
