17
Energy = -127.89229661 eV
Cr 4.98611041629666 7.673530943627442 5.5098518395991505
Cr 7.57571003047273 4.818312150316449 6.769326075090824
Cr 7.753228201256681 7.215802671088346 4.858494629940697
Cr 9.107643527799565 7.668275527150687 7.205680339848776
Cr 5.884229158473275 5.428748064112088 4.929966448440865
Cr 5.723696040694575 6.895847562837533 2.9997645822433667
Cr 4.664833972864707 5.4877015962719895 7.167966311632935
Cr 7.146082788022902 3.3114677853780434 9.066912727512776
Cr 6.955813493380311 9.346134386381994 6.567910198553687
Cr 5.709290952441439 3.4013259279415675 7.10319494528135
Cr 7.907806028312569 6.362521604137472 9.332954362966912
Cr 7.834461796164396 8.801959728270639 8.862193282523435
Cr 5.550170886344593 7.929299337335331 8.821422786750823
Cr 6.396936098631347 8.974232534553732 4.048052282798902
Cr 6.770397373123687 6.984750034874282 7.079714009711749
Cr 5.919394801645327 5.319784233972905 9.136513716838568
Cr 9.034662694166634 9.300774171840898 5.460549720356312
