11
Energy = -80.45133316 eV
Cr 6.925732643317219 6.808803000627969 6.054706993063246
Cr 8.894808777871665 7.363724285023407 7.314888884363621
Cr 4.592853603534706 5.937567779143111 4.963672683161415
Cr 5.049433907868103 8.662931068638422 5.594315699106516
Cr 5.667187387656367 4.533783313249637 7.131433696915616
Cr 6.844060227608795 4.714861812982821 5.066216175396705
Cr 8.503609822117445 4.922724910445673 7.0631499736433225
Cr 6.991717277175344 5.740971713521388 8.615522782498081
Cr 6.8113874701283565 8.171095512328543 8.316876078755065
Cr 4.843352069274988 6.926222795961761 7.213100591251988
Cr 6.083065413531836 7.424522458437288 3.8733249916544708
