10
Energy = -72.51057474 eV
Cr 4.147331842533021 8.116637941709355 5.087612885394876
Cr 4.595962830629491 6.891072163448175 7.50884220612016
Cr 8.506140743977145 5.771124581885982 5.388634631275988
Cr 6.3376519176619155 6.779987410793909 5.754076152290384
Cr 7.951834545837895 4.039556851551679 6.911593480097611
Cr 6.044681956759682 4.361257466385337 5.329620586508905
Cr 3.8759546190886045 5.832292178531782 5.177129932902576
Cr 5.231437025717424 4.7275003679129295 7.4093789533375904
Cr 5.688710603019917 6.371750090387302 3.4292008304385506
Cr 7.263811650415694 6.064721970431146 7.895644607203815
