18
Energy = -134.27137192 eV
Cr 5.530681904498619 4.788870685340804 2.721478960701737
Cr 3.8562990935756822 3.2665989975940377 3.39918526758824
Cr 7.37887892601658 6.376742788403473 2.1323954590712004
Cr 3.7551847971803625 6.035575537774606 3.612914994636625
Cr 5.71478606860929 7.373586993564001 3.8010958802348904
Cr 6.481328948932648 3.4532413489511753 4.442284813819688
Cr 2.605281907197827 4.453352863253069 5.33234163955904
Cr 4.310701708442854 8.078981847058412 5.3412436134303904
Cr 7.690053186625039 5.475498926913645 4.486364140957903
Cr 2.645323117404783 6.243679314257031 5.929351948654481
Cr 5.148214096189533 5.223029389918146 5.409563807888017
Cr 7.889301985544807 4.544530447184808 6.632961771743983
Cr 6.6929837646365415 6.938414293900231 5.979357207742853
Cr 4.464537178116207 2.5035722958360545 5.665081238003199
Cr 6.052736094138488 5.553965462571824 7.966992064905189
Cr 4.6033623563954285 6.7226059696437135 7.536833110298049
Cr 5.819630781698243 3.0706682580316578 6.950229857573827
Cr 3.914316004445663 4.450686499452199 7.21392614283939
