15
Energy = -112.56750963 eV
Cr 7.943689056780202 5.1128785007832205 4.605537189519232
Cr 10.045831117985193 8.53189469939733 8.276924326645144
Cr 9.28588025222798 6.823784366019422 6.465898292836196
Cr 8.64494370339929 9.317211564831165 5.916326895152625
Cr 9.149546402709527 6.013431086789139 9.143734286099527
Cr 7.776562244726947 4.930245817753167 7.057431340289515
Cr 8.427847689733124 10.190559598361782 8.113399964481996
Cr 8.38450634280175 8.102854347349227 9.976772798095968
Cr 6.925181789257844 7.162748639305531 5.191671064500441
Cr 6.556208065646334 6.013133884929389 8.993332984528594
Cr 6.264412720136974 9.221985602735023 6.609132106927832
Cr 6.31251658676361 9.358503249657744 9.151429532678574
Cr 5.666886157654752 5.502296025166305 6.320384674203457
Cr 7.602415368614309 7.563454007223981 7.73881971895135
Cr 4.940241776134853 7.3477573216121135 7.541020307917566
