19
Energy = -141.08959062 eV
Cr 6.2001304619122815 5.195577381646302 2.6908229804236505
Cr 4.124046084595077 4.163003656614414 2.812407076539499
Cr 5.119635841289691 6.939592164233196 3.139893525745851
Cr 5.948077754185585 2.8657069118708005 3.925629022005328
Cr 7.239148549696207 6.947901117677495 4.484500830825624
Cr 7.845290643704086 4.836496542788065 4.802878255292687
Cr 5.291712519003901 4.978637349635386 4.915602629604093
Cr 4.779793879357843 7.3127217404097085 5.404830022475989
Cr 2.875130970085014 5.91938490456777 5.000807470250382
Cr 3.4910005484007374 3.78899089776996 4.945842026712242
Cr 6.508449324501541 3.993057963051887 6.518136499712874
Cr 7.327784656739114 8.377801338739303 6.458579354323843
Cr 8.644865066823737 6.468416341355226 6.739548016124323
Cr 3.9863567647582836 5.346280427179586 7.205489487095135
Cr 6.389641343691219 6.096155238626104 6.990672910442762
Cr 4.9099082587543945 7.984188555918295 8.028477686280247
Cr 7.850394587061831 5.9063893398413105 9.11047858679173
Cr 7.627244830098973 7.766215680217846 8.944207450938764
Cr 5.278323949062128 6.550418481578993 9.318132202137265
