10
Energy = -71.62812445 eV
Cr 6.195725152143585 10.901459472085289 7.680791759455324
Cr 8.110839941888852 9.059302904686374 7.834430512826003
Cr 6.7823649749242385 9.1618446321359 5.910326808644845
Cr 8.401414852310996 6.944899724754957 6.453512915391524
Cr 9.637404154850902 4.70764082279879 7.611676155659563
Cr 7.39687033940317 5.056069713516257 7.887192635393848
Cr 6.06233619521561 7.23598575701836 6.846654678159837
Cr 9.49074562424326 6.798596645415456 8.627444560464774
Cr 5.4729501746069875 9.376810214350803 8.22400695269624
Cr 7.1017261660236075 7.276536220770363 9.070045654807007
