13
Energy = -94.43097607 eV
Cr 5.62049445314237 9.111294680291268 6.517457566344916
Cr 4.662236315054406 6.779599402465458 6.655051120624875
Cr 4.995633683806135 4.602290992923576 6.726375630495222
Cr 5.354411968794588 7.668043818088975 4.526892636655944
Cr 6.780776454948556 5.939554059215484 5.812663512905133
Cr 6.953494155102061 4.791774760252219 7.8779967998661204
Cr 7.665968846750215 9.306478571657394 6.800197329879983
Cr 6.705676820111695 7.1488278837705845 7.844811125777994
Cr 4.946235239954293 5.654382599677363 8.516423775116662
Cr 7.361566239476357 8.181721476874086 4.618382626752984
Cr 8.7208954725268 7.165937112680527 6.488037801621805
Cr 8.781425127481905 6.053297296469909 8.387275989259296
Cr 8.834984672268337 4.9805966894574905 6.612233217335875
