12
Energy = -87.99783296 eV
Cr 8.184445846043836 7.722692014520169 6.543060914265413
Cr 8.840520623735413 5.445391606350417 5.757750359753191
Cr 6.410858422195538 6.835536941778803 5.4609491144415125
Cr 6.3487451197487434 9.349604568237782 5.388068267233947
Cr 4.750927251611824 8.522510094682833 6.986433976485448
Cr 6.024238404074831 6.488621038619779 7.669351113296552
Cr 6.688290403380749 4.40786527900728 6.06549254184047
Cr 9.638966006688785 5.881482776908345 7.901951265737701
Cr 7.2406561927967 9.827709624248651 7.4876042323645775
Cr 5.749182486617273 8.79642763707074 9.072880075047252
Cr 7.603324548817272 4.626164205710342 8.192367378585235
Cr 7.799280032175018 7.375429550750841 8.753526098834199
