11
Energy = -80.04503095 eV
Cr 6.439411657578536 8.828194998677391 10.667560214251834
Cr 9.354426468027947 8.59104027863187 7.082722606280141
Cr 5.89014034033405 6.943461056468604 9.35622838943297
Cr 6.441256411490503 7.394196829793222 6.883970261501349
Cr 8.15427149926269 6.778266463060928 8.949433104999649
Cr 7.593849130747991 9.114863070357803 5.598731067094683
Cr 7.368079071903917 9.141854808378147 8.41900061689727
Cr 9.107984471242682 9.177020107425859 9.978751286801325
Cr 8.560087853631359 7.393960412479716 4.586696933007484
Cr 8.06907168982885 7.295651861363063 11.291500155686629
Cr 8.507636264608955 6.141794191308882 6.642461970606631
