16
Energy = -119.80199444 eV
Cr 9.427524048130683 10.855228260245138 9.370828312481954
Cr 7.782842442587184 11.252559082622144 7.683458837116084
Cr 9.528991949272088 7.218573563978533 6.315124562227464
Cr 5.355996687745499 5.345453797339052 7.345522849807532
Cr 6.930730885482004 7.3744128408662695 6.637744407147151
Cr 8.319547978188979 6.247814299326376 8.877150341616144
Cr 6.749756682216561 9.754224355424078 9.484027601822893
Cr 9.521640239846699 8.821428136156015 10.382543371160315
Cr 10.621001738696318 7.711074899862496 8.33023654351166
Cr 6.4772341571654355 4.510002755095664 9.174587032662505
Cr 7.760238993198463 5.112186597395598 6.863920615234918
Cr 10.412085578002568 9.85628674427491 7.426071608846884
Cr 5.837156712214676 9.424327238749973 7.245401908385035
Cr 6.053677850804267 7.184111379573285 8.939573098626575
Cr 8.380917663871486 9.638819202460738 6.1011983219677655
Cr 8.220545191158536 8.576981196426232 8.163366242043494
