15
Energy = -111.02369838 eV
Cr 5.544082394611858 8.583920965802738 7.7629020207875294
Cr 5.245676807729914 3.2523031687163226 7.168867654602141
Cr 5.116614045777454 6.211624759466073 7.633194308020065
Cr 6.636852615319293 5.023077942817365 6.412839692795188
Cr 7.079739482927384 7.323646223798538 6.026597495884637
Cr 4.489696627648391 5.106392722146432 5.064006509003032
Cr 4.75348928893518 7.5281594218725205 5.395277510722399
Cr 7.025995761128336 3.9525918657881984 8.739412271038121
Cr 7.35234941454357 6.681395205004027 8.456107634824294
Cr 6.4513361076798015 5.834805652750153 3.9672395180140234
Cr 7.177147770486278 8.748751963903192 4.141892860143976
Cr 5.92788774949678 3.0974545313905 4.80261306749654
Cr 8.752879302633971 5.315533018762661 7.447277658121236
Cr 8.182928883009316 9.208390646353704 6.871597053108281
Cr 5.983372120738063 9.852000404345995 5.83022319827252
