14
Energy = -103.67599971 eV
Cr 6.991957594999687 9.656918855656336 5.906959227062077
Cr 5.8270019537456035 10.258597233296634 7.812702445248774
Cr 6.681868441600083 7.402655550877165 4.308660129942946
Cr 8.336170446704726 7.459394095891169 6.159243678253425
Cr 5.640584113948067 7.655032935774806 6.7082011903066805
Cr 7.484577699497841 8.489244685824083 8.290064919344227
Cr 5.730699845215082 7.732136099856666 9.546387723571732
Cr 9.794801189320278 7.079453451116276 8.27491057539396
Cr 4.97132782412147 5.949377177741006 8.519945839866564
Cr 7.966813308599409 5.395195403987936 4.343953633775629
Cr 6.412086491921364 5.4597601850513255 6.262946411687303
Cr 8.708513653719033 7.5911357811870035 10.256618588532916
Cr 7.527824869181527 5.914560321476473 8.298908337602176
Cr 9.16092123477119 5.131737919015909 6.395195714330252
