14
Energy = -105.14159713 eV
Cr 5.746347741970535 8.587328508041994 7.51358002793778
Cr 5.381363398234711 6.441707680727331 3.828506484814772
Cr 6.928101098994824 4.787416078871993 4.811417406597269
Cr 5.651060805695538 8.8672551023775 5.064982639709327
Cr 7.523512007542795 7.637516074458292 4.49188974693796
Cr 4.850045360939593 4.519151583347032 5.79696962541924
Cr 5.374811679611129 5.439222468024729 8.128772617537157
Cr 7.229427408430255 4.233274978735135 7.265184270043393
Cr 7.908674527972981 4.840466117028097 9.442478891298776
Cr 4.137201002460019 6.93123472126012 5.714129026675167
Cr 6.422402816595577 6.591884918735176 6.336686031765213
Cr 7.250061263310374 7.023760309509682 8.823962209500685
Cr 8.668909880906261 6.330380202613215 7.053231043179198
Cr 7.9119501619477735 8.753270410881678 6.712079133196288
