18
Energy = -135.39998839 eV
Cr 10.051471785237569 9.022798848334217 7.565814210251137
Cr 7.847093151232602 9.686576129711918 6.806537316636082
Cr 8.840151464974337 4.014066814876367 8.756893388156232
Cr 5.219035883876412 7.414061502542628 3.88220516466117
Cr 5.614400907511248 9.652087522324202 4.911097223524607
Cr 7.688036951855477 8.106272694084273 8.439033977505659
Cr 6.121413403698531 6.41331033430814 7.793034634022114
Cr 6.69606139041668 3.972648096399931 7.449616032230127
Cr 4.247802847420543 7.624369895477956 6.183482038364543
Cr 5.432052814628866 9.324847589325964 7.415743615529104
Cr 9.274716743274853 7.45393361127603 5.901008155901336
Cr 9.694780341290606 6.923282581692401 8.83102057358118
Cr 7.564615235257975 5.691086527824852 9.744291641037634
Cr 8.475385125143013 5.836681684215285 7.197553680704134
Cr 4.874443389041936 5.420222491604708 5.850842100083083
Cr 6.906673937958267 7.674349113295703 5.856471448737084
Cr 7.148544694885983 5.417240742451148 5.131729570364421
Cr 5.359661786653762 7.651245664675511 9.693475312223688
