13
Energy = -95.22014785 eV
Cr 6.5836098329701995 3.9062922562230495 3.898585177671184
Cr 4.544679801249777 5.9210696757291545 3.568685581766101
Cr 5.946215545884355 3.2195628438726116 6.7258095103739235
Cr 5.5353592783660925 5.272643553265815 5.62038612192369
Cr 3.370787870733913 6.820269755183591 5.429797897803465
Cr 4.06081997075425 4.564998615732773 7.674015176155324
Cr 6.903550478650432 4.943401075738816 8.04991517600616
Cr 8.019532881564487 4.295344123340727 5.588876709081168
Cr 6.972772883289241 6.409673930002467 3.7999308271030885
Cr 5.34096972962974 7.95950411434931 5.053800436926395
Cr 7.367395364518091 6.560880325558975 6.319326868179472
Cr 5.334235212317982 7.3600384832419845 7.413491994339655
Cr 6.4607817613755945 9.152559317812846 7.305288759731437
