18
Energy = -136.0780231 eV
Cr 7.26741065942446 6.723685464704246 8.722701138838826
Cr 4.793951645219345 5.713274575962887 9.236036563103417
Cr 5.278492219123858 7.969808766714997 9.552702435203338
Cr 7.864405717145657 8.902046244760543 9.490374068815868
Cr 6.264437518116773 4.740459503187578 7.286887070082733
Cr 4.741755252299911 7.014611987493144 7.161298055461065
Cr 6.398167557557836 9.008382075863002 7.44712065225681
Cr 8.90661333733178 8.066691699284545 7.141403803157227
Cr 8.81622709832642 5.619597423581648 6.663791144378327
Cr 6.944952871136665 6.815416188219657 5.986240459398088
Cr 7.110787138703628 6.42305968192792 3.5200776096236064
Cr 5.10263985115356 5.522457301835109 4.831764297167471
Cr 7.700894159746313 4.553853447526393 4.823719720098218
Cr 5.111067097176848 8.03902355579971 5.033609492459423
Cr 8.054990211420657 8.801529498063356 5.078412298893624
Cr 9.219849844408115 6.836837594700929 4.627059725171964
Cr 3.848894841680113 4.825298846755668 6.734794758778194
Cr 5.788536085948008 3.2300126769238116 5.360758570931266
