11
Energy = -77.97045456 eV
Cr 7.95702097177486 8.352186666297833 7.581455125239692
Cr 8.152694981797866 6.099929080588081 7.810811585580654
Cr 4.653794702389515 4.851676050990417 7.02532163792251
Cr 5.27279509342147 7.0195445599755155 5.800077874515409
Cr 7.011979575020901 5.313307306137918 6.198426234043526
Cr 7.167556811346836 8.737450164697552 5.49629356053133
Cr 8.754234807224215 7.175976016600045 5.902313637941073
Cr 5.953956237474269 4.195478439512798 8.101207722577417
Cr 5.7042129484788635 8.595990083350614 7.182461821736893
Cr 6.115357948290758 6.6367755519362825 8.089441526406793
Cr 6.9669353971306 6.732225554263345 4.522728710721149
