15
Energy = -112.61409129 eV
Cr 6.8419054482385055 10.189796750437715 9.913154701156984
Cr 7.71005896418925 7.521700832634145 10.815928864282185
Cr 8.911299869872108 9.865625851456182 10.787185113365027
Cr 5.799930698564967 8.588896695076134 7.918535259889471
Cr 10.290787475363485 8.00660884210672 9.842688531613614
Cr 8.996362380900964 11.240768702659116 8.674905761832257
Cr 6.975855407253987 6.117288472339145 8.318622712318362
Cr 9.054442198338258 5.901002652793928 9.237461061386073
Cr 7.061710788427287 10.495123197100256 7.334786145782213
Cr 10.830330344965244 7.475527679546857 7.504427060194972
Cr 7.150652839013531 7.676749952174682 6.22118246312189
Cr 9.162323734325344 6.352042991824372 6.757273674230382
Cr 10.755857490451133 10.026420736518938 8.496198897409066
Cr 8.194803618091884 8.386956106335175 8.633703214957096
Cr 9.21267522248446 9.232675524680282 6.61585088531007
