18
Energy = -132.26611405 eV
Cr 6.0736798622965065 8.219085103343668 5.266341694267794
Cr 2.283534943361813 3.98290150948445 6.552852920994522
Cr 7.091110279140924 6.975855505780184 3.6746849586491734
Cr 5.75923215852897 4.890493588094813 2.9435750451229348
Cr 3.6502249314273283 2.0642403203444633 5.5590886015391145
Cr 8.003947572102762 4.56147533578698 6.193812494095408
Cr 3.3017310716756065 6.241785047200176 6.279945891043772
Cr 8.253417456079651 4.817690423056268 4.06780477223963
Cr 4.605970756963482 4.386001586692695 6.79947108694681
Cr 8.71433823781292 6.971709193046183 5.396469012943281
Cr 6.137925047734443 5.769964904572582 5.457144838701118
Cr 2.170924031435961 2.4028942927141332 4.591425291137292
Cr 4.289769794970654 6.735060680203517 4.194075830623838
Cr 3.9182867651042486 4.324517156203973 4.692907588091072
Cr 7.673306929184901 7.328059363548704 7.14725571779815
Cr 1.8105733958376584 4.825342683225772 4.915580190775885
Cr 5.22131431293145 7.146396158221993 6.922787878819028
Cr 6.14113425867114 3.4569489537406657 4.4451979914725674
