19
Energy = -143.97457301 eV
Cr 10.742603974152255 7.264531727399462 7.7550000234760255
Cr 6.043836656144206 9.361346856441727 8.866176848420334
Cr 10.340087743078008 9.733147891165615 9.06726287719359
Cr 8.71882449330927 7.410028937310251 5.906364697169502
Cr 6.785696935217693 7.334728468192441 10.076533831048938
Cr 8.449504704346655 10.927118687378153 8.53610580553681
Cr 7.232923159433288 5.140174284119262 5.9131991956024255
Cr 6.2473641532712145 7.3737309639091695 5.360693561802307
Cr 4.650927044985167 8.655269482293551 7.099804571114847
Cr 4.613369225723928 7.00091040549689 8.835519403393834
Cr 8.534484045239584 5.568807811071015 8.361306845623279
Cr 9.822301745674459 5.413834404589493 6.371574232397207
Cr 5.297692743109142 4.755539332034809 4.609745768232871
Cr 8.538581405576785 8.085685837425626 8.50551347169501
Cr 7.406521513904117 9.6101232420619 6.876916235194869
Cr 4.505334671980334 5.888697951625987 6.5092666405335375
Cr 6.650891087825606 7.080832701178577 7.472782520504775
Cr 10.042812050158906 9.41891112540905 6.669905915095902
Cr 6.136893745183716 4.737230989210972 7.966978654278266
