12
Energy = -88.25679149 eV
Cr 5.926816265166596 7.183504027435621 8.06768192045385
Cr 8.303759856665206 6.116235219833447 6.963661844891481
Cr 7.075664556652372 5.2176664961307795 8.76256713127824
Cr 6.417260721788752 7.1019129418691245 5.577626723458024
Cr 4.186158775012302 5.6032474296218755 8.21077770523531
Cr 4.0245905201460115 6.803067961158171 6.005680741938037
Cr 5.909620452017941 4.977021402863146 6.6115847162374966
Cr 4.246785638020057 7.968966451927412 3.9211716633435674
Cr 8.031732079158763 3.8597328315058355 6.306262161579873
Cr 7.438993182218734 5.173049081916947 4.42330080912549
Cr 4.860841476950396 5.127027051342628 4.366910696112994
Cr 5.861885022204381 6.951776346377398 2.9949595165887857
