14
Energy = -73.85714095 eV
Cr 7.575183284483152 7.235049861783721 9.280812940614807
Cr 6.291293191395529 5.580348501042605 8.468827089611477
Cr 6.942758623999926 9.059884954948696 7.985804698699093
Cr 7.511036246915521 7.015582037040832 6.9914869320310356
Cr 8.581669506157304 5.326635399757138 8.133075952623448
Cr 5.274536809895513 7.564575137949528 7.907582498838288
Cr 8.628816718299147 5.4431548196445165 5.632180838764178
Cr 3.915517943728561 7.636833640982343 5.907528836208631
Cr 5.969054301173188 8.46763688573815 5.862725042707967
Cr 7.044059190480399 4.291566003142621 6.688668611136818
Cr 6.557911515092167 4.774887392798268 4.434832341939887
Cr 7.188827147926124 6.932001333980131 4.62861887711827
Cr 5.511749676845409 5.964382784348335 6.114966916529823
Cr 5.005538223066132 6.719082212972169 4.0349892930278175
