19
Energy = -139.82544438 eV
Cr 9.68266134969939 5.278049595176719 5.323168984116965
Cr 6.851391284692123 5.354067361858633 3.9076982771246405
Cr 8.865219320112612 4.721813577367004 7.91364078031554
Cr 8.527958553585506 6.713360351133467 2.9650253326699434
Cr 7.437118143125811 5.816593682172115 6.349310444447019
Cr 6.326141064602591 5.423525550737983 8.333718932827434
Cr 9.142405841902352 6.8266977273245795 7.9650637838416385
Cr 9.571813053620424 7.635250787948473 5.317030788718906
Cr 8.03723016744148 5.498224569547095 9.909778086088801
Cr 4.060140156539902 6.678477058661262 7.9879108834727
Cr 5.251792321397523 6.353358547227959 5.829352469968957
Cr 7.6773234330260385 7.71667871477034 9.636371662999084
Cr 8.030321375009317 8.635407104061459 6.661820484840851
Cr 5.669649438450848 6.861749508958213 10.096042152891087
Cr 6.782922594629607 8.057683517678305 4.900808035691407
Cr 5.827375551594605 10.02517859217878 6.487924128702854
Cr 6.348601902708099 7.722882536139704 7.725520446518599
Cr 4.568173545907878 8.494815584265638 8.841456220876553
Cr 4.134954437792054 8.531164543359685 6.214259744111944
