18
Energy = -135.30754383 eV
Cr 8.026261985529024 7.28490664804465 3.719637234322707
Cr 4.563501694867432 6.561029193128267 9.32036103608267
Cr 8.654778290532688 3.9568668016286224 7.302029549705001
Cr 7.48120215229893 5.723349997147731 8.74337078354813
Cr 8.237870441469505 8.011211148310998 7.464609221122275
Cr 8.872742216762234 9.638882275431573 5.292543522619178
Cr 6.185460536939294 3.9758807413651907 7.017712416737873
Cr 3.602537018600128 5.474392134503775 6.3523083975584385
Cr 6.624130120659419 7.909805641288447 9.377576649664421
Cr 9.7227541167911 7.439288869636132 5.342448648836546
Cr 7.880839080368433 5.9448973234652644 6.153347419889176
Cr 5.3131430521942065 8.635267291902354 7.329951848079694
Cr 4.431313421379042 7.417447441151381 5.182789258914129
Cr 3.197865313999496 7.457488083196354 7.720701371199191
Cr 10.047691611212299 5.871570708181805 7.482840149619562
Cr 6.976429557509329 8.186204605742699 5.6210259744667095
Cr 5.935499315296926 5.722472206730287 4.749854881930029
Cr 5.682122190410037 6.270190713062761 7.275737023220708
