19
Energy = -103.89613045 eV
Cr 6.066316969267056 4.937960242371686 2.778287848420852
Cr 4.048952516674624 5.4645817448567 3.7622563819105963
Cr 5.299545371813237 7.482603421598824 3.4328941519851868
Cr 7.292704854120015 6.616549276822895 3.740161423350395
Cr 5.268343268042528 3.603317520215577 4.542297625315661
Cr 7.390823539728458 4.522863092199503 4.747140838991983
Cr 2.9892971413700726 3.9020719128658663 5.104478605260538
Cr 3.6822695229773186 7.420254204445926 5.04463436006478
Cr 5.89724179065621 8.180498481262509 5.5911318736023645
Cr 8.756225438803284 4.334606777644159 6.515536462238432
Cr 6.799494437321685 2.8849126283460107 6.256792716829772
Cr 5.530673586644966 5.936812802517009 5.532871333537553
Cr 7.853600833559496 6.507237735752714 6.019191607987036
Cr 4.713994623036439 3.82677867453049 6.795388879505372
Cr 6.449165756997881 7.265849005945121 7.713490933343311
Cr 3.3329842699013286 5.656063958560854 6.47460967623457
Cr 6.710696892744367 4.9315316524483395 7.344790015135487
Cr 4.261327025149245 7.784335042615703 7.306248696887022
Cr 4.68939561762582 5.774225281433395 8.330850025832973
