10
Energy = -71.51212238 eV
Cr 7.474902810143216 6.862788922565859 5.533003902028108
Cr 7.566669057699932 8.805142365541007 7.053391407656648
Cr 7.472275528240744 4.908350602455517 4.107807338947274
Cr 7.182871640544518 4.901539797255985 6.83945662402306
Cr 6.503841520721353 6.774588544954439 8.01139105769536
Cr 5.6152755820458315 8.758338251463343 6.274095614708825
Cr 5.423816666031187 6.869600502386767 4.486592885106944
Cr 5.045509141327877 4.509087984166814 8.374305025749512
Cr 5.488126711689213 4.3603215383200205 5.384722538531891
Cr 4.961683344012396 6.3029073657075685 6.83323818232159
