11
Energy = -79.13170852 eV
Cr 4.935380354391607 5.1556950156944925 1.9537166932731378
Cr 2.891343276100219 5.731934664150335 2.516485869882014
Cr 4.445564542310558 6.659451207775435 4.314049802424634
Cr 5.835358567138082 4.784097584672161 4.186521340834249
Cr 3.667013065082848 3.9222794568653025 4.15344316733229
Cr 7.567179960452092 3.9115956090358472 5.77651729519532
Cr 5.381555725783846 2.8706398580139574 6.048859840611501
Cr 2.4471393332659996 5.7292945264254875 5.3278334401038165
Cr 6.562135409889921 6.158357181738113 6.275417331951942
Cr 4.502596789640261 4.977441130883946 6.4499836727529045
Cr 6.407844698601189 4.742325487401683 7.6402832682946595
