13
Energy = -95.24949828 eV
Cr 8.150427796668053 6.2457605336591415 6.0831688346068775
Cr 7.6618097262944165 3.869410733687401 5.2181207121577895
Cr 7.939068784600974 4.768522733182829 7.910603751348145
Cr 7.629652599361168 7.600789041046746 7.942228653951575
Cr 6.058425119424939 6.030866645430294 4.895599791288826
Cr 7.137547195451833 8.48359272821551 5.2776793532586
Cr 5.520712369461822 7.394070210703037 6.671199140246005
Cr 5.838994725845529 4.528253742438605 6.628815889621282
Cr 4.284538269687865 8.065441354079 4.629489409608496
Cr 3.8292245365257944 5.802659523315648 3.8084428746468344
Cr 5.354002445782295 5.899550966403263 8.617955859450706
Cr 3.6909402065008297 5.743248891539312 6.235840733388882
Cr 4.783041719983196 3.6650020514388864 4.553491069575312
