18
Energy = -136.27889811 eV
Cr 8.800189730643089 8.421880615866703 5.8377187072539884
Cr 7.072002670595801 8.357142960169943 4.142361132125168
Cr 9.788011434524929 6.156424307565418 6.155630799300985
Cr 7.3467582962168585 6.604076909618982 7.174018836552563
Cr 7.919947195166411 6.156916535942292 4.611628703166177
Cr 9.203170705437977 10.036488453360155 7.599219146080177
Cr 8.25578365244084 9.344560795023053 10.134306553213015
Cr 9.244160950750473 7.595332441708112 8.467017622092797
Cr 6.6579633642515095 9.213414370523031 6.794136649620523
Cr 7.028658495794295 10.68739180005295 8.565537175399575
Cr 9.259116041287388 4.99839781633361 8.654631410431481
Cr 5.611274318908448 7.253096730872342 5.7812861844876124
Cr 7.83972252433307 6.627073336185414 10.298464526625379
Cr 4.453985273667654 9.12837243130872 7.492967273988935
Cr 8.140827159151103 4.387757696208015 6.781990272196631
Cr 6.431327345924687 8.092007809170285 9.13443792253848
Cr 6.629232487411371 5.219623546852189 9.035779077359512
Cr 4.753190253010742 6.742924308655634 8.060318881568447
