15
Energy = -112.79504574 eV
Cr 9.913874503221614 8.044469397972557 7.99547042414018
Cr 7.988856573184798 7.5901800542595375 9.645538727207327
Cr 9.38128039180772 5.771669564214633 7.861602190265434
Cr 7.577714420201964 9.583580168757605 8.474117780003356
Cr 8.558180056325021 9.010932387799107 6.395661884662317
Cr 5.559758411590753 7.935791724321669 9.348946541290166
Cr 7.314241853960919 7.057331531455495 7.4133822016603315
Cr 5.467435416612046 5.767136105547027 8.232570509194574
Cr 9.231637122113721 6.5938343187603845 5.592848949590485
Cr 5.422638583607325 8.480880024618033 7.062993755265632
Cr 7.328584647204902 4.885571711797022 6.167990442490833
Cr 6.938369809537209 7.414124596405354 4.839110904077343
Cr 5.180823580521357 6.046885001228104 5.710256068433137
Cr 3.5371000266447434 7.00563597284618 7.699228329908676
Cr 7.2487141154899195 5.359853414755088 3.941829217434105
