12
Energy = -88.80016013 eV
Cr 8.381075651296026 8.455888147568238 5.850260614265582
Cr 4.1017115136697075 7.155240631437467 6.117911035087267
Cr 4.58795256887115 5.084508419866705 7.3841424515343075
Cr 7.448165616124695 6.677099021149574 4.517311824700964
Cr 8.869785373782282 5.759927242533387 6.449478603059843
Cr 6.69549985112005 4.57618814086562 6.249593618176853
Cr 5.114266326312048 5.607756331124456 4.641217084966806
Cr 7.088835326632104 5.184840527535154 8.58799055413334
Cr 6.382938188608518 6.944584473448483 6.70452203610778
Cr 5.367405970722877 6.875028500824593 8.815599170356455
Cr 5.707446747199471 8.347857034065457 4.561208085167271
Cr 8.245491704985255 7.321656368905552 8.111339761768095
