12
Energy = -88.33269604 eV
Cr 4.249725238272773 5.097385252671812 7.043531921868474
Cr 6.388246809530734 4.338230866250581 5.237454616162268
Cr 4.557746885499766 5.680824505671031 4.605514088368631
Cr 7.097655640835687 6.356291202869561 3.9595660450781427
Cr 8.393751351239187 7.656057452014733 5.534994308849442
Cr 6.207926964294428 6.636329966405824 6.45916331680077
Cr 5.363138927844068 6.572218896463869 8.739549903250401
Cr 8.00716651873823 6.964517921811857 8.013436152562033
Cr 5.3894408154439555 8.010896883364953 4.433202811118858
Cr 3.947498377225453 7.439506421459634 6.520919133986106
Cr 8.424850968273725 5.226837993504003 6.028714158038224
Cr 6.9699574503379536 4.777496855679726 8.046206813051315
