16
Energy = -118.6991249 eV
Cr 6.695643678858304 4.43151961757357 3.9273573509098054
Cr 4.9666935239141266 4.140467235228082 5.572166456311821
Cr 7.980911363171908 5.034395120032351 6.0542780134719285
Cr 9.566866807992639 5.918435492552327 6.830019093821456
Cr 6.597669245058971 3.1040309394545695 6.869523064143042
Cr 6.303389270275036 6.54804294884013 5.14256765990402
Cr 8.049723548525598 5.313087278038844 8.426798669992477
Cr 8.365366872598225 7.681845704480787 5.561117731262007
Cr 5.727322464284301 5.677989590847964 7.232890671785703
Cr 3.89726145732448 6.535117446811158 5.294330162876338
Cr 7.46466492423819 7.267577665993173 7.603251398154315
Cr 5.771360494122879 8.820283990557188 4.939966866432181
Cr 7.2006665442062605 9.745006349078885 6.5798193354560714
Cr 3.322451483998739 5.747301162297235 7.319938359403434
Cr 4.9395743607426 8.074200654888243 7.067637747037437
Cr 6.327624887057655 9.09414735180874 8.713552946999506
