15
Energy = -113.11446643 eV
Cr 8.49537187054082 6.680131848925557 5.490021713886238
Cr 10.314028174712588 8.340865556879155 6.587305162786174
Cr 7.970601241104696 7.759466361014624 7.902661580616996
Cr 5.579121850446885 8.901903684283154 7.103545402479153
Cr 7.086397245010748 10.45611811117514 8.35451113701105
Cr 8.033057641725533 9.095838638729582 5.986486957173111
Cr 6.309994742336073 6.614124535203409 6.379597114370323
Cr 9.770850196537477 6.169484752506054 7.439084258201539
Cr 9.216190692359051 10.399921484892204 7.934139754386078
Cr 5.82877769862819 8.369147656980253 9.472480693346192
Cr 10.000832976787027 8.492640630636888 9.120362517881217
Cr 7.987606491781559 9.179396311992827 10.218270114616306
Cr 5.773941930194525 6.265552686339526 8.790935691658051
Cr 7.772414531950511 4.985053073033855 7.545300712083071
Cr 7.929333434473204 6.358875385996491 9.743817908093243
