14
Energy = -98.88942815 eV
Cr 9.605569675694861 6.7495077836323745 6.093514809163708
Cr 8.237059748400313 8.787877200785797 6.677487540214505
Cr 6.33596847720025 9.927275257441249 6.3032739735739725
Cr 7.068889676416454 7.433921111943573 5.3748375591552175
Cr 8.542217226612335 5.313314172876478 5.146757143599958
Cr 9.054331883763734 6.750369501681332 8.636228777681659
Cr 6.363890626941012 9.471192334608808 8.393684096654697
Cr 8.233079906861171 4.888268794519983 7.700691441531184
Cr 6.95944327191457 7.262561930662231 7.966525192964666
Cr 4.595926500939127 6.476647558532678 5.130932834200076
Cr 5.096588451517893 8.005852364790709 6.655692295934899
Cr 6.492951393007831 5.281686941821571 9.213649736512282
Cr 6.239398082797459 5.474354644261958 6.4511347444608695
Cr 4.638240067687037 5.988138031479907 8.089409088432419
