11
Energy = -78.91763193 eV
Cr 9.209870749422068 8.582521442978745 5.217705153697895
Cr 7.316829641568886 6.531262184736147 5.753351415885034
Cr 4.877731283717913 7.354600300230421 6.307685138508025
Cr 7.131213208320264 8.762906771987133 6.2565546878835745
Cr 5.137426739514855 5.569642636335857 6.492820155537097
Cr 9.22527824130525 7.252576465620539 7.098677800658352
Cr 8.252606559715696 5.054257635268663 7.952954139470318
Cr 5.424802565757161 9.103933419240075 8.46455411845923
Cr 6.629065928384253 6.677002341371394 8.065867638285788
Cr 7.899384045453499 8.636570714474448 8.615520320757419
Cr 8.80026351410514 6.379198565021814 9.678781908122282
