11
Energy = -81.11612408 eV
Cr 9.103522645424686 11.570013281771997 8.115543063954679
Cr 9.38433485693271 10.839855584765456 6.619571930439512
Cr 10.724006719401073 9.643702620918711 8.675804221280918
Cr 8.760407770414322 7.0596947149595675 11.205386055880496
Cr 8.326126577646109 7.52374132828547 9.089613102353951
Cr 7.5417392720758745 8.997481141809871 9.980172207235867
Cr 9.529512653814937 8.919296127603841 7.364992990620292
Cr 9.593863219395672 8.202068615436241 9.286729485059125
Cr 8.421307129790412 9.379858170110014 8.31900344032268
Cr 8.760407770414322 8.431365136351134 11.863691112456394
Cr 8.903057559427829 9.754676219741173 9.801246332150109
