17
Energy = -128.78324 eV
Cr 4.834363056792701 7.302720539223829 9.613691495221381
Cr 6.82782992198749 6.129116934261805 9.063620323439709
Cr 8.110531856184894 9.452495769077428 6.889601713295676
Cr 5.47769274671259 8.326407412468992 7.351461492044909
Cr 9.54207017627438 5.81430229800112 6.9368644622156035
Cr 7.095453240261766 8.75469033313178 9.00629967850837
Cr 4.888744290938557 4.805744975603709 8.340856063336634
Cr 3.3886901672203544 6.615357788926229 7.8974559188619775
Cr 10.218373360955349 8.218150084582843 6.791171501122262
Cr 6.621273034538881 8.700648050072912 5.038848102549636
Cr 6.654718113407789 4.760413821029093 6.586263300419576
Cr 9.128644457639316 7.76657282843907 8.882710228248275
Cr 8.557207162468798 5.290283156378665 4.893074965957938
Cr 8.958634948844361 7.6877443072577005 4.832606348084605
Cr 7.576535124518445 6.979118538603376 6.908390428552003
Cr 6.569942248662765 6.432675131655615 4.340138221242336
Cr 4.964333451015285 6.3785953897099255 6.04198311532319
