14
Energy = -103.13449716 eV
Cr 8.55004056680293 4.684001622534249 5.269218984646608
Cr 6.672930965402984 4.0266840814051355 4.218206996416716
Cr 4.8599608978622175 6.348882552948265 3.808092537813597
Cr 7.198388244546176 4.083784687740467 7.148410713916394
Cr 7.967710014771159 8.876263623883617 6.040811693726558
Cr 5.9626075936399365 8.343591681150757 4.860957807984339
Cr 6.092805763187903 5.642899765959517 5.700238224395802
Cr 7.743873182340565 6.6315413807519175 4.393375480430217
Cr 3.6798953932765146 6.8260274437571935 6.066641734678846
Cr 5.726212493062145 7.500696720611687 7.172813423414646
Cr 7.932633459869459 6.701582257494267 7.034789621997544
Cr 5.19963162019141 5.438892336864702 8.193901829577634
Cr 7.023748000147507 6.1671419225837845 9.309824401172934
Cr 3.344816576954227 6.908281021222696 8.692943519174626
