17
Energy = -128.59356457 eV
Cr 3.338798151121148 2.9597131329593798 2.3351388693118498
Cr 3.9524662399969226 5.710893236825683 2.456644655942667
Cr 5.302272973355743 3.8685120698308073 1.5438956510703097
Cr 5.02363284223549 1.7525798087389997 3.4342351954118846
Cr 6.2447887290157125 5.877134147292207 3.2923574860792804
Cr 4.759856168797443 5.190069369179959 5.059919608946197
Cr 6.668188637606869 3.466658382853815 3.450490131048473
Cr 3.773056568875011 7.220587774008791 4.36970203579994
Cr 2.578683896071451 4.511766259505274 4.058471219389874
Cr 6.383648233523887 6.795643867200551 5.933943716556237
Cr 7.471085750910982 5.054224247897873 5.474416103329661
Cr 2.2888764014911085 6.093214574639823 5.923711308090616
Cr 5.8195802453721885 3.161135471710845 5.826050037575508
Cr 3.523862309149278 2.5158350731707464 5.12782271543625
Cr 4.019617509475832 6.7507221771075665 7.233944074264043
Cr 5.552308935696614 4.9844963172409615 7.605809814164654
Cr 3.3363514316443643 4.123889114175758 6.910522401922474
