10
Energy = -73.32578887 eV
Cr 7.44054249943623 7.375895517472306 8.61603914644486
Cr 9.594460998490492 7.888157688677262 8.796794696697857
Cr 8.600054408329509 9.159642324286116 8.254366113107833
Cr 10.307696886531906 9.755263139858231 7.709778170614081
Cr 9.069770908624651 11.770663711331107 8.610696773035997
Cr 8.078370602919316 6.517481424125446 9.25478418215208
Cr 9.667608510871958 7.674393282268621 10.332843687906813
Cr 8.498103749018671 9.159642324286118 9.895484278570184
Cr 10.178350278758685 9.59954453742641 9.365586799762053
Cr 8.7176411570191 11.251914050268175 9.316225151708323
