19
Energy = -141.84286321 eV
Cr 6.499100183950939 6.030682814723534 2.3165940741141013
Cr 4.843690790341722 8.177124227764148 3.150161532690087
Cr 7.1060981743377445 7.313179074007819 4.220598277627294
Cr 4.186433750314653 5.923756570912878 3.4273593115848424
Cr 8.691184891898484 4.880255087826361 3.9197173907783363
Cr 6.13340759790927 3.9928031957310974 2.9237957793338936
Cr 2.84368013906152 7.509533369365915 5.239435107782638
Cr 5.046962135199882 7.475222619200461 5.833557224433814
Cr 6.363753952315406 5.1824350900600376 4.7801753976333785
Cr 4.336409281682529 5.255668163467075 6.095320090627198
Cr 6.05471540286707 5.647218936241188 7.551220505662315
Cr 8.674560158409989 5.703917650177259 6.047251112742879
Cr 7.9369058573557965 3.9347132726482963 6.510067642471408
Cr 3.6930641825078316 5.313380681350562 8.560865229607556
Cr 4.145920772275434 7.427398858418147 7.701554412982396
Cr 6.775767971237374 7.796784189415514 7.151855807165665
Cr 6.333759191905667 4.417098347243839 9.644879421806747
Cr 8.1807112994416 5.2125688547688735 8.759014695245337
Cr 5.835525355461284 6.48791008515155 9.848228074184828
