12
Energy = -88.00531771 eV
Cr 5.680122654889058 6.321967974896953 3.9797130242013057
Cr 8.1243458444453 6.276113492751598 3.784303947967056
Cr 7.344977215351713 7.041566764962501 5.978976390297989
Cr 4.337155642771924 6.623543836620279 8.613221513061857
Cr 5.242945065571123 4.71108356925235 9.401563326666361
Cr 7.360796642037842 4.155381107453626 4.439182913944015
Cr 8.358201910959997 5.1273676413179725 6.5159858919418845
Cr 6.251504091637486 8.548784523067782 4.416220151726909
Cr 4.679892957451981 7.766948325482091 6.114034080949377
Cr 6.250422315339147 8.0884239789791 7.8947585025653595
Cr 7.014218351941144 5.881174177544868 8.46820568248816
Cr 5.431815035407444 5.5340423354747825 6.470232301993507
