19
Energy = -144.33934233 eV
Cr 11.127653202258307 8.046818012920209 7.544511305483042
Cr 7.149186169324923 5.697906544748945 6.050983874393653
Cr 5.582570366112997 5.911383091779778 8.54233215654306
Cr 8.421180288945502 9.01717758484556 9.900838102127508
Cr 6.517302459771018 6.7027718487946375 3.962063075637698
Cr 6.622623612272739 8.484096941612712 5.640949378109239
Cr 4.618481311415826 8.405120074432883 7.667904962972183
Cr 5.508945199524845 8.096632659873244 9.869313763563316
Cr 9.063486081516945 9.037569397864683 7.166569953269191
Cr 7.361501927235182 6.819673834360107 10.473248807318159
Cr 10.615684985842051 9.923876145563732 9.225558353494733
Cr 8.882736519563831 11.187723070979427 8.203312933096305
Cr 8.870802492541195 7.501836505948552 5.228434130708764
Cr 7.249485390664359 7.596313301284467 7.761541735807748
Cr 4.996748979489886 6.633921740328383 6.301445554401376
Cr 9.7596617751681 7.204239508560715 9.331563043858283
Cr 6.767676397787383 9.9079985783385 8.443025825967979
Cr 9.636549198902602 6.169701757781391 6.851893343664295
Cr 8.100357702422441 5.195178267115027 8.646495120410954
