15
Energy = -112.19697264 eV
Cr 8.042979712813477 8.095409962275202 7.636108609864122
Cr 6.720910596608755 6.479450454867534 8.93739996557739
Cr 5.708667658131473 8.428950175692105 7.098153929012144
Cr 4.364982728053784 6.897947764900649 8.275962616794814
Cr 9.044102707976513 5.970466258178227 7.367490235201028
Cr 6.382591218202786 6.108123507532263 6.588940603311259
Cr 7.9761536851866275 7.298086268793668 5.146923369685475
Cr 4.449461959394272 4.857028920600573 6.980446964563658
Cr 7.266047252652374 3.874657427490556 7.0828876651829615
Cr 3.1443771045245272 7.168186039737734 6.254168659027885
Cr 8.450214716672724 4.99648407193061 5.240593715875709
Cr 5.2886707273450035 7.184065449489404 4.515656411328196
Cr 6.929852561224947 6.187105967639712 3.130945994018786
Cr 6.076800390105756 4.5585694812594255 4.619644106538428
Cr 3.7317336404298582 5.379446381787473 4.700978194297655
