14
Energy = -103.6672444 eV
Cr 8.677181608543753 10.605662876377725 5.483325445214751
Cr 8.342734032521898 8.396555995645043 8.537912045758473
Cr 9.685384140386038 8.476530448994856 5.436064390789413
Cr 5.841070407273678 6.7492857520479115 10.433168848470647
Cr 7.151945679229497 10.747960567169777 7.913243885540747
Cr 7.101591160961748 8.960443967321881 6.443519027550577
Cr 6.300441038517702 6.878903728161964 7.6262169553224535
Cr 8.66543316722738 6.476979440579425 7.2278179700192196
Cr 7.204643859787186 5.296136484337964 9.216371859353066
Cr 9.595780267814144 10.283374505314814 7.707067044621018
Cr 6.138486461581673 8.750717855564186 9.06089964345616
Cr 10.722147970450097 8.015613444772137 7.447956720478711
Cr 9.43851326120234 6.060423390046715 9.336013168518871
Cr 8.093446711124692 7.518990445601839 10.696227942836236
