19
Energy = -144.24224438 eV
Cr 4.572787656605018 3.7809169179029083 6.2788092441925105
Cr 7.850593548461169 5.318069178373002 3.5390541895809204
Cr 5.111390353125504 8.16293172178131 6.86071464477015
Cr 7.084179866492862 7.162813052187636 4.9548506805445935
Cr 7.451611992363718 4.516319026676946 5.732445529696874
Cr 6.67006822586603 8.798399261176568 9.098265734105007
Cr 6.6354423648282905 4.085141544169146 7.981746558734209
Cr 9.051793678322902 6.411353297306839 5.950399230729904
Cr 6.070895267902808 9.747265265971942 4.877750118821776
Cr 5.281900934297134 6.789434518440057 8.883965135182759
Cr 5.450780412017245 5.305642223341744 3.9180158298196446
Cr 3.2578757103500346 4.968063182820815 4.454660152646325
Cr 5.992859387917622 2.9591571650211606 4.533275265769451
Cr 6.707733310375193 2.026741885424242 6.700745336590095
Cr 7.38641466310146 6.477793444581817 7.721217713666637
Cr 7.531978580968447 8.811991626270428 6.7329299352674745
Cr 4.536337423432157 7.602290925835557 4.46199782029579
Cr 5.4919248977074195 5.877935570810573 6.329282227092846
Cr 3.103808206538889 6.4227213650560016 6.2461443452921745
