15
Energy = -113.793961
Cr 8.836269591639438 7.21895131704337 6.782918524621427
Cr 6.318743028379522 7.3455351275382395 10.180911335014185
Cr 7.286940788492871 9.214647091468374 6.406626571873119
Cr 8.533754347358013 8.328855559051375 11.34188700132011
Cr 10.845601643488106 8.197397578976968 10.271381040721526
Cr 8.759321311936942 6.707926546987593 9.858942355645098
Cr 9.796711360879215 9.194653208059512 6.278541222152303
Cr 8.704799636763543 8.627955036132992 8.565787879193334
Cr 9.865909405093138 9.96118291696181 10.433355182162167
Cr 11.107445848959857 8.072092993078638 8.030222309315759
Cr 7.158080371982584 9.53226721627272 10.091924945684731
Cr 6.595323360415987 7.545445079646763 8.565787879193335
Cr 6.61066211042967 9.989632890003191 7.729671118653233
Cr 11.191509751401695 10.005118732355937 8.513477478865758
Cr 8.985156907204159 10.792741194564465 7.821138667442065
