13
Energy = -97.32844369 eV
Cr 7.513322085049786 7.931091306570058 7.892724457013409
Cr 8.32742384298247 5.539620571203091 7.941097285883418
Cr 6.308421887317184 4.411419460964413 7.75957431838782
Cr 5.254912379384296 8.657210200891912 7.3828940091185
Cr 5.289253486108902 4.871171293187573 4.932554441958702
Cr 7.321141508980514 8.646159455042094 5.475642189516304
Cr 6.232084947471579 6.376553219563273 6.45620359597436
Cr 5.946564997433732 6.510711062897098 9.08362793624372
Cr 5.179938693097352 7.900471932468284 4.989043836133092
Cr 6.839537159274871 6.384363650297602 3.872177323399513
Cr 4.138806009166672 6.525152395078044 7.48183295760192
Cr 7.531329644408036 4.23945878661933 5.575486557423147
Cr 8.552707875837527 6.4420611817304 5.592585607859029
