13
Energy = -95.29869569 eV
Cr 9.4738789463026 6.8407972768066445 6.826090157905554
Cr 9.360854333594817 5.497684094926022 5.130929719761454
Cr 7.548467231447733 7.23156747316024 4.805319092895138
Cr 6.99933106990041 7.178199877407483 7.182554946661229
Cr 7.432527988387871 4.909555079618843 6.541274017302311
Cr 6.812576527565547 4.983902903363609 4.283522791418556
Cr 5.301251375104548 6.29736733288115 5.570063829907312
Cr 4.9970626490957635 3.752099908010606 5.737769765014681
Cr 5.055793528159533 5.571952919224776 7.9552736121352625
Cr 4.287267545783752 7.348326708630061 7.5117537627258555
Cr 4.078461264964188 4.707069522200348 4.165441862018912
Cr 3.055055973056238 7.145941980168518 5.058109484176411
Cr 2.8781895800258357 5.494047138482937 6.307943668913363
