12
Energy = -87.59459185 eV
Cr 10.283772614790108 6.06926212810165 9.749428757405624
Cr 7.894920580514967 5.644773755805944 9.444391097952291
Cr 9.81404564832067 6.055827949670116 7.34847210372566
Cr 7.3895910370355615 5.651939171434849 7.015470846019401
Cr 6.873628567689822 9.62607925334432 7.316469845713629
Cr 9.125641191080533 3.888875662883558 8.262573934555338
Cr 8.012965345361081 7.856825488989297 6.043214018116714
Cr 8.540361491530842 7.839587840522379 8.495129388587458
Cr 5.627840765523855 7.228550518407754 5.712928094519464
Cr 5.966432657746136 9.48023815614034 5.135313182550425
Cr 4.676567355335829 9.207558027805696 6.549702095280592
Cr 6.086697079720636 7.445389739235416 8.147502307961622
