10
Energy = -72.00500616 eV
Cr 6.892030378914865 5.224867324535032 5.063271025259671
Cr 5.386211951230303 5.242916873541097 2.9393040313431373
Cr 8.113229391847307 4.554213470261773 7.491394855401117
Cr 6.344267787770927 6.147705701751887 8.88359632315266
Cr 5.659313314373655 4.59342821026972 7.064661669129451
Cr 7.520540132719458 6.808445807484042 6.895199787888144
Cr 3.4162010949378843 7.015862487570482 4.487581894002561
Cr 4.172464174268887 4.935675654250188 4.7913906531246
Cr 6.102439291709656 7.249947491723103 4.593481164879579
Cr 5.048069637628054 6.886731153631348 6.5156872818419105
