10
Energy = -72.53163126 eV
Cr 5.801954858394121 4.692746643508029 4.887469924118358
Cr 8.011456348668661 4.6274129142499945 5.805786621426739
Cr 5.54188139850636 6.994922771006155 5.653065529761338
Cr 7.705293964667653 6.786579976421551 4.768135480543838
Cr 6.654338251401809 9.16147424191971 6.3048781223970725
Cr 5.558664617413872 4.692331969169792 7.243768644088724
Cr 7.730148287965775 4.978618444977119 8.150077697641468
Cr 5.744382006960441 6.99474318640742 7.989899278673885
Cr 7.926317174642828 7.148715236236505 7.048858653027141
Cr 4.575224492161087 9.072078056211938 7.297683449201513
