10
Energy = -71.69643661 eV
Cr 4.493436985204039 7.306621375736885 6.09688383266802
Cr 7.030061672415191 6.536353335018786 6.124435416827086
Cr 4.867031102250671 8.934288831484894 7.764362961709724
Cr 9.108855644878675 6.797578449382936 10.130229161660797
Cr 6.170277778656019 7.065909337670586 8.354923161442215
Cr 10.672668528266534 7.809257628089233 8.450520454302758
Cr 6.7498003755840905 8.847757295907648 6.199088583670817
Cr 9.157911547693413 7.804808874750025 6.014823577675105
Cr 8.624351933505586 5.776534672754173 7.947595255211064
Cr 8.17987014213802 8.289091969733226 8.057682765772208
