11
Energy = -79.15751551 eV
Cr 8.483133816960212 4.616998837095738 5.552111469010245
Cr 5.320659698202479 4.36392745473021 4.84202302357075
Cr 6.936025612232334 3.8991276779583703 6.576683802047466
Cr 6.509075299136499 6.216807909680223 5.312384011882878
Cr 8.224256646066154 7.737676950409348 5.750558999609379
Cr 7.096923798776977 5.861717324516647 7.576902549035979
Cr 4.766599623272801 5.240149749841261 7.212056940612375
Cr 4.5543141777030245 7.376266537178819 5.827092300420039
Cr 6.256547501757777 8.181701172210687 7.319762474179596
Cr 6.284540964518345 8.805498932041406 4.600407138077607
Cr 4.8645113474639405 7.043793977845742 8.740716677079655
