12
Energy = -87.95388204 eV
Cr 4.98212577978486 5.7710235155069265 4.704258197363314
Cr 6.347540025668426 4.480423995238283 6.505004391270954
Cr 5.018564535202201 5.878103386099667 8.569438032261408
Cr 7.146561824444276 5.297817083492492 3.9974672973931784
Cr 8.50125082483859 5.246424240287249 6.0298738635194695
Cr 7.5059360595820666 5.6225016289332 8.669753003040164
Cr 5.065882083910636 8.133753111262536 5.423023116103897
Cr 6.3975618804401755 6.800758414918391 6.669566383601381
Cr 4.624886353674426 8.181866414035813 8.055745692747362
Cr 7.340333885650564 7.556621604816365 4.372879715711233
Cr 8.590829275888959 7.469064868926221 6.600774329406959
Cr 6.886723239482938 7.969837540520191 8.810411675210075
