18
Energy = -134.69104728 eV
Cr 4.220648199344599 5.4940888754964226 9.65604607618372
Cr 9.391934318611103 5.987547325036255 8.996607759425613
Cr 3.3545456271187035 5.978324859464308 7.521058457981943
Cr 9.364497679371404 8.293018014929636 8.143226387830023
Cr 7.800470652694035 4.485043045574962 7.00244744520828
Cr 8.058480004513589 6.015692777413832 5.306221467315133
Cr 9.964806467552442 6.898969342715741 6.236520873980481
Cr 7.529273674854437 7.0915762604421095 7.205946375485843
Cr 7.275146133422975 9.601318940636757 7.8739642208885146
Cr 10.412558151300974 9.64428390449478 6.387758209136474
Cr 5.326091251936597 3.978432755557495 8.178965736646013
Cr 9.253458100787498 11.10107684430982 7.877910621760819
Cr 8.03131542974836 11.184390467795334 5.867060614173053
Cr 5.328223019941136 7.43213195652285 8.566918206250252
Cr 8.411043971014147 8.850907667665501 5.524191909071843
Cr 5.773486922396307 8.436485429061301 6.478093673505857
Cr 6.960109303547492 5.613368788431426 8.98948401351562
Cr 5.506420189555322 5.615320695079114 6.549387947946651
