18
Energy = -135.1163967 eV
Cr 4.540865362441394 4.604495795360373 3.143926422009212
Cr 6.599109531031235 4.175283948394966 4.925107974654751
Cr 4.593722460004833 4.977380698858812 6.988330268594587
Cr 7.141858020197539 9.402902861025584 8.150119555293275
Cr 8.996544751302782 7.142077254463027 5.890264724131271
Cr 8.23678563658227 7.207024859584838 8.177794905878596
Cr 6.393075266752542 3.494470318543 7.248165587079731
Cr 5.299672351488722 7.63659601943575 7.12374129605016
Cr 6.507699083919176 5.74352864840515 8.857277877656731
Cr 4.481416321945737 6.125761281797374 4.948650658945867
Cr 9.323091639036328 9.374788563176951 6.807139781749419
Cr 5.81680959677694 7.814058894994497 9.619074676679979
Cr 6.975836419167436 8.628534240349467 5.859884760390367
Cr 4.315806116405538 3.398332871107312 5.176740313747769
Cr 4.87755033678174 8.520899320088555 5.242843501920352
Cr 8.53244402136129 4.658085657124156 7.327321053309327
Cr 6.412363507788637 6.955266685343139 4.081207206441621
Cr 6.814834660894964 5.999997165826976 6.291894519346794
