19
Energy = -143.62549751 eV
Cr 10.649700501285963 7.059075313981954 7.963822813230641
Cr 9.093004433822097 5.964804998708763 5.7171593247652615
Cr 6.25758857841823 6.206774816239258 4.109517017492783
Cr 9.184531712783722 9.238376959468514 8.857566912987167
Cr 9.15230417752306 8.283774977923915 6.642865583585852
Cr 8.44171857519185 8.2349387448785 4.308336573132777
Cr 9.62459146935463 7.409306317282398 10.213109182302299
Cr 8.624459969577654 5.843179059578447 8.053897613026288
Cr 6.219448548773336 8.686190806024305 4.10280936148954
Cr 6.942498893894176 6.9260038421222525 6.116142597581873
Cr 7.75182717894971 8.662541881626717 11.192069062035596
Cr 6.847592261511855 9.273922064015922 6.491272668960844
Cr 7.745072430346896 5.925879247727829 10.372282694016487
Cr 7.56986859813611 7.9597557723577355 8.63484303657432
Cr 4.484655703824227 7.914755206150239 5.506231976212474
Cr 4.600609452441946 5.655755935502653 6.0719836098763
Cr 5.933872881364083 7.411371004746768 10.478171036892533
Cr 6.03727489360101 5.926433932652013 8.179772221135385
Cr 5.112471032053321 8.096348327588643 7.815823577678254
