12
Energy = -61.99833701 eV
Cr 5.060183256223464 7.052874567766838 2.4559887467466845
Cr 4.851782241430437 4.863968635159486 2.9858920338401416
Cr 6.624391589395788 6.369776718639909 3.901747191496195
Cr 4.341555750480295 6.514902061188982 4.540554753047363
Cr 3.366600928150712 4.464257245212729 4.7562393558622915
Cr 5.741683228065624 4.654452112919863 5.18804609896606
Cr 7.636679530586418 5.444092718242924 6.256380988198256
Cr 4.2516372558879665 3.168882194367576 6.327547310284256
Cr 6.003950014614816 6.9670534438047 6.066408730519728
Cr 4.466057871046061 5.379007599970076 6.961343196794413
Cr 6.2145955219123366 3.9649290106410717 7.35407498667413
Cr 6.367732541059902 6.082653420939982 8.132626336424764
