10
Energy = -72.50960186 eV
Cr 3.3134500345702387 5.684769667885774 3.665894441104
Cr 5.609708179487037 4.302542184752725 4.276428298672286
Cr 5.586888921021072 6.627910222869754 4.114571940271551
Cr 7.941950186654733 4.321000346041325 4.223202349702263
Cr 3.317400899245256 4.08498583219228 5.245922388178015
Cr 7.237859362247039 5.8548209725560625 5.837942158328416
Cr 5.81339539283608 4.265432023752373 6.778457836521987
Cr 6.035546848691373 7.8484891986316425 6.740238741149045
Cr 4.393875561829714 6.111221072035591 6.147312299749602
Cr 6.080810797103519 6.229714662968934 8.30091573000891
