18
Energy = -136.01276639 eV
Cr 7.5136515166108735 6.727803051027172 4.496017110000522
Cr 6.700549538709831 5.250474498663671 2.328335470940986
Cr 8.250849015835191 6.48428692870197 6.803806851562451
Cr 7.045321754163875 4.420662124737988 4.766104985199758
Cr 5.652504200929764 7.338048674432821 2.770674609230749
Cr 5.704253502284329 7.778270593497764 5.618271252713781
Cr 4.683227740181121 3.932056883714537 2.932964598517299
Cr 3.937145077472016 5.873467253888754 1.8370450589573382
Cr 4.918395174333099 5.820386371596622 4.4540928230876595
Cr 2.642672380438291 4.438412969638016 4.17344177009209
Cr 5.068571676281498 3.127835299631868 5.282120362209796
Cr 6.17642271740633 5.577409010983157 6.758910754304966
Cr 5.452595052773687 7.24449596436305 8.377231157740136
Cr 7.051984647166443 5.1610594271451555 9.199213052452022
Cr 3.734629338357935 6.914225736234147 6.795220646011274
Cr 6.0367441814243055 3.2694514268783754 7.43496191082824
Cr 3.732682428792787 4.622306045288686 6.42877055414733
Cr 4.700839321461623 4.935696403766611 8.854226884679694
