23
Energy = -175.01034995 eV
Cr 3.423251304685481 7.86431412704227 1.8764122410874426
Cr 7.457893650312375 8.102838266156468 4.550345454870154
Cr 3.4046020812893723 9.275578185600347 3.679579801494667
Cr 3.463165544095574 6.918062546138728 4.513830962341184
Cr 5.716132125151534 7.936834914370146 3.3951767631341907
Cr 5.955451437878304 6.61906514510717 5.672610181039606
Cr 4.939879850327879 8.842634049145257 5.8415558519411155
Cr 5.234034104773021 5.7608407911070625 3.19344477294554
Cr 7.697612663777478 5.931633559482924 3.777748650363708
Cr 5.233715696965081 2.6782775630042424 6.709461259176036
Cr 8.87597005175314 6.457540567474234 5.898753275084229
Cr 8.315321384004088 4.273314777303212 9.52461653294418
Cr 4.379490746305394 4.499551433205038 5.099384450380587
Cr 6.740992766681518 4.376231174446144 5.239180747381592
Cr 7.376954269773489 5.444643522239284 7.667804463228359
Cr 5.273059980451135 7.361552301650178 8.049171349104464
Cr 7.347678429177785 7.899942158207378 7.446917108539406
Cr 8.978453451477051 4.311809367423567 5.818367496917434
Cr 3.3763294300278615 6.62520194169873 6.473852338646946
Cr 5.164568365160886 4.946843024731147 7.5412565460139795
Cr 6.285886629436304 6.159372654944972 9.756669121505775
Cr 7.245608712156415 3.037953985811855 7.337247910863004
Cr 6.156009090278598 3.6965204118009916 9.45610202631112
