28
Energy = -214.3245396 eV
Cr 5.779311714889474 5.845732446063396 2.397274205208087
Cr 7.608568484665523 5.755596823863749 4.064472094933314
Cr 6.144338360611404 7.898708833411448 3.5616575612374715
Cr 8.613246010755713 7.845868865088015 5.219951690004173
Cr 9.843126404602357 5.432950610388849 5.157730702423504
Cr 5.494514262804875 4.160755002341763 3.7582159280893332
Cr 3.9364645755740746 6.869028814708825 2.472155197016144
Cr 7.771129220992944 3.638035551821913 4.845140059096806
Cr 3.339734333596717 4.929869849155036 3.268012636376433
Cr 10.10159397883389 6.003048361345823 6.922967882069901
Cr 4.9678475033857525 6.033622566656589 4.811741482253338
Cr 3.9714777719127974 8.334410202931558 4.160504102806371
Cr 6.220551386293052 8.084320133942176 5.858218527290299
Cr 7.514110442684121 5.812159000964384 6.363068392863817
Cr 8.577669973958457 8.066669288941375 7.273089505568795
Cr 8.69361084220454 3.732352798342148 6.966596525399703
Cr 2.6678994035914294 6.550664321956741 4.656589009778757
Cr 3.9892467417443833 8.036242851249474 6.575418144558696
Cr 8.011912441359113 5.919862572684826 8.651805239988494
Cr 6.008201738290739 3.6531968609482615 6.28360164119766
Cr 5.31520746350936 5.784471274539823 7.272080290797207
Cr 6.260485177723669 7.964034868978679 8.145534784821448
Cr 3.520420756524213 4.2008665514117665 5.764640059905826
Cr 6.710804654521344 3.9617763172540204 8.41886615816752
Cr 3.018926258393209 5.938162395587448 6.896925649523036
Cr 5.5617360972723064 5.9222599143093335 9.73115367281802
Cr 3.9705681032561646 6.7669292828648056 9.194089745564481
Cr 4.21470967862433 4.122209265076395 8.470892738354948
