21
Energy = -159.75605856 eV
Cr 9.156056142622663 10.610243541344722 5.807460621011098
Cr 6.73559942968214 6.475262529699351 4.565484185352415
Cr 9.610668061287582 8.867153618350635 7.33021296478104
Cr 10.881431231924193 7.118101685233282 5.968405699687356
Cr 7.307233925317708 7.920460415235826 8.399885824460668
Cr 5.5245120013415985 7.236846906233918 6.598949251168003
Cr 2.919227160436342 4.4961538190884776 7.587823169709555
Cr 5.253312836018353 7.001828709475435 9.433241021127197
Cr 7.05820519847408 9.32461739795609 6.001269746836622
Cr 3.4794666726954295 6.795223761285662 7.827334409038828
Cr 6.534067132988236 5.480505961862142 7.924229573784186
Cr 9.396281188248215 8.51609617132193 4.5984657330538985
Cr 8.203541715871946 7.203345187498636 6.237524814767663
Cr 9.325623129773433 5.633789377738713 7.4674100550590685
Cr 4.713289578628878 5.033414703597101 5.9312928683644675
Cr 4.97102943337415 9.168497061862617 8.015073314949339
Cr 4.315623057892245 4.573753832324047 9.302738562725224
Cr 9.571945147712452 5.6455155697940125 4.658894843431845
Cr 5.458368704607074 3.5444458003884853 7.374236846892124
Cr 7.4087330665471525 10.19668642644108 8.157450975610896
Cr 7.566501164316756 4.571929019718518 5.8526633093121925
