28
Energy = -213.97906016 eV
Cr 5.437460016558802 9.864744830943273 8.148483636448928
Cr 7.159572040049514 8.405139359498845 9.286101147234643
Cr 8.58485241536419 6.975877332773544 10.040911766927893
Cr 5.26176535666674 7.303804309878203 7.867316506406373
Cr 6.543682170747889 5.720505589692449 8.984396473858245
Cr 9.35651942325043 2.8818700877777803 6.541298132672286
Cr 3.925770130031488 8.789013290895925 6.634245370408769
Cr 4.675659160289531 4.667401997768427 7.821194869358603
Cr 7.209193048652171 4.115723226240415 7.5259479561567515
Cr 6.619299291984144 8.904296279868385 6.832568648516699
Cr 3.7571026139929167 6.089834249659767 5.999668945372517
Cr 8.078972792923508 6.808794509852591 7.4702503533185824
Cr 5.452442716712118 2.470757933862483 7.217978424841037
Cr 9.196301598437989 5.1580790440727995 8.11390000574727
Cr 5.381185927523129 7.8134810355906374 4.966104781796356
Cr 3.268985582557052 4.0873077712303525 5.761345009936967
Cr 6.338896705408019 5.905096044076854 6.220788539645791
Cr 2.644382729183945 7.830384756515112 4.544763214184115
Cr 7.946040354055835 7.678362387076746 4.938138966727908
Cr 2.255079574268371 5.52899572140808 3.635740484953934
Cr 5.474773703774165 3.8991658918661622 5.4282095358321945
Cr 8.544417949338103 5.189853006197429 5.57186131806399
Cr 7.5366765902988675 2.5849039666955 5.300080152949728
Cr 3.772820652802489 7.949850348104298 2.6663065197250635
Cr 4.61503530090683 5.673867923823576 3.6824018425843397
Cr 8.643551524134075 6.659777726277887 3.2581824442441114
Cr 7.064699266211121 4.878906734878686 3.805341485149562
Cr 6.301651159179484 7.2898061149042865 2.783523732712053
