20
Energy = -151.8546759 eV
Cr 5.259096934244774 5.919532851604346 4.033134209891395
Cr 3.7991025648087557 7.522516898892111 5.073716733644086
Cr 6.652435154017743 3.9665064052001964 3.53366856616028
Cr 8.021029776342877 6.042256376019036 3.6782744488676706
Cr 6.607406122443494 7.714159167990223 4.615298801984714
Cr 8.175786790182734 9.487315410503683 4.985499366685614
Cr 4.358774299265341 4.568425690853035 5.646629957285588
Cr 9.232581680329112 7.2371767283389055 5.313542749863172
Cr 6.449465467228656 3.1165499808262607 5.6488203897964935
Cr 7.0982259735834745 5.346530220200411 5.983172495429296
Cr 5.175628738011725 7.022358880626073 6.748026763537235
Cr 7.818543828033529 7.695611474450903 7.0312908822022
Cr 5.936410723444434 9.382935157661441 6.604288811218948
Cr 8.073690415968894 4.324597257311812 7.8960102815164355
Cr 9.340843319568883 6.218271516501623 8.039843974060517
Cr 5.248249056777339 4.460182491692369 7.776031368412314
Cr 3.207790077766247 6.055947785993277 7.709674085681977
Cr 6.627991750680136 6.282824946653845 8.669992985506745
Cr 5.920154144527946 8.69328569557784 8.855459880409736
Cr 4.400909273742907 6.34713115407201 9.561739338814865
