26
Energy = -197.11351748 eV
Cr 6.052613776083847 2.7982143175299727 8.099838501723905
Cr 5.687320077750516 5.033779559605797 9.908202548065201
Cr 7.962897458309503 4.407482332445645 7.696734018299532
Cr 5.9163256970692855 5.213425085695413 7.555574857719727
Cr 6.812292025172779 2.8998866541880406 5.691658015530621
Cr 5.113913386879055 7.516845270147959 10.079495627312566
Cr 6.8461228723125584 6.983243813374691 8.426498880570673
Cr 4.100732047637531 6.572827296477607 8.277823611308213
Cr 4.507838904898129 3.470822913882707 6.595215323585921
Cr 7.955372761283327 6.532632640926674 6.634593575963335
Cr 5.109332606897615 8.998276334002876 8.249994530805957
Cr 7.366957191858114 3.183861338281631 3.4310435489388866
Cr 8.602715562127408 4.842713797173314 4.9483206286280765
Cr 5.463128162741774 9.975051218823674 5.753957301206618
Cr 8.927741105846584 8.154847271666064 5.680691748926572
Cr 4.085349006311651 5.902959077191881 5.615067723097561
Cr 6.494609820388092 4.978575209970423 5.171900088076019
Cr 7.618083670896779 8.971979820362437 7.0766875046901685
Cr 2.5066946229658704 4.6650307059902385 4.711466953643696
Cr 7.85325706569808 6.978662559678228 4.15403078326843
Cr 7.109568596775324 5.10812267254187 2.550359301530601
Cr 5.610703603128151 7.626112084900044 6.287938853238586
Cr 4.767167257902251 3.907644761996314 3.88926537714993
Cr 5.450985455102745 6.731384441412987 3.5669267669153397
Cr 6.771631544633376 9.097228287229806 4.495693405732385
Cr 4.108841366123153 8.250586181296011 4.2532161708640785
