29
Energy = -226.06275834 eV
Cr 10.254545807051755 5.911909391049909 8.125221739510279
Cr 8.641805952375254 5.907906188246008 10.264539894921748
Cr 8.923034231812046 4.924287151540972 6.123723912311677
Cr 8.949273586728733 4.068678782448467 8.55278150372312
Cr 6.987114471755137 4.573390689568901 3.9659748534404424
Cr 8.573701330838691 8.283148725188616 8.82030750075494
Cr 7.645297368136261 4.007458580409276 10.96664508808243
Cr 9.222643947162076 6.93314184156004 4.272356500269441
Cr 9.149957694339196 7.423263309258725 6.664309952919844
Cr 7.182837500558284 3.7373741436469046 6.323765845365378
Cr 6.963366799839752 7.8847919659818055 10.411235770647405
Cr 7.079918471732147 6.122033132864864 8.100081572885374
Cr 6.56028039111975 3.7820885027676874 8.771023440284733
Cr 6.931575801580917 6.392807086080385 5.252432377824695
Cr 5.954499286043815 5.6681739684947905 10.628488109798557
Cr 6.791121508544259 8.245468111929528 6.723143352285686
Cr 8.066507561289116 8.972779126604715 4.762851042068678
Cr 8.911547889084503 10.091582485021677 6.694191664628462
Cr 5.176554771164832 4.793710636692831 6.483038681181266
Cr 6.711755287735309 9.972216147286135 8.225650171122798
Cr 6.802042160784627 7.8595360139457044 3.092429591676768
Cr 5.140216430933613 7.697908824255117 8.900859541701578
Cr 4.544166794161319 5.195363786572037 8.81083781850817
Cr 4.634466742926653 6.5088014148792475 4.3293875563598885
Cr 4.636131916969992 7.102399626894587 6.714359033833848
Cr 6.523272207154664 10.789024215146929 5.365966578875933
Cr 6.540021550024807 10.370861451551711 2.960364767089979
Cr 4.470920480078054 9.639559205547103 6.937055688457556
Cr 5.368603167804849 8.749733637890385 4.777030615613799
