25
Energy = -191.42614716 eV
Cr 8.695092338209742 5.821288040180776 2.7737768982631965
Cr 4.2137156422422155 6.851432062515145 2.5441621183110015
Cr 6.168447233221108 5.15185024188521 2.9023197827172607
Cr 6.514207949259438 7.177559496502328 3.3468530389633506
Cr 8.142421325917264 3.29890292270064 3.180170271877375
Cr 2.60660470204553 6.629383428025778 4.777618221129231
Cr 3.6098580666822166 4.740154667759059 3.748858519430167
Cr 4.275334964598005 8.318326175179665 4.613408959508739
Cr 7.665497233924164 5.330353966891664 4.96524098470138
Cr 9.018471089740736 7.588469658248584 4.147465976841652
Cr 5.725252643866377 3.561947398762114 4.8720136108218774
Cr 5.210617539931218 6.258291445910147 4.977235905487513
Cr 3.762698276804131 4.49734881715991 5.9804922820160265
Cr 7.337625027554033 7.407755145136071 5.875493814964696
Cr 7.642596876211227 3.0546675918764543 5.672041906255754
Cr 1.6176230938756337 4.939118192642615 6.724047890140354
Cr 5.33207612283846 8.109155778643984 6.94858804904342
Cr 3.413834402141829 6.827296236955544 6.886513032895129
Cr 5.425302172531287 3.0471087433125175 7.3927595622886075
Cr 8.340582658107715 5.173565210424407 7.3119787866367
Cr 5.975313997007121 5.302410473269416 7.253505100441663
Cr 3.144721813830341 2.8617664448135716 7.96602340995531
Cr 3.550928517436635 4.773683587290091 8.56052964181711
Cr 7.756135783496392 7.163437336351083 8.235817245607405
Cr 5.526077156943753 6.785763565979351 9.01412161830167
