29
Energy = -225.31300389 eV
Cr 6.635344514787028 7.24898133774443 2.571310942316208
Cr 8.693549446007255 7.499521240467123 4.485708134033513
Cr 6.527080099294106 8.067701288717867 5.088875223395067
Cr 4.549862855502075 8.696668268537804 3.445143671425238
Cr 8.706784518619227 7.857629256834343 6.882279346848402
Cr 4.074371258925798 6.81479742916025 2.2570402977550543
Cr 6.010794673941793 4.782200450216982 2.410530172938949
Cr 7.47711929408889 5.510835826741473 4.242720246703574
Cr 8.4818053471777 6.3413339713068835 8.697098438100962
Cr 5.048126257285013 6.204338797114359 4.501708015448745
Cr 9.522104403663175 5.408413533714909 6.134504006511628
Cr 7.200854610099078 5.93632328726201 6.400628948722746
Cr 6.493549806414581 8.101150292232552 7.669993890698099
Cr 4.21620887108381 8.604744086359897 6.153383512803064
Cr 3.9039979861278433 7.366823494309171 8.844379703299987
Cr 8.392403634636024 3.599983976842653 5.508160338893027
Cr 5.829074874756368 4.137602814696746 5.684226630974221
Cr 2.7580736469025378 6.920890271608187 4.497991667807374
Cr 6.5097845599516155 2.848689402784299 3.9616387612848585
Cr 4.797816393132554 6.381735693033687 6.723950941720589
Cr 4.042226836281548 4.265466779732462 3.504491241127047
Cr 2.3840496140829948 7.207640894883091 6.866365017882592
Cr 6.0616138977168665 5.730564954734945 8.795632733232427
Cr 7.714981608622005 3.8871832147160297 7.72215923115061
Cr 3.1346491329970174 5.103562991461785 8.512598816769275
Cr 6.557277115059177 1.9391383623182816 6.7055528642820885
Cr 3.933263677167323 2.549678407616909 5.422013940493364
Cr 3.054882496238163 4.772044938555718 6.0873927968062045
Cr 4.887713210003966 3.663902380924749 7.80287931086647
