20
Energy = -151.28579684 eV
Cr 3.069519096476783 6.8176095450687635 3.5504579103115974
Cr 5.5041803696822145 7.24213167307673 3.6130738438496115
Cr 4.851651300300455 4.64606974959341 3.1098339392953624
Cr 6.707332974893006 2.6802640530649096 3.86059788215716
Cr 7.056241261797808 4.964667233177468 4.41261632471676
Cr 6.724714583615261 9.188673153663176 4.9948802617320975
Cr 4.099567078072072 8.747898605965528 5.008184873198195
Cr 2.8260111202944698 4.991180827432138 4.698034251486191
Cr 4.988622473698906 3.3979007178787923 5.311454296142462
Cr 4.852907857408353 5.966245593158146 5.419411421254579
Cr 7.673126624598439 2.9045687747316924 6.123684166059937
Cr 6.832955292289079 7.088146941759275 6.092287564020391
Cr 8.861307364162021 5.483048375060044 6.4918873223208955
Cr 6.455229794210006 4.4847320667859565 7.03893247043624
Cr 3.193530817369782 7.376262893757759 6.31854080728908
Cr 5.362616472693917 9.144251064237979 7.033500110977791
Cr 8.655426490907185 3.9998441557771995 8.463369557100645
Cr 5.313553325797895 6.908554753297561 7.915792799233913
Cr 7.714230110191082 6.637064957505642 8.542225356218092
Cr 6.939394250015251 5.013003523481696 9.683353500673158
