27
Energy = -208.33070293 eV
Cr 11.25940375266066 6.417789475285393 8.301722574864224
Cr 8.122077357006033 8.840858170182855 8.695483073536414
Cr 9.108857850163389 6.901036716127563 7.1499480811677385
Cr 10.599321546368403 4.557436979128807 10.358440377820639
Cr 7.0311421555925175 6.571945490932622 8.518853176484463
Cr 10.944360308500562 8.066810539435988 5.88979933347482
Cr 5.6869270660336015 5.339622361117859 6.990545325197435
Cr 8.636826834032371 7.211667688554903 4.795676699061641
Cr 7.681611216992178 5.253878255255776 6.309692221377759
Cr 3.6850181239113864 9.758469503478256 8.116394273586842
Cr 6.222681166042564 10.080847644236668 8.042216540138241
Cr 9.498423954385371 5.885923970104362 11.945806182415074
Cr 6.6731478777829105 10.575708861493647 5.662351409748606
Cr 7.625222990593387 7.7983786327135745 10.910748371386827
Cr 4.522060213377266 9.516495183002691 5.956743454566116
Cr 9.547905280112305 7.005582806609395 9.824328726821108
Cr 7.537787440393908 5.271413166234111 10.524443783129582
Cr 4.358569814104084 7.335163776067811 7.697055063991111
Cr 8.616022117573761 9.343966162395674 6.568127475923407
Cr 6.5463846463013144 8.93226629154649 4.214442659140703
Cr 9.048597982612023 9.44202992250084 4.21828942755076
Cr 10.747624915069844 8.869060332102112 7.9461826629924674
Cr 6.5710431998108785 7.8930336519454265 6.464215070684513
Cr 9.00512237910277 4.762838015470215 8.643885904542387
Cr 5.6642816952319315 8.245787524431547 9.472133736559904
Cr 5.931250424033267 6.197330968839619 4.602367414293405
Cr 4.258664243210003 7.216427081502335 5.205408624064851
