24
Energy = -183.61299125 eV
Cr 9.824031218266489 10.429286668318175 4.272986333980838
Cr 8.573204372375038 5.255745986367222 9.166154232256853
Cr 7.202868900231415 7.344259766194493 10.527793503706954
Cr 10.422994043680076 8.003821866349353 5.412955826524839
Cr 5.388571110707746 5.029608081316761 6.687989036324956
Cr 7.629384962770733 8.50591594775765 4.0459813142567995
Cr 5.236810418711894 8.487018293515856 8.790856198327766
Cr 5.772812059657491 5.247555175393415 9.408398886892881
Cr 7.24346420962664 5.132861342193545 11.371192147357954
Cr 6.402779303356631 9.75587744318067 6.810793992999411
Cr 3.7058406923698817 9.121293609727546 6.909814365069102
Cr 9.903053644343778 7.519693212055585 8.109827424092687
Cr 9.937222707787296 8.892191532703594 3.0052818921136812
Cr 4.881263593256199 6.9995827563142194 10.867583190013839
Cr 9.285387928990264 9.897242906700654 7.084454203207162
Cr 7.228507977588454 4.141285142919114 7.6885548062798765
Cr 9.297887983203 5.826478169614972 6.75519974771203
Cr 7.790968396936706 9.370065108465228 8.674889887711533
Cr 9.154691379124479 6.52716317592976 4.235069514905713
Cr 4.226280706542197 6.566521876271786 8.018508326305865
Cr 7.048147479812916 6.926934805699668 8.110049087990824
Cr 8.149542466926418 8.098639758970767 6.2288231851391025
Cr 5.360854569161137 7.687428426448278 6.067352310848776
Cr 6.982322608132893 6.115429822572388 5.397188272648979
