21
Energy = -161.05260482 eV
Cr 8.64808150959007 7.987676165146245 4.957193651819162
Cr 4.030305291462489 6.571078983377017 6.483980536838134
Cr 4.615536869611979 8.539752994501313 4.710466797307341
Cr 6.009372764122362 4.759826471073707 5.661622790313117
Cr 7.024148260694659 3.7787214950176304 3.8116058222207063
Cr 8.393509254706672 7.118273229595812 9.893396692176118
Cr 6.661776329585877 6.342285851433379 7.747366057754653
Cr 7.004807839479467 5.2134456361724855 9.742844184342234
Cr 6.479598600207013 8.18975242760717 9.204017146059785
Cr 8.570920098686223 5.56791056993925 5.534378276060403
Cr 8.633835363381262 7.6645574522726445 7.43553090740367
Cr 4.9433937605173 5.92211568228497 3.7595826350133335
Cr 4.525710738105433 6.696741464732665 9.347414918632014
Cr 6.614659814184192 8.616680765849093 3.3534944029491642
Cr 4.361042619764255 8.653237911803881 7.462718084918782
Cr 4.7611804983993045 4.879225886400088 7.888811055036044
Cr 9.07580006069021 5.269682274983747 7.962102359283287
Cr 7.335576728836286 6.102158920976959 3.497800677003465
Cr 7.420108131153662 3.8158737655440382 7.308752543073441
Cr 6.388566385460264 7.265475981915217 5.62225333621739
Cr 6.682228637661053 9.188018904033108 6.8547912512264855
