23
Energy = -175.87812144 eV
Cr 5.902924264467954 9.239049857994717 4.961488500550901
Cr 7.316748334873792 7.745332411954776 3.225969428622836
Cr 7.236453065968615 9.64651197423934 7.286024046673357
Cr 8.582252407578864 9.655784548973923 4.780064577754972
Cr 5.049135763282418 8.130140767896533 7.074970824907578
Cr 5.037033100549643 6.9737302457892465 4.508854659837376
Cr 3.556711841201277 6.158350924120051 6.596406502834461
Cr 4.741212664766278 4.292457602460032 4.903408968741487
Cr 4.369934008919152 4.39571483579097 7.779996135850027
Cr 5.124723705089556 6.45619164977452 8.914956900013285
Cr 6.082744811036658 5.817722838355782 6.499485203244635
Cr 7.068346904404003 5.45265372484992 4.3952313532495655
Cr 7.2369205628689794 7.130272912426195 8.189059449384112
Cr 5.8775897613941 8.816462727100099 9.597776948347311
Cr 7.320844540855599 7.711615691992231 5.7659006267275705
Cr 9.562006181981985 7.933932651874756 6.856400759539284
Cr 9.192734497998888 7.089431127810082 4.251924951035501
Cr 8.547111130906478 8.467104004579957 9.340844339775364
Cr 8.68585592590927 5.504437029777608 6.698837092448614
Cr 9.468885054406531 5.996706548237161 8.828905884144758
Cr 7.18695236119966 6.518058748870497 10.610535462369134
Cr 7.073726605959186 4.4783310760201385 8.537779944512126
Cr 6.492716152920972 3.481665015996396 6.3090979504640545
