28
Energy = -212.76837314 eV
Cr 8.424885022472566 4.741065087609169 4.506539176202708
Cr 6.481491611497215 3.1807997833218224 4.850755467056661
Cr 4.696033260806622 3.241781867634032 6.662029542266086
Cr 8.308232644514007 7.829587570377967 8.73449739924509
Cr 10.144352654716496 8.234210969151254 5.725509346164947
Cr 5.10766391762179 8.514838190699106 6.640184259457503
Cr 10.201594291978996 8.826829914227057 7.401678138229414
Cr 9.061558677231638 6.476920594358139 7.168683644390043
Cr 4.347121016136279 7.0068336752569245 3.5034380789416617
Cr 2.9341420328028214 5.148283627262847 7.791472834543886
Cr 5.810669561375232 7.056599977531881 5.210139923462134
Cr 4.726576412414961 6.79081949283399 9.180470440157764
Cr 6.579335613805314 7.704581788623328 2.9949150853539406
Cr 6.697338631811194 2.97555434874496 7.5329031785517815
Cr 6.96567392267244 4.764170751509612 6.240311775492341
Cr 4.6012699110294655 5.7571566140881725 6.873604494680239
Cr 6.696718662877472 9.241603876484811 4.521747219796791
Cr 7.733955627193792 8.632013975852907 6.4855723849063525
Cr 5.681333515248655 4.54791045268199 8.704229765067868
Cr 6.743586391211949 5.448806661150501 3.462606884725906
Cr 2.7034724310575684 4.583198732845656 5.786275243490424
Cr 3.3014829662323373 6.910461670893312 5.608831622442222
Cr 7.717322078972074 5.1551769106501775 8.801527003292474
Cr 6.429976694837385 6.932605657114575 7.79885612812598
Cr 6.743541745484381 6.416403274058917 10.189881250236546
Cr 4.775768528604233 4.779955623878266 4.582932055788023
Cr 8.139883318299276 6.972763958057298 4.957423108832897
Cr 4.561029549685501 8.979791809232093 4.330972588348363
