22
Energy = -165.70986651 eV
Cr 2.0153947324834656 8.778202082862498 6.919664851581991
Cr 4.150660121721041 8.023485403787726 7.937753650533736
Cr 4.452349662991168 8.078842784923355 5.887267872194784
Cr 7.946062113779351 4.723795557044363 5.929520056905124
Cr 3.0515082949493384 10.160450671314344 6.898785092028123
Cr 6.934825811340017 6.915317921427168 5.196114829813572
Cr 5.850568618915646 6.115004890895342 7.007301953268443
Cr 9.317530001535372 5.749468995871122 5.368154393064532
Cr 5.492385882147664 10.098926791614945 8.083274236497527
Cr 9.93777799374835 4.162785421117402 7.302368467586039
Cr 7.548715124389538 4.832682930843936 8.414450858438634
Cr 6.42361797729825 7.407161090970534 8.74962469244011
Cr 6.660142328717541 8.644939791732101 6.685869082359927
Cr 8.562337634021018 6.810539248755562 7.4329750850458565
Cr 8.057331116843724 6.354363810339287 10.057498521686401
Cr 9.008525914736898 8.477270231180363 5.95247042554085
Cr 10.209423113751356 5.086814858931804 9.05098880331824
Cr 11.062817331125244 6.6767306486611355 7.100385654199633
Cr 8.367830598930569 10.613433778839461 7.360851388011963
Cr 8.040742509347536 9.243068201760034 8.911577477671546
Cr 9.893939044932065 7.540659761389431 9.454875030588406
Cr 10.436762357538242 8.84938328373802 7.647363612003832
