29
Energy = -223.07195616 eV
Cr 9.668976367017898 3.1290708590438063 6.658054227025688
Cr 5.495531364780863 8.17064342471526 7.638404142914496
Cr 9.749354463282796 5.670416558467365 6.46223614754661
Cr 8.837338920680304 5.1613629074267156 8.268884134204564
Cr 6.6333068943897775 7.456054444437004 11.916971736973343
Cr 4.724533803126398 8.447616441524232 10.227570812866574
Cr 7.271636639774506 9.769953789009428 4.636214195847298
Cr 6.859395739729087 6.27170738248869 9.414959809691718
Cr 9.73813152346472 8.730895456451472 10.235828912433224
Cr 10.968304906734305 7.869501955570399 5.620952027485365
Cr 9.281916011971127 10.28693979538947 8.720231019413962
Cr 9.73387876027084 9.9414045616152 6.311454754697633
Cr 8.803921972767968 6.645980902420131 10.578185955130454
Cr 7.4437777785469 6.875923133677215 7.000972456923618
Cr 8.581673414874532 7.551523483638218 5.380668238782256
Cr 5.158967063512719 10.529972099216005 6.235272817155466
Cr 7.186589702690559 8.537731739607336 9.434562086572653
Cr 5.629817121581957 9.965037453752265 11.39760931708311
Cr 11.421112147445994 8.837453842350227 8.157082941388666
Cr 11.79851904121641 6.664688605648398 7.019797570548981
Cr 5.562619568639383 10.628150935309126 8.58737688029404
Cr 8.141169918942921 9.000604445144745 12.092812172679706
Cr 10.537742996083434 6.155382400789806 9.110645307553423
Cr 5.937075256096525 7.97833635005413 5.266571712168628
Cr 11.219141035614621 3.91922401632504 7.87708969400376
Cr 7.33586346041429 11.522781754503853 7.515955636258478
Cr 7.433639280037191 9.302849052970865 7.059834283784598
Cr 7.672822430209477 10.776402453639355 10.24664144952427
Cr 9.367509804840312 7.712080207802636 7.84569217922746
