26
Energy = -195.2243986 eV
Cr 7.9472143319349975 5.067998044861389 10.514263617518743
Cr 6.456820029933349 7.24918142404697 9.915625376545371
Cr 5.496115479275346 5.15627974070897 9.775736099536108
Cr 8.896868072026635 6.440046468475708 9.689537137944901
Cr 4.514225348249884 8.450627183552973 9.041713656331872
Cr 6.598998560646353 9.882358623603597 9.212017345935225
Cr 9.652876068587267 7.644741434505837 7.744516780898176
Cr 7.2553892817529 5.210755260095461 7.888512935225698
Cr 8.347103851216204 9.19202048749345 9.217939975006448
Cr 4.820741212156718 6.408519544753751 7.933372309534861
Cr 5.225314751839954 4.178035254760594 7.140936646258872
Cr 2.801945125772241 8.1185625343741 7.149356541273014
Cr 6.920282291923946 7.5822036227764436 7.601760555768546
Cr 5.786679619304282 5.851278480107287 5.518531768601106
Cr 9.712813433322063 5.399419237135652 7.208384783292505
Cr 8.266272228479778 9.202909339628533 5.9142521085807145
Cr 3.6572659350094607 7.279557312846691 5.735573490543446
Cr 5.352489766460007 9.125981590230657 6.7948385031374325
Cr 7.576304547013027 10.652543832576416 6.892381597460709
Cr 7.649072580762967 4.387015860830695 5.561044119686214
Cr 10.303140602213222 7.519609652317327 5.26494722080125
Cr 8.205197811773198 6.671592923283887 5.781235593105902
Cr 9.975660534519548 5.243203017751047 4.508982776750763
Cr 7.6533898687651725 6.0596647136773205 3.3913135016981593
Cr 6.223976013255376 7.9708472646665305 4.8953813036898355
Cr 8.406114541283522 7.757319038416601 3.410116142350888
