23
Energy = -177.91068385 eV
Cr 8.136897740826994 4.628279765000014 6.886651054861616
Cr 9.537264824600438 6.182559726276462 5.84652154593302
Cr 8.113705540281838 6.809045811078811 8.218448528864291
Cr 5.893616425128024 5.26623194817886 7.3521124647398395
Cr 7.03546350853198 5.1381927474599784 4.753820668350649
Cr 9.656385781634892 8.177930197192062 6.935305672069672
Cr 8.002400980548288 4.32221546949261 9.293097176737902
Cr 8.342592423586007 6.72008608543283 3.6841660858972234
Cr 8.625125330480223 8.710859317086024 4.850084155494542
Cr 10.025300193458037 5.7457976888378095 8.717951858300323
Cr 8.953653441792506 8.706075100410555 9.527696725820798
Cr 7.112650903049603 7.2238545615907785 6.115835926709996
Cr 6.166539701803581 7.686884111507361 3.739744412210757
Cr 4.861809808441283 6.0249659418587385 5.150113651949559
Cr 7.532740441549743 9.405956498433003 7.400714394193968
Cr 6.427138828934566 9.71854845924232 5.201290812359804
Cr 6.316327711950629 6.1075268633510795 9.821971579759579
Cr 8.644095495419172 6.654098161832969 10.794081633576328
Cr 6.8944331698718075 8.89750437963914 10.29841928304344
Cr 4.80330100456189 8.227126564314004 6.063292650524909
Cr 5.292715123586563 10.038290015916246 7.977407098614445
Cr 5.628750120551147 7.751562917438302 8.388682058671638
Cr 3.873457230938082 6.544155240542579 7.833978069368501
