28
Energy = -215.4262837 eV
Cr 6.21450119702055 8.930072894825146 9.073417811458944
Cr 4.466152042911892 6.5620336976403335 9.441399448369767
Cr 5.105971122586497 7.462839042719471 7.185868032676493
Cr 6.908660849089796 6.716415102958777 8.104620590521883
Cr 7.209782366014943 9.158663540106247 7.011505400213465
Cr 2.785898103605877 4.527642109916413 8.839761478732601
Cr 3.161104980199804 5.955253148803725 7.071344878863048
Cr 3.799248615112154 6.7704501952078315 4.873560375369014
Cr 6.066404895911801 7.956048275171708 4.773185514442807
Cr 7.568297271423426 6.824206892417468 6.031757357564723
Cr 8.32505377640208 9.11707823003177 4.7832520904634
Cr 5.394762235105392 4.766696362359153 8.191303406444728
Cr 5.560571291361041 5.2828002041577555 5.825226703481149
Cr 4.10754411342764 3.232018766163082 7.042535169104966
Cr 2.813963877261925 4.189914593820899 5.374365697013272
Cr 4.32533775175038 7.531474921904083 2.808512639096092
Cr 7.956352801037437 4.623308054574422 7.378544887216516
Cr 7.118186657807076 8.192628533719219 2.5133271002905713
Cr 9.617615726053396 7.86458442734564 6.417570591996515
Cr 3.348855639927496 1.6249403742393436 5.015395714216352
Cr 4.051533508121212 4.8266416069559614 3.4430415565548684
Cr 6.174595692242659 6.117935747521967 3.605901860548129
Cr 6.843837278758911 2.888190301069051 6.495828894316709
Cr 8.697504860746559 7.044118967889245 3.8508709775700116
Cr 9.714265639885033 5.266592226582807 5.684358377908132
Cr 3.064614659491862 2.534452941906063 3.125617526315574
Cr 5.263623870588321 3.090680219177315 4.730536510140034
Cr 7.789412895702496 4.390140261069799 4.70687974504181
