20
Energy = -152.76192609 eV
Cr 5.086708557990692 7.645030389958056 2.9935475400011526
Cr 3.917105758766609 5.403547852357309 2.9455828652915317
Cr 6.702644218050358 5.913951979193581 3.9049024309400937
Cr 5.568420980142414 3.861567142339438 4.004113552985714
Cr 2.840851939749146 7.686539028619838 4.106126301077782
Cr 7.133548749348321 7.700760199085041 5.457292564220068
Cr 2.218027814733992 5.60406120703014 4.676511784618213
Cr 4.764876545827706 6.191256969916989 5.2409740228708595
Cr 3.8148509255531753 3.782517539415306 5.23099360557936
Cr 7.640329292789972 2.9970527589969183 5.342913749577669
Cr 3.374094314379956 8.011442557847136 6.450575088089469
Cr 9.399270418735432 4.079193492100028 6.789761561840608
Cr 6.992434593236704 5.099651415063019 6.1350450448451435
Cr 5.047198721812146 8.940736583746759 4.997906006975032
Cr 5.736261307471392 2.7158529434510594 6.673157924240705
Cr 8.487126895909542 6.349821706938782 7.35814399794657
Cr 5.8385322055483755 7.478189448008859 7.158461765313374
Cr 7.54092614932059 3.616330909488308 8.15887153915964
Cr 4.984249665277153 4.912569883379324 7.370503426119844
Cr 6.708062826559048 5.805447874267713 8.800137109509908
