27
Energy = -207.69361336 eV
Cr 7.207584879623464 6.775102168041438 6.704631100551488
Cr 7.368330737834139 4.506232410910997 5.2937222994086754
Cr 3.5564317488284733 7.474060006664492 5.239532238140217
Cr 6.628589437343965 6.214116034840831 1.9363753079587138
Cr 4.117357327947655 8.698775858196079 3.5150139202288515
Cr 9.172489226060323 6.142179575054723 8.785552470172572
Cr 5.328613629034016 5.722479554832916 8.67463215718541
Cr 9.282006339355332 8.327375703293086 7.525106108963059
Cr 8.017443464446877 8.596667050463932 5.25652779098334
Cr 7.909593935188451 7.932536764534636 11.983151078224024
Cr 6.105705931406707 6.1564717945692395 11.280279209001408
Cr 7.317649205439016 7.324010312986275 9.401929794100319
Cr 5.730038230095747 6.6402772075482135 4.584503713559709
Cr 8.482079109818507 9.376736474158918 10.02045968610216
Cr 6.031218722159843 4.375537645804599 3.459559226185863
Cr 7.232977275487273 9.273460529037616 7.71014480194152
Cr 10.000960793169131 7.846062242103835 10.049486134836638
Cr 4.299551593915273 6.450828336024987 2.6627580434136364
Cr 5.069758572893259 5.038022879966136 6.121650770552959
Cr 8.07813155155075 6.2234854286614 3.8619470480926625
Cr 5.113079541827207 7.628710711482197 7.427179083056509
Cr 5.8121796144186915 9.161577151380897 5.625280746929663
Cr 9.346661722603704 6.109953594859852 6.208891050709457
Cr 6.334509359669206 8.442862523265608 2.9904389780460243
Cr 7.140977617845993 4.708213076435264 7.903524090494746
Cr 8.982347320100251 6.056990128365726 11.468849980632198
Cr 7.346302056140431 4.546270233990353 10.304355770109447
