27
Energy = -206.07539675 eV
Cr 8.65681270845087 8.833049936106402 7.037404083086848
Cr 10.159508786180956 5.447221579934831 7.799218557457149
Cr 9.626449440859375 7.236246960640531 8.587030432070147
Cr 7.528072214324356 5.163864033739417 8.837101174847461
Cr 7.014053556834114 8.096899473375156 8.32730002873431
Cr 9.354187542362542 7.021041425393665 5.656993250434559
Cr 8.831979707153206 4.051368543969748 6.4174360917501145
Cr 8.282792352214328 9.32598134362819 4.615903256654946
Cr 4.39225922287258 8.718407790920235 7.638909391234132
Cr 7.634465643916192 6.386939930537599 6.930230175096548
Cr 5.29155433558098 6.366136671231815 8.068326376538298
Cr 4.871379141253224 4.251055168251859 8.913562979880542
Cr 6.008553713011857 8.370157475497715 6.242759154009501
Cr 4.4939326996406095 2.37918395384543 6.547024573226462
Cr 6.291460947417062 4.041204086968411 7.150057041903785
Cr 5.460376921311561 5.834451053979575 5.637046718419543
Cr 6.606689880980064 9.735024831275128 3.930611463832133
Cr 7.733537407560685 4.653770247515156 4.778123966792173
Cr 4.862665164115129 8.025013107696221 4.14373200779619
Cr 2.975088143702523 6.411398909544107 8.314950151622709
Cr 3.6071621348708405 7.053886607784152 6.022773762918392
Cr 3.8255252046910235 4.519931231850572 7.001384127126346
Cr 7.1105559183105695 7.154683782245381 4.167475128185228
Cr 5.185795642834304 3.620012754679485 4.69545974991249
Cr 6.261282141689888 5.382034597949545 3.0129635173189304
Cr 2.897325618732503 4.834817835245616 4.88762541996235
Cr 3.8462636680318334 5.895946525097396 3.4483272780927985
