22
Energy = -168.27853418 eV
Cr 7.542056744201769 6.241742352036587 4.44727164146962
Cr 9.577486066598189 9.916193262617417 7.894889693955137
Cr 5.310073145760765 9.371013831901593 9.564912107747935
Cr 4.352994010268873 6.993960127115267 8.459000969413047
Cr 6.38955704136852 6.426070387270329 6.725531619044151
Cr 7.989548054686156 10.075946365239245 9.821132099405457
Cr 8.376846988738667 5.616513186849172 8.249708905045
Cr 7.290211877701127 6.215935393082833 10.387306555724827
Cr 6.87657123393168 7.917148098781791 8.698054556357842
Cr 7.732133872742808 8.543914786294126 11.117281593666469
Cr 8.648746943005486 5.118970359325473 6.029426858297859
Cr 8.488393365242649 7.818323595558152 6.494941243970559
Cr 11.095957409796576 8.063838910301639 6.814053052924508
Cr 9.900205649374582 7.109058800946603 4.686690049965323
Cr 10.657477136669003 6.30431524532634 7.147430079001985
Cr 9.37123310385647 7.774500594261682 8.891144664136196
Cr 5.160487380929177 8.570731912957399 6.687733273231762
Cr 7.1725649030732646 9.868654298938344 7.249983158116078
Cr 9.486278223174807 9.757692496763932 5.5474173445186095
Cr 6.937732861348327 8.441748204142224 4.833077204587848
Cr 5.14653726383486 7.330429470475593 10.725497220867384
Cr 5.692641422331908 5.321502375908204 8.747258403538243
