28
Energy = -216.77982314 eV
Cr 3.7775160388028466 5.832674853377432 7.402672910498429
Cr 6.523502308936852 7.921746686735526 4.952007757790476
Cr 10.418889037834042 7.415460486413741 8.35493364302607
Cr 8.070697779988393 7.806051299729791 11.90680946069794
Cr 4.008603077537043 8.38752657036317 8.676983087762874
Cr 8.654285765998011 8.095811973669276 6.836793341692744
Cr 8.657268838587779 6.286723443232011 5.413066916827387
Cr 10.844210000432302 8.712944814456783 5.918501321361982
Cr 5.955829069863822 8.823119062086796 10.282499506739505
Cr 5.716270215783317 10.685904632877163 8.654509355196538
Cr 6.519964308996445 6.502338636602312 11.204965350503603
Cr 7.907789704135959 10.019907569433505 10.789166851743623
Cr 9.50881752890829 10.691087864289686 6.2012939479256985
Cr 7.752451397868816 7.5829906773874205 9.153356948039653
Cr 9.32193485491503 6.126534865362797 10.556643961518459
Cr 8.031918587947803 10.105181918655083 8.5198553566222
Cr 6.129858978436049 8.552503008452616 7.607346682930796
Cr 5.249593915777019 6.479847349271081 9.066093381830923
Cr 6.510039244051639 6.246070119376081 7.050305941577671
Cr 8.783404105469701 5.648438165723594 7.954378351665088
Cr 10.75954155353057 6.314980673829379 6.202144257330663
Cr 7.369959209234913 5.07874049015028 9.208461004952667
Cr 7.308093159237075 10.186808984794176 6.201643240598969
Cr 10.377296607378364 10.13972156621425 8.249056671198879
Cr 9.849341257758462 8.71770277422576 10.12286829757122
Cr 4.288396349561719 7.602851167141134 6.163432554646851
Cr 10.572180904747057 7.20585323267511 3.694857094315318
Cr 8.882921291505596 8.738656143375408 4.330137475060133
