29
Energy = -224.29198787 eV
Cr 8.208171708769543 11.592495700246564 8.073061042636287
Cr 8.649570468235643 10.156314917360577 6.132109016867927
Cr 10.249126513180162 10.319577501868293 8.346313072606742
Cr 6.08566747201871 10.229797672050681 9.919398416107795
Cr 8.909843353608819 10.058925635346895 10.538733099016437
Cr 7.729542426105416 9.286332313637187 8.524779781516314
Cr 10.563680903659565 9.904016695721348 5.236891338793023
Cr 6.137060773209813 9.731075221677628 6.3596234547284265
Cr 7.736410669494753 7.7788541444841055 6.564493975737134
Cr 9.608995501805841 8.059679311642466 9.87369074339782
Cr 6.855750690499464 8.331421455155699 10.899470195830418
Cr 7.639541178719168 9.042550495769195 4.227551496134629
Cr 9.867067718601412 8.129852199365104 7.386576453745773
Cr 9.61212641599376 7.762320158076701 4.829914238583508
Cr 5.381781966214439 7.965989227703092 5.38909897878355
Cr 9.272296333404762 5.811907358622933 8.208357010815932
Cr 7.142140209315507 6.462252715021592 4.59263924989766
Cr 9.206792188294424 5.6506382117641945 6.031849053492707
Cr 6.527805656577531 5.787808043064411 7.185658261992362
Cr 5.669886551560279 8.238333620934743 8.129740438288568
Cr 4.085341503185153 6.8288240870077335 7.127159075254082
Cr 7.58824997421004 6.944059256291487 9.169113834782443
Cr 4.818630107801984 5.378593451421935 5.682885446908037
Cr 8.066043819983475 3.6186956320576833 7.192997804814965
Cr 7.250674370615085 4.181568095939798 5.04714780594126
Cr 5.068971472713709 6.355606017226202 9.589629253962956
Cr 7.051174603596994 4.423767015298524 9.153435041932699
Cr 4.544226226118774 4.361199648671015 8.357369553985212
Cr 5.650495908474157 3.219710949424288 6.9828476725498625
