22
Energy = -168.86261289 eV
Cr 9.437111230556962 8.339682953001576 5.115827030988131
Cr 7.192698783609641 8.863156546161052 6.2415787657906
Cr 3.844207441787346 5.142589006824669 7.447574789374432
Cr 9.570734618047958 5.988744232892647 5.717953581340789
Cr 6.339688913895155 7.769152254157779 8.380828389596456
Cr 7.703490949101429 6.32445348806869 9.513809033234432
Cr 7.753884228593613 3.852921693870391 5.68081190473737
Cr 5.520207058939925 8.083119803602408 4.473137541108711
Cr 6.211369142958812 5.1195658595021865 7.537570475438772
Cr 3.3159479123015827 6.462968514004265 4.953144357931018
Cr 4.7414597516986525 7.219766636426483 6.694564112453406
Cr 3.2575131464611458 8.874374997369921 5.101046341287288
Cr 5.614322191460618 5.512698864609179 4.724006976705671
Cr 6.045824290555844 4.2975706361021775 9.651481630539248
Cr 4.736080990385056 6.336805932630003 9.432835543869817
Cr 7.721401182515605 7.433956988530797 3.733268297611262
Cr 9.136819821678909 7.516736298366832 7.778561764643422
Cr 5.5332211642902545 3.345002313207792 6.025749078254148
Cr 8.53296977216759 4.7305325386936925 7.850852256018449
Cr 7.272121026391065 6.547126549642327 6.010007680562357
Cr 7.974108581055075 5.049261229100315 3.754232474766986
Cr 4.773162728884172 9.567339041750294 6.824947200736798
