26
Energy = -199.92787244 eV
Cr 9.866519152832526 3.510033260359528 6.838416435737635
Cr 6.2746544109306495 8.503582894601406 7.736040032068367
Cr 8.065726623949029 4.718786933227109 7.672334863937994
Cr 8.504560708728578 4.472983702695725 5.079240532001886
Cr 8.660033398490652 9.52042023348325 3.8534363438465196
Cr 8.492195759624025 9.396094961992263 6.317149365571344
Cr 10.021670889775647 5.67841345422545 8.761248042619542
Cr 4.107506942570806 7.540759677818641 11.917196052165568
Cr 8.2437276648395 6.988878481172507 7.091637827047786
Cr 6.93997791083968 8.222902519395399 2.7232421273405927
Cr 8.263974870553618 9.173576696873589 8.94440219554755
Cr 10.364270038152966 5.869747758121748 6.516473894192312
Cr 6.252278926605117 5.744896236192819 5.938407715266837
Cr 6.574101874230066 8.211836730340726 5.134900097642019
Cr 10.265395269753611 8.058227381867667 8.223162718707174
Cr 4.446438555002015 7.15508685145411 6.663642891671208
Cr 6.85285876516893 5.888110957671431 3.56869121903172
Cr 10.446189540518333 8.268439893892005 5.786311442582908
Cr 6.040602624410128 6.270429952757026 11.020693364077088
Cr 8.675753931752418 7.199914545676311 4.5990410430041875
Cr 8.163406212885832 6.780440281321788 9.609104635514932
Cr 5.7720759703648215 5.932383240315619 8.636191129763573
Cr 4.495291816607233 7.891975745637306 9.454464163867206
Cr 6.374692569618524 8.633207635516797 10.651455937581709
Cr 7.656044377435083 4.463197725730211 9.867525023393718
Cr 4.68854595780805 7.106611198417979 4.0596645535045415
