26
Energy = -197.83296168 eV
Cr 7.8075865995515725 6.6735847492821865 5.656352776514976
Cr 9.246687411291376 4.633929998758884 6.2969899602810635
Cr 8.18504419908134 5.137492579348483 7.687626023456371
Cr 5.218676795418894 7.397183611691537 6.05506312956787
Cr 8.48663626914651 5.446794970283905 3.9752046736112403
Cr 7.101946977230209 8.0950959289579 7.776862004021982
Cr 6.389455060561098 7.034644500882914 3.7057781305566637
Cr 6.479110807537408 8.992200400871884 4.755444554312928
Cr 6.619249196477766 4.5223392058901615 5.66476723424089
Cr 5.353245480355759 9.875285306295174 7.0091829523476745
Cr 7.816640340244661 2.5398827469823164 7.173844934400641
Cr 8.56022358093745 2.965090272551442 4.597568897628503
Cr 5.413779326315708 8.084741353829358 8.957509028917489
Cr 6.723656937002522 2.0087056290760197 4.621284586262291
Cr 3.8611285043160297 9.592791364462126 4.913198925070776
Cr 3.6184647976635076 9.023989479541763 7.52826033573626
Cr 5.970112695947867 6.11190414795207 7.712835322361105
Cr 6.676087546433701 4.4775686109916855 3.1764251206110554
Cr 4.080284242337065 8.066320942447502 3.571219495098747
Cr 5.114909626450471 2.507159161106916 6.606935751468159
Cr 4.005934139061715 6.507631729606137 8.19669988026633
Cr 5.683829257297957 3.729203371712627 8.078857489388742
Cr 4.200484646968288 4.8724139984398365 6.2456297877053695
Cr 2.895160639538527 7.246626712457443 5.991768623151666
Cr 4.380038196738463 5.713883204959136 4.3453252230250445
Cr 4.618236545535135 3.294502155218041 4.23910439755432
