28
Energy = -213.72440357 eV
Cr 3.058456305193759 7.210478967780435 10.71256421706031
Cr 6.259862401725642 7.006873324434441 9.311217264334934
Cr 7.824048000240234 8.17717550426368 10.710523922472847
Cr 7.176193066981018 6.934359595282164 6.837410580479721
Cr 7.983505025960583 8.229018416561722 4.352398871778726
Cr 5.842810418990441 9.497085295236142 9.924068087887031
Cr 10.064527018280724 10.088264358546178 5.173156689369921
Cr 4.7166021915286445 6.133486609870659 7.349347252081341
Cr 9.4457206841155 7.866251899085202 6.634498843312688
Cr 7.365919808765653 9.521992995099735 5.817724589039865
Cr 8.706122450651767 6.58971317564673 8.798669615932344
Cr 10.864115491014447 6.43827908969159 7.759303499362031
Cr 8.636042738399615 10.146958496925672 9.826100773913643
Cr 5.700909700932943 7.251419600968203 5.11280043409523
Cr 6.772292961233514 5.030305053359076 5.8963132723813
Cr 8.512298650242743 6.04399058180657 4.72905373967188
Cr 7.582442343793628 9.072201433586983 8.365171162887844
Cr 10.49288203212104 7.889967561924152 4.5130047190899525
Cr 4.17766268452007 5.669324928547709 9.798712509800763
Cr 10.575452586160374 5.73856595412577 5.668791300280153
Cr 8.831291817633483 4.8925323390403594 7.074907555573141
Cr 10.08748636621903 8.604071980757324 9.08759848869807
Cr 5.138699522348254 7.693591855804317 11.295061443188692
Cr 5.554563696342753 8.685802283286485 7.086274427085486
Cr 6.405622460719272 4.979674217173496 8.298848694078508
Cr 11.66026585099703 8.713661167444688 6.806598424085841
Cr 4.151578608057565 8.061141916928344 8.929691319282304
Cr 9.353401228323872 10.419375118314216 7.4273208127170935
