25
Energy = -190.34106038 eV
Cr 6.171321921304532 5.4525018065749284 2.789507805734705
Cr 4.354232008875306 5.365755936264461 3.5411428157938483
Cr 5.064867898546171 7.779057866738788 3.6893927005794844
Cr 7.301653409699223 7.103741926226456 3.878204248070815
Cr 8.850124129793294 8.813402017801211 5.0448072451438914
Cr 5.841483650425174 3.6963394356917543 4.86567847577508
Cr 4.379482124759932 9.741554790971687 5.4060462891902334
Cr 7.8193914118214725 4.821539926049676 4.773954478840105
Cr 9.686195942219143 6.951177109327989 5.005309287389653
Cr 3.810899364264252 7.914369494703927 6.118218074108922
Cr 5.540201246402727 6.2014338656290136 5.280056895049758
Cr 6.302642797815201 8.622983496779593 5.6185531944310405
Cr 7.585580371685597 2.5677024801818935 6.938252002848701
Cr 7.7745866779085055 6.854309483511234 6.46328010623135
Cr 6.2541418962449 4.801486144242811 7.081588627656464
Cr 5.663694723473953 7.192790049510683 7.724447232713909
Cr 7.502324498509562 9.067981019719804 7.778730215234596
Cr 8.625675691317364 4.9624239039486975 7.234302207631081
Cr 5.837046334138654 2.6538194900988485 8.287697777465823
Cr 5.3510549188172165 9.341038973535644 7.888221908405501
Cr 5.546967879504127 5.163514656300605 9.346928761832581
Cr 7.621333589035247 4.292103003537074 9.319238802177379
Cr 7.498681776513038 6.862179907369403 8.76023976911571
Cr 5.513991054144421 7.770517606785641 10.208622407767821
Cr 7.177562696741792 9.081413622460328 10.03271668477235
