25
Energy = -139.66809355 eV
Cr 8.395472623093195 7.488215030992258 3.203258290439707
Cr 9.06475391340973 5.3301855980919655 3.6867987898901986
Cr 6.215240696561876 8.236672270761638 3.6614588276277997
Cr 4.619399962713302 6.748537245299335 4.309277335513523
Cr 7.010430169736745 6.179120706547815 4.607292107721512
Cr 9.357290941155943 6.86042814461092 5.370473254227128
Cr 7.847573185061934 8.53551197769349 5.240269792655675
Cr 5.25861591563109 5.559918529833392 6.125530623558366
Cr 5.703663244977495 7.982260782069504 6.038800965449747
Cr 8.635413284120123 4.700453396868259 5.864503314613738
Cr 6.618465887702985 3.7759628345768173 6.19195546116939
Cr 3.4547331470396734 7.453422008235942 6.215717774329384
Cr 6.946290706357822 9.811194994188028 6.9705465895116525
Cr 7.422470863552363 6.442881576861695 7.005731140433817
Cr 5.489567111642383 4.456491877968087 8.159491888961444
Cr 4.53717890879446 6.694248136051835 8.043233506644645
Cr 4.598679365012354 9.015547761581251 7.791752364033034
Cr 9.804359074326157 5.981330307786927 7.4364728273800935
Cr 6.649652058294404 8.236845987649044 8.528447330281491
Cr 8.756705989842182 8.330681262987923 7.392425068424188
Cr 7.834593524047817 4.493115408928624 8.14680562713293
Cr 8.610264564972956 6.739562343947758 9.157097625099707
Cr 4.369564275950886 5.564409954934066 10.021439948362426
Cr 6.482180794393889 6.044837182220154 9.455219427595623
Cr 4.885711481987926 7.9064363696923605 9.944271809322636
