27
Energy = -208.70258922 eV
Cr 9.906590546264983 5.226698174541175 4.637940852091705
Cr 10.949841639916224 5.19042844660788 7.255373465274249
Cr 7.125159070572392 5.219570801509227 4.809462490419616
Cr 8.536368428744243 5.72615557005589 6.698219663048119
Cr 8.52700113465 7.137988827957271 4.3089425029843635
Cr 10.8033397202387 7.102488102308438 5.883060460289823
Cr 7.281547876455178 7.257981133642846 8.66635048096787
Cr 8.71693675976996 5.164818778501875 8.942186044645808
Cr 4.441943529915613 5.817764815270026 5.525675562783294
Cr 6.344863494635702 5.051684767661483 7.533570919583386
Cr 9.980850147972848 7.23143146782726 8.40341057130624
Cr 5.92070537735313 6.75856647620375 3.5102128942382724
Cr 6.383139312193549 6.030235203129687 10.429097182557038
Cr 4.650202580974903 6.218338633876284 8.207462694448342
Cr 8.682109918984896 8.147484580750032 6.573900086488873
Cr 8.913422695293269 7.319291318806145 10.628749449770163
Cr 6.263030728316005 7.3284723201768545 6.149536202977896
Cr 9.207795402672287 9.056198883535007 8.746515037702437
Cr 5.120829053755336 7.89301829671541 10.352662829082105
Cr 7.25718251771636 7.690035869452902 12.189079252717292
Cr 3.410596963964445 7.740749023721407 6.3040958313024245
Cr 4.470511151778873 8.333953745356975 4.343118086332528
Cr 7.129522801198505 8.97313364950973 4.701279074700448
Cr 6.957760374342697 9.117571509914997 10.073434073364119
Cr 5.042115232713285 8.520812441955192 7.9867758187492
Cr 7.205365589967767 9.89547978549478 7.378196065800765
Cr 5.3323082891069795 9.931906071048727 5.933126023648611
