22
Energy = -168.6706512 eV
Cr 7.104914432663946 9.884501919153337 7.706779772773725
Cr 8.746567815933261 8.044582349359601 4.242939340275456
Cr 9.621642292190677 9.40491580983438 6.531831017571844
Cr 7.799129812980008 10.081846063589929 5.1919093213002485
Cr 6.298869989903903 7.72320795445422 4.0749373530218405
Cr 5.342436950267817 9.138719991971527 6.306592172613967
Cr 3.924745543912299 8.041034826355858 4.8644674118685565
Cr 4.989180181536 5.579952106564132 4.031069285145087
Cr 3.8413923125232 7.935550929945585 7.719118407022928
Cr 5.3288285991012145 6.4033100564273155 6.325601760397783
Cr 6.040299220399824 7.865908408091671 8.676275488453088
Cr 7.431827096857383 5.801774410659856 5.035247329817083
Cr 7.825192473125647 7.745494592695584 6.522639479404018
Cr 8.555130958840635 7.737864397444206 8.994172592611488
Cr 9.678048539953716 6.2395314657292715 6.5687446426834315
Cr 7.271543543642019 5.839928404819251 7.687594283445669
Cr 8.385704859775739 4.162260798266777 6.5004275772181925
Cr 9.005449372702113 4.647162660147833 9.12673135682217
Cr 7.271441039828525 6.0047302232451845 10.196955455783641
Cr 5.830120871203682 4.019922628343368 6.415105876089981
Cr 4.950334947716374 5.538372818394212 8.807065982713892
Cr 6.665533746670065 3.6755965214050326 8.71735425120472
