27
Energy = -206.16820231 eV
Cr 9.379829850115101 6.614293013530659 6.600218905489896
Cr 7.870066937220054 5.098478796563133 9.964303322364923
Cr 7.496325369507627 3.292867969785581 8.727863893114332
Cr 8.603679515395193 7.954606340632749 4.630410917082635
Cr 8.743823849040346 3.8239631288405262 6.608165248217841
Cr 5.690040739888382 5.111314634063892 9.366411006746393
Cr 7.440455515809323 7.856289979581647 6.996679668795774
Cr 6.82712591167762 7.498720195542062 9.581046713711787
Cr 5.533544557077168 3.4452693527732805 7.9547285095227
Cr 5.074232734657411 5.150878499924224 6.438702486439722
Cr 4.896184336695549 6.971862577783662 7.812085375087791
Cr 7.117270889689576 5.509605220642634 7.643225086804154
Cr 9.339540698696034 5.218135229254986 8.52535015965367
Cr 6.940516993552932 9.568396762403193 5.462491245926926
Cr 6.9533932882348415 3.4274393036709387 6.237501038269053
Cr 3.374888392143566 7.365927324746442 6.140239327855237
Cr 7.595954176246838 5.708111401076898 5.23524357288126
Cr 4.522545595904028 9.568736135807482 5.193147383071079
Cr 5.6702334458031745 7.180516092590127 5.18805233150738
Cr 8.88476424622871 7.533885585508877 9.076131422850011
Cr 5.196350348476309 9.05702446943982 7.430109819713234
Cr 5.724879455976551 4.60390796523369 4.377115591130321
Cr 3.516546347968175 5.964554072684019 4.481609377080934
Cr 7.49625816466076 6.809339554919468 3.29408784853488
Cr 4.030709628724482 8.408628822277334 3.518234227593847
Cr 6.551058172797583 8.83648391377254 3.4609756914787444
Cr 5.379420892085709 6.441999633217519 3.025482442505375
