23
Energy = -176.48543659 eV
Cr 8.53893543910693 8.239724124633959 4.104800952509123
Cr 9.349345156781881 6.113447658162442 7.510061187042688
Cr 6.734938889523455 9.478691418315739 5.6175092513072205
Cr 7.522007636083449 7.288088478020595 6.394494932636555
Cr 8.659979249279468 5.705159302266551 4.863034154749444
Cr 7.826554089698158 4.555088812350304 6.837304140870361
Cr 5.225666509588784 6.814840868688284 10.414062134088633
Cr 6.450228249885236 7.20136879861319 4.117566262693329
Cr 5.8687827424312875 8.089581731833023 8.13083304625479
Cr 7.318817951118421 6.319646565286924 8.81929070937719
Cr 7.462590835674484 5.590171846016401 2.7677905439680077
Cr 5.6939566516251015 5.762744889910494 6.565072041685734
Cr 4.826014553260147 8.008635563867362 5.8030799770615795
Cr 8.193480891104823 3.18966987894908 4.468923714441327
Cr 5.647631991990142 4.69879838014217 9.002409961523208
Cr 6.228651632230794 4.304259499551299 4.486513103843627
Cr 4.576294513628448 5.997235224214217 3.543645283504118
Cr 3.9435657596167197 8.239840247418371 3.57607047910584
Cr 4.0229276499533935 6.423801603746732 7.99499904296422
Cr 3.0216575184926384 6.335175902941567 5.566973427232339
Cr 3.470097923458524 4.177392710002408 7.392693749494049
Cr 5.5576753140629185 3.157496135053353 6.706099485607153
Cr 3.6137656293709988 4.109780575729408 5.10064688262523
