26
Energy = -198.3587763 eV
Cr 8.237827922974565 2.954836060648136 7.559970828585717
Cr 3.2951030782194723 7.0177224928755635 5.5791697979963875
Cr 6.415340986827794 7.72197418648139 2.5039067615138655
Cr 3.0910381505458986 4.986119843305248 5.648785402624529
Cr 9.377535283339817 5.102219123975941 5.694297384124266
Cr 5.044947997696922 8.94533126035198 4.7076016297028795
Cr 6.056246765790508 5.983631220398074 8.680085705938907
Cr 9.580999066388134 7.2147353280864595 4.949108826314923
Cr 5.176016478992364 4.048464640344743 4.409794261060327
Cr 5.4161616673217825 4.952624138306921 6.64060020199157
Cr 3.9413521699020295 4.525509089353264 8.40926323334806
Cr 8.02036221207555 7.425605349083179 9.0938573894066
Cr 3.6477746228337242 7.992860224753406 3.034014382279002
Cr 3.2241577657620306 5.584477385686334 3.1299527181927767
Cr 5.44127807640613 7.631563144381532 6.776988233650894
Cr 7.430985442454109 8.234527155679144 4.90801607970816
Cr 7.39783238879999 6.389988277165687 6.746556881154736
Cr 8.32031634577173 5.030398192777647 8.245977056588117
Cr 7.391186993646356 8.978464604341985 7.5293857139359694
Cr 6.321299644047908 3.5743690342591514 8.339525746062325
Cr 5.366523308830496 6.361623063522201 4.391437742059683
Cr 7.293251019445556 3.9450919882676367 6.021758121897406
Cr 7.610688837667747 5.698210075290417 4.1122801628631285
Cr 5.3690302993193315 8.03830681548634 8.900650075894616
Cr 3.6872707650054717 6.3183927329009135 7.993428514770625
Cr 9.593172940462274 7.0906548028042495 7.741287378862059
