24
Energy = -184.04646274 eV
Cr 4.031602095947619 8.78493737421828 3.8461368228079262
Cr 9.106254462327733 8.012817162730656 5.961844764640901
Cr 10.011572731381568 4.193969555155341 8.752909409249545
Cr 10.425526421295013 10.362516036148293 6.674380553908569
Cr 8.82190488715742 9.875072913316979 8.19953448978737
Cr 8.039492419356128 10.146532668642147 5.6520446335689085
Cr 7.151864617195407 8.803924316233767 9.667040647496622
Cr 6.485046772919109 8.301194443961077 4.968692164302205
Cr 7.3399048252337 7.562952022501238 7.559365072681941
Cr 6.709037052262648 6.91345765924393 11.127917065688244
Cr 10.288427666481345 8.05005448949071 8.398654261454459
Cr 4.9492059305707405 6.650037331797129 4.143869058337148
Cr 4.319913304217405 8.349688823172574 6.295160992263861
Cr 9.336072770249434 8.247076874480694 10.569856346957783
Cr 7.590446407536819 6.124054737269063 5.212744706293978
Cr 10.87076074144771 6.020706406684205 9.700124132750355
Cr 9.633874663675158 5.962849620943491 7.217321772904252
Cr 4.920985151685037 7.91979142422834 8.960382068215477
Cr 7.617112349438979 4.909601494718608 7.184050858348727
Cr 6.127300077630953 9.803889034731103 7.32893440791349
Cr 8.434816741468001 6.382690884999116 9.510625701022871
Cr 5.773975071243975 5.902792438642087 9.231490352011688
Cr 5.351549076123131 6.334248439308324 6.566467016888836
Cr 5.437462240858394 10.412925634395823 4.796923231250418
