24
Energy = -184.01976755 eV
Cr 7.905575347085662 10.581149543551053 6.633446478257476
Cr 9.452481894067342 6.98727064717091 9.58351693457151
Cr 8.012289179325933 6.587989106765865 4.620625077467803
Cr 6.093255889336256 6.3848037859521005 6.363991393373895
Cr 5.823383726080723 3.8794820856917553 8.976506758441069
Cr 6.298706219379476 4.502762585192093 4.6119508216347995
Cr 9.868390220600984 8.522118701791204 7.738331951354681
Cr 8.628702309509697 4.333862818674586 8.927778059444476
Cr 7.252201735975821 4.23277862445897 7.122676075014368
Cr 4.680881598184111 5.515107034461432 8.049017438901418
Cr 5.333815096818171 8.202241894113039 8.247014435573368
Cr 9.328559727296389 8.49255933479326 5.236236339895042
Cr 7.508448583909026 8.808183675945903 8.97253851734974
Cr 6.217861148558187 5.799834404274091 2.6766156889410255
Cr 8.952704161208743 6.220765639678608 6.8519809418023945
Cr 7.395492514439659 9.58044856024403 4.364386885068412
Cr 7.451159068841631 8.243766447863974 6.697466558334745
Cr 5.434216688708627 6.653867441486556 10.084664212410928
Cr 7.2975900028817495 6.356276806871064 8.736769384010003
Cr 5.431060382632816 9.174269229158073 5.834033700144076
Cr 4.627605236643575 3.195700897478132 6.66243601004535
Cr 4.14687400893915 5.163566596779732 5.0216509720956815
Cr 5.383730827348794 7.300981495215534 4.104357531354345
Cr 3.683297576933946 7.340022745445858 6.233769027293497
