24
Energy = -183.65969859 eV
Cr 7.475448167455252 8.145089093793358 3.08715091542398
Cr 9.36012046980628 6.604917499551358 3.2716360854708766
Cr 6.862809404647823 8.85792885697465 7.8460139751508535
Cr 8.163772246707927 8.082550431415319 5.406067020218742
Cr 8.651671196032536 7.250435429849258 7.726521547418392
Cr 3.279792667352212 7.608093236603143 5.1960360298034365
Cr 5.579123660502159 7.1404839643542495 4.184609610990429
Cr 6.118024574981021 6.948470935078141 9.019744042235704
Cr 9.241743095054725 5.637370074302175 6.168526850063044
Cr 5.876709652663561 8.710828857995557 5.731655379383021
Cr 7.440065673238004 5.75215325887785 4.502628662935078
Cr 6.583101465926924 6.396834192792126 6.635493493972981
Cr 7.642815184958522 5.092973839971323 8.57907110946768
Cr 4.614293626835944 5.156633890323108 5.730606682378116
Cr 7.206995587428791 3.781025882940437 5.745311948044545
Cr 5.5867231551973795 4.436041107422525 3.5129969797139626
Cr 3.319730989175564 6.0713581171613775 3.8264026057610656
Cr 4.361793308865551 7.663313551178307 7.304562370248838
Cr 2.41653252597195 5.677664492490219 6.467072006713594
Cr 4.712900686990206 5.172510731804964 8.358675993729433
Cr 5.159296964220907 2.5922950817068933 5.017267477113636
Cr 3.0409651039014016 3.4206355716027756 4.392596733936321
Cr 6.003752575121954 3.5261698112285402 7.613215884995783
Cr 3.7904885179792673 2.9634118731012435 6.955590434197684
