28
Energy = -210.04221391 eV
Cr 5.178862934444798 8.334211914582692 10.118295409593133
Cr 7.24968348695618 7.343204903827509 3.6820563970035223
Cr 6.0919423601802025 9.39948824603669 4.242995845686031
Cr 5.692580572163769 5.141480875952787 3.6312375846490954
Cr 5.453422434855584 7.9603953855963185 5.924177731575141
Cr 9.147605171563606 4.864218383645402 7.833269946124256
Cr 10.238632923660036 6.647069094795688 6.324048704357365
Cr 6.302118035327633 6.021267265041153 9.987405725328157
Cr 9.914356032057487 6.6373417224582685 9.218639524865639
Cr 9.286222478368009 8.44076918285814 7.58642085888924
Cr 8.019765074241011 7.758321779225782 9.91215254328999
Cr 9.761116410170565 8.681887824384232 4.738644649519181
Cr 6.790195877837213 8.93749903703565 8.0664138562543
Cr 8.477800390270067 5.410277418534332 5.2779685675017385
Cr 6.230562795704676 4.337650185972292 7.786706374408923
Cr 4.9508698389650965 6.844539742304939 7.9415453702455725
Cr 4.178549395969553 5.321140077912248 6.216512591266184
Cr 7.242896307549818 10.167732171436532 6.3070409560938785
Cr 6.349518457254709 5.855988725649543 5.682090861040778
Cr 4.738061055060768 4.331184496206231 8.789141007785037
Cr 7.7468066686267125 6.363833624109197 7.773318172590741
Cr 6.270483098231021 8.38296235444235 11.50949404586663
Cr 4.662712418111419 9.668248210207933 7.821761692204719
Cr 7.780923655400254 4.965347733363172 9.921169724153465
Cr 7.945344220285605 8.013819467485662 5.6974537101147895
Cr 9.029406229509723 9.675970831208621 9.573830564691933
Cr 4.7081935365339485 6.767757385289451 3.854427239243499
Cr 9.49393636893858 6.658960188675063 3.5143485738952753
