20
Energy = -149.65448372 eV
Cr 7.985781036199876 7.530674119698096 5.071879402878437
Cr 6.668543297889542 7.704229824348138 3.020186156901578
Cr 5.618896979720633 7.853963994859317 5.766851239988045
Cr 8.130050900644182 5.510838469478166 3.7717386428505724
Cr 6.865965478308434 7.367469067526307 7.753251165068693
Cr 7.654605513935263 5.601606146546552 6.475508779544814
Cr 5.922198422108875 5.891604821387421 4.561725167834703
Cr 4.520962401680109 6.92410663070689 8.174060060028596
Cr 3.985884744572126 6.993174443968329 3.3630359689388634
Cr 5.654963536707953 4.826616861582058 2.3934181843919466
Cr 5.333847441694618 6.499189772132565 1.086263255152629
Cr 5.2523129216735756 5.257177833728472 7.0758951207306255
Cr 6.955202258762549 5.369616549773234 9.037733876905572
Cr 3.368852837292184 6.709719699863125 5.857895276931783
Cr 3.771402856316398 4.666706564640726 4.827741933134107
Cr 2.7195801864228484 4.71262015758947 7.263971491797315
Cr 6.999569660744277 3.4036527197602875 7.474172485884153
Cr 6.3339155991522755 3.583623500393454 5.185418515683942
Cr 4.936792671607662 3.6255269755787274 8.544780291206877
Cr 4.320231263991142 2.8708646990098226 6.465537482782232
