22
Energy = -167.48271342 eV
Cr 7.618401064628126 11.178873898873977 6.679229545369964
Cr 7.108356831329559 7.853600940994484 3.9690548579751894
Cr 8.538637199573651 8.6003831729085 6.196615521085878
Cr 10.308037862281296 7.744847342572064 7.683196094160946
Cr 9.483473992956364 5.547350449685385 7.708798280388406
Cr 9.292661036971003 6.416676794543692 5.425045150775464
Cr 8.532759214435067 10.064891191363438 8.29923755113524
Cr 6.104269967084104 9.253545259070235 5.261869454383967
Cr 7.304097925415865 5.560323263783662 4.377194819239501
Cr 4.842535405087871 6.877493065631726 4.827456188769101
Cr 6.8446451780250746 6.994536984215826 6.551044698290292
Cr 7.285241020529504 4.333629786275195 6.806827560991948
Cr 6.232803093781155 8.967946642630446 7.916354026607265
Cr 8.31638547561275 7.6517919381323996 8.89823237803264
Cr 5.289912064628947 4.695684011709356 5.609700936367829
Cr 4.315036356733448 8.316400946000527 6.551865916736139
Cr 9.78802634747965 6.172191359789263 10.108694170946546
Cr 4.970459945244303 6.051248711152471 7.681335673687704
Cr 7.245625645202326 5.51865154477441 8.87195466990137
Cr 2.8747035036366215 5.97116708711001 6.247792485033813
Cr 5.355055701304149 3.577169555851991 8.194976605064264
Cr 3.4118215124113402 3.823215888574919 6.93363135186284
