23
Energy = -175.75048179 eV
Cr 7.898458469809685 4.087176840096555 3.573516188537009
Cr 7.985824892487939 2.712770837884414 5.51515943184517
Cr 7.1696491392415735 3.5058884727252515 8.17260630770441
Cr 5.601830292153821 4.287700902769529 4.164703555959687
Cr 5.597927361970916 3.883263080517497 6.482330165468716
Cr 9.662472286352848 5.726761234811011 5.052812399296304
Cr 7.594086895340781 5.148715225101713 5.941622024718969
Cr 7.393758727738084 6.536114006363691 3.6171142913394823
Cr 4.771772311432963 7.025525621586831 3.7547683717792477
Cr 5.416585991452213 6.64289495616274 6.080577521632193
Cr 3.529777649417666 5.503011940021069 7.017149246040048
Cr 4.7339352963452725 4.74004685578826 9.019038915127966
Cr 2.7965206757993983 6.486476015504962 5.023728510537434
Cr 7.840595140494451 7.64605156137103 5.491937863022431
Cr 8.975066040821607 4.531639981582774 7.6203985969861785
Cr 6.64512736299067 5.975037455713652 8.134560884922035
Cr 8.667500346218208 7.169846830370152 7.742650777990132
Cr 4.387824509470359 7.380244586200166 8.825576014255798
Cr 3.196552566991853 9.133578757384177 3.865452287407255
Cr 5.882855433466512 8.97679460450467 4.62382308068013
Cr 6.256569894936617 8.747378078806674 7.20826751797293
Cr 3.774796331998097 8.474568032070245 5.992675278053109
Cr 6.50091280938103 8.058393918885407 9.48732850231075
