26
Energy = -199.76909863 eV
Cr 9.750475408205878 7.447093362356298 12.021379552855464
Cr 6.860632605330404 11.523379537348507 10.31707539585483
Cr 7.035389583725237 9.325972725911182 8.720569816966856
Cr 6.932791761325804 8.923071305795132 11.625157162674032
Cr 12.05405251317783 7.167030953880512 11.316101985182963
Cr 10.85578470616806 8.219678750744164 9.539083380202733
Cr 5.992638259292482 11.565252795453455 8.029400958075408
Cr 8.554088936199207 11.460763613087074 8.792042389480484
Cr 7.716237411104013 8.429497868083452 6.07813617591317
Cr 10.026338346812913 4.684537007844126 7.297850728084031
Cr 8.265495341171007 7.310068122122315 9.893330976848846
Cr 9.231448862075766 6.936482512021719 7.4839523649311985
Cr 5.223615032492737 8.891831106498836 7.164994460295683
Cr 6.511025381975158 6.931860037655505 7.839854491623774
Cr 7.930774485300988 10.864719002322916 6.57558673803197
Cr 11.739294463680507 8.33735369289198 7.269549942317909
Cr 10.181083629559307 5.96922091940051 9.781741379975353
Cr 7.711229307556352 5.261361659573375 8.922022244644388
Cr 9.384832549991401 9.329029707275918 8.082702156918
Cr 10.00471627765406 9.132055097995874 5.841213875750848
Cr 10.344040833426392 6.744462459553276 5.384438763106821
Cr 6.055537359082852 7.178304167540301 10.30750473092261
Cr 7.4885329818671815 5.649033310744622 6.129001775290054
Cr 5.225790172869131 9.819865047741015 10.112863948401005
Cr 11.843410211274746 6.14400498065209 7.806904412337611
Cr 8.928210822510302 9.512904555478924 10.662997311822089
