25
Energy = -190.50742579 eV
Cr 8.729296177523956 5.942359014958768 3.2563392360726864
Cr 9.304922847834373 7.808664775414549 3.8114246853370393
Cr 4.816096015104787 5.2480434169750225 3.47972614326646
Cr 6.558445651583133 7.209104914751508 4.387507820445442
Cr 2.790837811354736 4.167611193256095 4.940179724562175
Cr 2.056243470674732 5.866273508012495 5.96234333589766
Cr 6.88647397218745 5.0730236404923845 4.897835086585754
Cr 3.8039022923865984 6.896507220655385 4.185662276214618
Cr 10.666392238743837 7.97082907138297 6.250370719008443
Cr 8.018685451841678 8.43379591848423 5.915385316538112
Cr 8.72535645158317 6.0969664673865935 5.910948461722324
Cr 4.691071888199405 5.356203217612199 6.085623387181452
Cr 5.179690361878845 8.336431506697847 6.022784270744232
Cr 10.92592121186942 6.271058139708572 7.3893076296623725
Cr 6.71271162901603 9.42290624963146 7.863541814868807
Cr 6.870223116131863 4.189051805728663 7.1007147133434545
Cr 3.9559271267405602 6.918131379625737 7.2765707063040574
Cr 3.1536124030483856 4.745899014519272 8.16229130748075
Cr 6.618583105643596 6.887617296993453 7.160746907638035
Cr 4.408258061325266 3.401601736543286 7.495369960420545
Cr 5.695857832845845 5.5316671489827645 8.63918472849665
Cr 8.501451543936362 5.347445720138872 8.104201668695794
Cr 8.938157267826952 7.860355413472902 8.170297557364222
Cr 5.2493747476739 8.380224844113288 8.7463811312588
Cr 7.515308692071934 7.4110287534886625 9.558062779916444
