26
Energy = -199.09730227 eV
Cr 9.330914084912344 8.413207267965916 6.043652960610087
Cr 9.332449159233583 6.473973010683171 4.4425839067290305
Cr 8.824787578079205 5.976174166474417 6.66705098457922
Cr 7.754764558476865 8.176589422615198 3.7334945235943557
Cr 8.535494283513863 7.905073323022863 7.80858610033094
Cr 6.574500126833538 9.43469696478209 6.22584717669301
Cr 6.84316371220332 6.968995568176188 5.882927305841098
Cr 7.213214603348367 5.731884877398712 8.850184162867492
Cr 6.6134511642845375 5.826252310789223 3.537414511496118
Cr 7.995301146643082 3.971275230813703 5.133075630941872
Cr 6.1814713798454415 7.610479298323804 8.140579684699613
Cr 5.032835136100117 7.544495446837327 3.9316900640695667
Cr 7.884955796563187 3.3975540417037333 7.354155364693869
Cr 6.0584298758671915 5.25558895425062 6.446310704015805
Cr 5.925680224259808 3.8468251852411055 4.0577371247095115
Cr 4.319176393275447 7.553014616976255 6.3934878074958155
Cr 5.417108741718247 3.916654254973759 8.68200882244996
Cr 4.453202723052403 5.475467778890274 5.162051538016916
Cr 4.360509740735778 5.902914926182474 8.485682613694102
Cr 5.622071630184723 2.80505834056087 6.193901915485289
Cr 2.739023556041647 7.352564731992271 4.260391546452628
Cr 3.456350658283405 3.1845169603681556 4.396672258245966
Cr 4.132747473894134 5.300617699403589 2.645237566604081
Cr 2.639048677323165 6.105778991598103 6.759777308540063
Cr 3.3075156322055164 4.0783108154431895 6.743770619698893
Cr 2.157963088209594 4.479064112225507 4.614505630396738
