26
Energy = -199.10192401 eV
Cr 5.276043788699967 4.0157565036951635 10.219073496221597
Cr 7.781028902011241 8.342394940336465 6.4216991403372985
Cr 5.926783433337137 6.686016130110461 10.457715555492541
Cr 8.82517601668661 9.699951844806499 3.570999274431048
Cr 6.650724879532887 8.655929951845277 4.024429005100279
Cr 9.645209329500137 6.715618877472937 6.4822177902878115
Cr 5.478857032944983 5.813166320263293 8.156051971979158
Cr 7.2818259752158605 5.657955722246238 6.2485086662257645
Cr 7.731028435881536 6.664433358519802 8.38226825753396
Cr 10.012800878136341 6.968451634941587 9.182617332341977
Cr 9.133310506007964 4.7483527359974795 7.9537561945967035
Cr 6.73719212586425 4.179726154773941 8.082324378661138
Cr 5.857022404836324 6.937947295181549 5.929259496938534
Cr 7.660062869715694 5.187781894922841 10.281508958328086
Cr 8.08683474499615 7.190538492743038 4.279952519584613
Cr 5.2796995354096135 9.481317430614705 6.253897016131169
Cr 6.944182311314504 8.91261710737609 10.265079610691602
Cr 7.204414927388995 10.693852025462023 5.500119885822939
Cr 10.174793344125597 8.536784021255484 4.50241062403935
Cr 10.45038498244348 8.545143918369876 7.1699830367607325
Cr 3.619074836022428 5.498560950024126 9.907859196737723
Cr 6.984376362674375 10.654594887802734 8.014088391449842
Cr 8.62227212526486 7.38472964209375 10.893118097751982
Cr 5.911387725542593 8.422862953687602 8.161964446129447
Cr 9.045563412542872 10.473678985725016 6.131115826643531
Cr 8.71428361217184 9.050646413179834 8.618399320409383
