21
Energy = -160.11009581 eV
Cr 8.795739214825359 7.897257122438721 4.765664273702527
Cr 9.185871810053033 4.028409053495315 7.96314486198291
Cr 9.828543874731732 7.817329555162922 7.004505920669508
Cr 10.125501340314575 10.141189754969917 6.201322225122181
Cr 7.654401958940939 9.181336526366065 6.766933818714539
Cr 7.375576856172584 5.059644881576422 9.812821407670103
Cr 8.59454954030105 11.34307132391502 7.344725520050351
Cr 6.042486133775442 9.027711130173829 4.598235924998196
Cr 5.697178880135184 10.516348111396878 6.4066527862190865
Cr 5.781079618674933 5.595294576575554 8.0060099915486
Cr 6.873392368773951 9.873829902502097 9.025698650892211
Cr 8.278274167410578 5.899336231913042 6.822445408202225
Cr 6.47043353885543 7.066188214074342 5.8285914102571175
Cr 9.266536364258286 9.270366019497812 8.933568558078587
Cr 7.343049084652809 7.336970972993886 8.445105386892894
Cr 8.52452701755136 7.939496886556776 10.775308139869821
Cr 6.761618073444855 4.229557384652022 6.35435915403153
Cr 5.2270463134402725 8.386217227174495 7.524488961844023
Cr 9.42122111970698 6.325836920802185 9.251537187028129
Cr 8.186979166939784 10.25435750984642 4.662238161550839
Cr 7.022535877323113 3.152153498131848 8.495795069149256
