29
Energy = -221.32033091 eV
Cr 8.681160459370671 6.623888262982608 8.67089383787298
Cr 8.66188744034728 8.226405592352243 6.995126671698194
Cr 9.038843175492278 6.241526599889533 5.798087689261043
Cr 8.275704683827568 8.966882618116452 4.394408269963504
Cr 8.478860237006268 4.69560313120476 7.6387933362128155
Cr 6.3929035875124836 7.396195225302296 8.775591908118558
Cr 6.742501777939016 4.978484262479301 9.400878043873528
Cr 6.4829089658744845 8.833069635314642 6.9099782557510805
Cr 7.650163435354724 6.116662172870099 3.1702571968273414
Cr 6.713100188529623 6.069329321323666 7.087870571233007
Cr 7.337005774192073 4.5690157504036755 5.100276515732184
Cr 6.38477320063172 8.01432860625674 2.681936434783129
Cr 7.143323310834961 7.383827585571171 5.067817497651792
Cr 6.568971125668964 3.3670225746286686 7.163933555857265
Cr 5.291725938284836 5.940783284233271 4.392263871918574
Cr 4.3656204469619215 5.984390746964813 8.35663798055107
Cr 5.231293008193241 3.2556128444003503 4.670626740015565
Cr 4.131521333216679 2.142807980506591 6.9092402544215155
Cr 5.8746537331284925 4.474053777590162 2.728235441505799
Cr 4.732950061487033 4.636358623386942 6.490812875317793
Cr 4.715323693492197 3.6360091304476367 8.820827915734021
Cr 5.201114158895292 8.71829033859729 4.483656124388433
Cr 4.645406570856262 7.4771186343999005 6.403343556876628
Cr 5.068647556086588 6.308461238603516 1.852867229502168
Cr 2.8526122227731325 3.5012646845947386 5.2682329751811965
Cr 3.6663651705214546 7.142173077243853 3.6201422651318462
Cr 2.5277582645428716 4.058425465530896 7.67658972806453
Cr 3.448342428596049 4.682866243404411 3.1711279289115266
Cr 2.923438208018588 5.819591347620309 5.630990142551712
