29
Energy = -226.33471582 eV
Cr 5.66488480236984 8.19218014240901 3.4824606719484925
Cr 7.970599129182957 6.946936387649636 8.846156848535204
Cr 5.28799639150165 7.591667671480353 8.026753894216137
Cr 8.84770327974499 5.083434603672459 5.388955554196307
Cr 8.226796683726096 4.094346327818697 9.97647678024566
Cr 7.549700630581065 11.35878341599966 8.22395044251135
Cr 8.274782382061376 7.488992025543057 4.533742045946587
Cr 7.119921174765448 11.528930581576446 6.068870849170256
Cr 10.094456403714984 5.932053052093484 10.520241084652346
Cr 10.420927976884066 7.657641954860335 8.947612456127727
Cr 4.954968745268537 7.69931927227467 5.685924723107859
Cr 5.281398102602612 10.24068515737522 8.12813830908649
Cr 9.131499416248877 9.644071000045583 8.525650192026012
Cr 6.293084932959725 5.184690550940073 9.0300291491936
Cr 7.435804843355329 9.67885317861192 4.123144305720584
Cr 6.6740023020466115 3.901136950167729 5.34861267293237
Cr 5.100353655379624 5.2546196175205395 6.865148362939882
Cr 5.382851959040489 9.9732526786742 5.637921894012658
Cr 9.062279405931493 9.923199813027642 6.151554508379085
Cr 7.824014821979395 6.253684392320691 11.21472672746562
Cr 5.625439436398822 7.186823109749973 10.35725279473602
Cr 9.051585554528002 8.480518049304901 10.901550275852177
Cr 7.170523395727996 6.260156102752853 6.6324792426538925
Cr 9.357199053255865 5.1719828534970524 8.010371300546746
Cr 6.428543845486258 5.982813412820322 4.209072809135812
Cr 7.030974452049496 9.03991729804008 9.551720046856648
Cr 9.547399219200761 7.433126374654809 6.631383493892345
Cr 7.158427946290757 8.812385673744314 6.906850806246483
Cr 7.421684880787156 3.7069848710637046 7.420861228424551
