28
Energy = -210.19579355 eV
Cr 5.074079584348321 9.53749036012455 5.45759779389934
Cr 6.241710074789557 10.318750156801277 4.326419116826486
Cr 3.970887829832283 7.064995007402345 4.406217234485954
Cr 6.434280830514293 7.521625306203243 4.273664019543233
Cr 5.959972047598701 9.272318278559759 8.151232415300798
Cr 4.931025852000421 7.417540010434441 6.668394898034448
Cr 5.334116873863909 5.229799224633373 5.007759543509878
Cr 7.406325939808126 8.720806288181228 6.328949887693052
Cr 6.974596660236816 6.195359316678524 6.4976579973289015
Cr 7.53071017591901 9.528273008029617 10.05925467432067
Cr 3.3253602684583483 5.25773055298723 6.520839919121498
Cr 7.012209731771892 7.266798813362581 8.546675444793248
Cr 8.213352176617772 8.969030355775008 3.742771781768734
Cr 8.889321231062555 8.833963650104762 8.088574859787345
Cr 5.100697681038384 3.116008905354985 5.760091729739108
Cr 6.666046287435961 5.821624236592547 3.0410839532544824
Cr 6.467862623058362 7.586025908516557 10.698214066117382
Cr 9.897223149931131 8.601448327355683 5.417093666855794
Cr 8.866118042534088 6.672431572287381 4.8156491683429525
Cr 7.600374976442641 4.096888681177076 4.9774788064405735
Cr 3.7570867751925494 3.9490731446042475 7.742365864470141
Cr 6.5477174059925485 5.076381150505477 10.147867473237563
Cr 6.434928124066053 4.134948154175602 7.4105297996692405
Cr 9.337901527759458 6.630551550485933 7.192604042387101
Cr 8.804226241308728 6.981475306545722 10.327074983964833
Cr 5.107902150258498 5.895191286866696 8.477800814703542
Cr 8.369662605528632 5.129013302877375 8.77021785886652
Cr 8.870116582086332 4.300271592832309 6.271731634992867
