27
Energy = -208.65718326 eV
Cr 5.764108295574976 6.5537298201978755 10.6395472485297
Cr 7.510918205406212 6.3726479403624445 8.466174623000907
Cr 7.22938901843858 11.560961893746867 7.013382587518748
Cr 6.439741797350773 9.153009882561847 5.607370159547718
Cr 7.567426966167698 4.544618574416619 4.538114661715541
Cr 9.493008255948029 7.687074947667145 8.584455860455781
Cr 8.932873859807367 10.98448865996463 8.790457841147862
Cr 9.3050713286562 5.938626134522731 4.248463782503042
Cr 6.836376062631774 10.675347031244137 9.54574179208929
Cr 5.115530451563941 7.4508348096176915 6.579631603403536
Cr 9.540126346713766 4.714110765890921 9.478372077263936
Cr 8.617108080573512 8.352543758565094 3.968378419283621
Cr 6.782843602448271 3.9976099173175066 9.35452268225111
Cr 8.359663431050903 10.640073826519009 5.356716228872999
Cr 7.790878114880742 6.785823287389782 6.15061916465279
Cr 8.235857469138958 4.221240277081075 7.4234422586083975
Cr 6.638812275156853 6.93522887387456 4.171731891507131
Cr 6.067944976508048 8.240619855778078 8.78209074991917
Cr 8.193468427252565 6.008094163152754 10.710209012298874
Cr 9.740312068121776 8.272519490019574 5.869150302051015
Cr 7.900967793057582 8.655114890987214 10.400306292297643
Cr 5.0434208456119425 5.719817630848311 8.470048921611644
Cr 7.823991651869862 9.010989425764844 7.432706894490906
Cr 10.018041343294948 5.8333894762941885 7.028163528906558
Cr 3.7920673590158183 7.901525306052032 9.017234006397727
Cr 6.146891696459407 4.8641893937629845 6.35849628198316
Cr 5.277953466354748 10.215773051033109 7.623360492164033
