24
Energy = -183.21481776 eV
Cr 4.528735176246211 11.321640715265916 6.173980154880982
Cr 4.792820231031118 5.057886822325555 8.838270945057499
Cr 11.939087728097457 6.879649422232373 8.504969586655832
Cr 6.050077912625054 7.876398827998215 5.758829841854801
Cr 10.359738248346268 7.4462085979899575 10.632378560580719
Cr 7.773621495382714 6.5429363980508874 6.53846372814745
Cr 8.091263912475204 10.952552395090317 7.967084007389515
Cr 8.85368207067679 9.776130708826123 10.305620431578388
Cr 10.359774404662248 8.962329008274398 8.621792708690718
Cr 8.19330935463127 8.786361633093058 5.00359798307267
Cr 7.561333834217605 5.26118873559118 8.996403395054168
Cr 6.935531063776842 10.54111772262248 5.941442979727258
Cr 9.677311775462659 6.382732468503711 8.033650248615615
Cr 8.279511874879425 7.4910513798451905 9.901144106645079
Cr 5.669863288415174 5.141632274686564 6.738405390830814
Cr 9.799947404539147 5.307671659009843 10.468662050731309
Cr 9.699453188093877 10.088704292013098 6.260930111481558
Cr 4.1363081332827045 7.111751868889256 6.9886979676466705
Cr 6.176958782602623 7.162199054428496 8.391970150709632
Cr 8.09744734106146 8.550441455725979 7.667013800035459
Cr 5.748453933593417 11.917997779951039 8.13466270483655
Cr 10.410789700529994 7.860679893469203 6.416758150691446
Cr 6.729377887399734 9.692628212879791 9.60895820261543
Cr 5.605147649513353 9.444926919053211 7.677343232897612
