26
Energy = -196.26417161 eV
Cr 6.438580460884121 3.7681046129386764 7.915680525895978
Cr 7.194892724128608 2.9676834897477815 6.241382637387383
Cr 6.900959654309715 4.923628462444686 5.545379359516802
Cr 7.966061782604891 5.738237067708271 3.3055079260755935
Cr 4.609194054507454 3.91198616449917 5.981028790435584
Cr 5.647014581646355 5.874174410920967 7.594611061489994
Cr 8.2816878322337 5.158760066516641 7.68277118165245
Cr 6.772766971629541 5.5878686030823035 9.84187747046234
Cr 6.004898169881077 3.892341015028317 3.67596121536029
Cr 5.682118737294217 5.215416999270776 1.9560634728976716
Cr 9.105545121601805 5.387556193807208 5.17085066809633
Cr 2.5127081388654 5.44900341656517 5.253471221241936
Cr 3.9308253443728307 5.177575172379042 3.48060226158685
Cr 3.1981585268476382 5.518437673109467 7.707949091471443
Cr 6.810543758516108 7.526893656343631 10.786504624011274
Cr 8.551945303525045 7.858290719772944 4.161356582789487
Cr 6.062158988720072 6.655218984157666 3.7089170851056745
Cr 9.54977908589824 7.278683380537367 6.444087132329854
Cr 2.7841126243256205 7.584186127344531 7.22390550433292
Cr 4.7143604639090055 6.743856999967065 5.6667658026405086
Cr 7.368250249078182 7.686967275297153 8.295192933219345
Cr 7.362186885095042 7.220976585732176 6.082232076193107
Cr 6.286763091603546 8.802929529350159 4.706471833192445
Cr 4.843244301080609 7.535325828991777 9.030991237761024
Cr 7.579297941275034 9.422068724661115 7.0268177745554325
Cr 5.293445461266036 8.565329094925222 6.9651207853973975
