28
Energy = -213.75525984 eV
Cr 8.412616711702844 10.940704274819707 2.876368072523429
Cr 10.281936166780412 7.594654598978964 6.051030242504535
Cr 10.254888375221816 4.966951607804243 6.714798856023917
Cr 8.517262510444676 4.220874780118275 8.646040693605269
Cr 8.514427002730079 5.978361049618545 10.530326992208598
Cr 11.48937508508605 6.877599025402617 8.379351217585015
Cr 8.897673405663726 6.728488867438092 8.02665752083883
Cr 4.635808040438984 7.646512219940931 8.205471773106304
Cr 4.881095295639344 7.754220427208209 10.320405050233978
Cr 8.426875360274275 9.758625771578949 10.312692638075706
Cr 6.775447132446524 7.0192640628413905 6.688332832905156
Cr 6.604018421242625 6.010241629664864 9.177232049310048
Cr 6.771080905333752 9.626929996404 2.375529318278088
Cr 8.708293071493124 8.701445899567336 4.052359848635256
Cr 9.544766791425197 8.867658997734951 8.362973543952288
Cr 8.648265557171278 6.547194489596324 5.3252204037496735
Cr 10.805674222830316 5.245748362394301 9.299932270391372
Cr 7.504667417614786 4.640734203920623 7.079671811698455
Cr 8.293493333017985 8.820119748563517 6.588084055848222
Cr 5.90971799316317 10.217287179868395 10.445208714057989
Cr 7.262594196015848 10.470965274144541 7.931305995779416
Cr 7.0123928780063975 10.394726702112727 5.1881406977680635
Cr 7.186778132766521 8.048611150153176 11.0903314779019
Cr 6.994883032677009 8.348008724436651 8.692721738929944
Cr 9.80607435905359 7.528490055946008 10.417129861871866
Cr 5.735408679257982 9.268256278630357 6.5092204858410305
Cr 4.712326409154556 10.08999588994672 8.79007645734725
Cr 6.820163482354061 8.117716668687443 4.406479015013364
