23
Energy = -175.71615873 eV
Cr 8.853375318525634 3.645134937852224 7.87268278781081
Cr 9.96707845600405 5.627266594307536 7.674602629397097
Cr 8.634438918476002 8.289079009492687 7.802303070773534
Cr 9.02407285705915 7.007705976999911 5.907357146333534
Cr 6.110919744040365 3.8362661896908223 8.436953446857054
Cr 7.607100304340769 4.967282653603722 6.468266578649226
Cr 6.660125759935638 7.4990167927876366 6.443965877514778
Cr 7.566502750078825 6.254068979163362 8.410330947235591
Cr 7.5492587633343895 9.127064145751048 4.526160082577569
Cr 6.919032292074204 4.27014613955383 3.9058659149985844
Cr 7.285087092356745 6.66646515472878 3.8807628747968756
Cr 5.110548591713772 4.799091218406115 3.0126915467357693
Cr 5.093609941692074 5.613720125936131 7.553818116873243
Cr 5.481085941623379 6.222180330994919 5.1555028637567375
Cr 5.402736734529854 3.6944467706285993 5.764709816158465
Cr 5.27224288750579 7.5165180380320775 2.804932832724916
Cr 4.896119042198754 7.922837619747281 7.845736137468965
Cr 3.85036264610217 3.2007181993316474 7.878340083307913
Cr 3.2041980154968113 7.3853997998042376 6.082762601765136
Cr 3.3021057211220293 6.624173333984831 3.7973770845811496
Cr 2.718191087119173 5.404086414393537 7.665663182148932
Cr 5.027943433096653 8.695803566030547 4.998173246506134
Cr 3.3228416318989344 4.579571191645194 5.28124170436165
