26
Energy = -202.12376223 eV
Cr 4.09903316157762 4.756080611331361 4.622876761998094
Cr 5.88343110861491 6.2941183990208724 2.971263218397124
Cr 3.600462206496772 6.487414027521235 6.7935626510587275
Cr 3.719252844288564 8.185239925131285 4.639285572650862
Cr 5.119479241693496 4.317151369095513 6.817718479659518
Cr 6.5461192392406655 4.3311445395793875 4.390685983596355
Cr 7.150593576200744 2.991401562357511 6.264174408709689
Cr 9.086284337626662 4.5959773892704465 4.639153981852305
Cr 9.39906542146461 4.530554909324853 7.613667990081044
Cr 6.762093317198229 4.415132556554812 8.710891331334109
Cr 7.36261796658731 5.56387607125751 6.408944551403665
Cr 7.892286502763567 6.721447502096821 4.203997866718059
Cr 5.626275819414842 6.628282314838333 8.08653116871365
Cr 4.076238193309901 5.03931964017696 9.080299875009775
Cr 5.441072950033448 6.638419901403313 5.3193519418138875
Cr 4.914033730287712 8.877907677629866 6.716916151246825
Cr 6.437430649780641 8.658563928004627 4.427915491727117
Cr 4.019020587998272 8.245320611366235 8.92258645850025
Cr 7.456339189747394 8.013800844076185 6.529168469141436
Cr 9.212720969822682 8.570374295115439 4.972562965659137
Cr 6.772828900285915 8.6533246042172 8.701467890756335
Cr 6.913055688290451 10.360783763430977 6.553372325636009
Cr 9.446244592206321 8.405841281247069 7.837809893835107
Cr 6.305085667444273 6.559338057488882 10.419221383192719
Cr 8.233975527381006 6.442483962848911 8.689535593468426
Cr 9.687242624840945 6.475373346458499 6.277563919517937
