24
Energy = -183.64718414 eV
Cr 4.380467681490078 7.649399395270659 5.432362202287771
Cr 6.524293519047644 8.291461895266316 8.750335091220956
Cr 5.541834911707493 5.875398263341542 9.143294401837748
Cr 6.590310618020233 4.5307361809735225 7.098011791605227
Cr 6.3950907257535725 7.206979162199528 6.675586121499559
Cr 8.024572916374739 8.78029797454662 5.473150422478838
Cr 8.73191178010293 3.5440935099791786 6.862542444128035
Cr 4.859283342044348 9.756283474605377 7.1765825733483535
Cr 8.931499517680674 7.997145278842024 7.706947701185412
Cr 7.235806302572499 6.998133343683892 4.017744477298513
Cr 10.92383399002616 9.502349842058065 8.969747648407601
Cr 8.105850006194418 5.944343503107448 8.509162005305383
Cr 7.843105642378555 7.29108305640275 10.352455021307298
Cr 8.47995267198478 6.101117315543952 5.867136969392352
Cr 7.261876633939115 10.136563099499304 7.406260559122734
Cr 4.048828581035604 7.524326320806802 8.067272705156562
Cr 9.727718916616103 10.2873365138376 7.052875900275183
Cr 4.098205365625462 5.298667152698593 6.9174380447790105
Cr 7.956124770744328 4.172044519432651 4.629004104890723
Cr 5.920150916492769 5.3575514813861105 4.94880225519928
Cr 8.74621695316732 9.63363425861903 9.675672686557673
Cr 9.943115422972769 8.67643212035367 11.548643859207399
Cr 10.284574164321102 7.244467042326458 9.64565192861213
Cr 5.839805835170169 9.377342814960096 5.0381649240628485
