24
Energy = -184.63239097 eV
Cr 7.23897356677885 4.4650212685465425 4.131720106277368
Cr 6.705656166575158 6.459823903896963 2.179724258867056
Cr 9.242025197061713 5.0049812753206195 5.706280335120051
Cr 5.388705360277972 4.890285367383317 2.2999709133272543
Cr 8.104560514875558 7.013388885530585 4.294519588280906
Cr 6.781146449696794 3.627107352424156 6.633013654738654
Cr 4.869414758778574 3.41589362824908 4.706269859104604
Cr 8.525934938809682 4.953445818608427 8.420415100862105
Cr 9.175139885777707 7.288970561006031 7.055503833883649
Cr 6.341042648627883 8.670971543491014 3.8324993006116195
Cr 5.604355651405664 6.200012604030353 4.56287227701303
Cr 4.514236554226596 7.640118727915998 2.6409574764302066
Cr 7.086762229473806 5.962436439837589 6.474531304285634
Cr 4.442730557731978 2.8322347659091562 7.347204467396579
Cr 6.390750391374776 8.33588089648241 6.250349219642214
Cr 3.03160576539364 5.792913911157993 4.409828046776598
Cr 6.157152524008574 4.732315091036497 8.666785249188484
Cr 6.947920873029762 7.172568634564432 8.751215241823578
Cr 2.4409939522237347 3.775072673038735 6.337756516376487
Cr 3.6738846811969483 5.00972025720326 8.55488519741028
Cr 4.092523503822984 7.771700276863943 5.2208496060501925
Cr 4.668406555376898 5.13258179154929 6.242483647011229
Cr 4.925530725468551 7.075385955175845 7.796249962592735
Cr 2.314501686737011 6.0887657841336695 6.763263069138553
