25
Energy = -191.70842602 eV
Cr 5.663838603016501 7.924515243151058 3.8143116261668544
Cr 3.5471291337391784 5.85097363285412 3.7001678566576106
Cr 3.35911476517258 8.010728034570967 4.49340366878827
Cr 6.261767515240328 4.936581181368197 3.6184357484644503
Cr 7.028446656154844 8.633581542450896 5.722178642492996
Cr 7.911823032759695 6.585978575620918 4.761135966444757
Cr 5.346446880361405 6.35076979986552 5.669661842500806
Cr 4.553963387076267 3.973032807483305 5.656674187423725
Cr 9.749139406657655 4.994523063446157 5.427840119136807
Cr 9.818733050701208 7.827484204021906 5.789869285971128
Cr 4.6064495601617725 8.796816192150784 6.341971184010545
Cr 7.0725507021983605 4.153952306191788 5.731744834551034
Cr 6.363817658111798 2.7350944327168625 7.429081863703144
Cr 9.0557791689076 3.2404056012846083 6.74930777529612
Cr 8.021355245871552 6.314635475524652 6.973053139521278
Cr 2.990459711723499 6.440696127716482 6.264771160977934
Cr 6.131695824220129 5.325584270218255 7.795409947112137
Cr 8.726920879140259 8.434260153879826 7.747143681275326
Cr 6.283305275298812 7.768003107996718 8.18619671456373
Cr 10.074854850235493 5.758818434109106 7.514540534838805
Cr 3.8952413239004704 4.715510325057762 7.695139184829928
Cr 8.126338768895385 4.197388017944095 8.601451385488891
Cr 4.335076466260847 7.199822092685597 8.443035666607878
Cr 6.634444719240029 10.254948375782542 7.4166165716746235
Cr 4.653396145541491 9.787985732495624 8.66894614208897
