25
Energy = -189.79019875 eV
Cr 5.505527500044536 9.996396124852575 5.273054417567575
Cr 7.134272941747967 7.934391265457155 3.2328112170946146
Cr 7.299789017127747 9.783379893219513 7.352881613039135
Cr 8.732909731964957 9.723308580108585 5.054680858106602
Cr 4.843249212685501 8.64090364549877 7.154489832407853
Cr 4.954840616489335 7.330440504010863 4.773407124345104
Cr 3.2781643457038 6.718486823621117 6.8419344237481665
Cr 5.005848955835562 4.5417653355324035 4.973813242658631
Cr 4.907086135271738 4.055865843040731 7.77852240232223
Cr 5.0397081542034305 6.595467549803121 8.980408656539895
Cr 5.548114889426132 6.111877041846365 6.66687405497293
Cr 7.00258907514151 5.744192959269372 4.388452256977266
Cr 7.045454218419964 7.674649568988656 8.32342470697393
Cr 5.634082709285311 9.242502342289093 9.429974298226542
Cr 7.02042649256268 8.137915706851706 5.622450521584069
Cr 9.34300174543851 8.332373547374056 6.974093677767345
Cr 9.122291596105875 7.009391946017189 4.99315264269815
Cr 8.922061452742625 8.74197565150885 9.358378377391762
Cr 8.099094079747276 6.065771219432417 6.73787855925762
Cr 8.899994444620766 4.328027522772068 5.165007990131591
Cr 9.314973003592701 6.3629961103989805 8.94860986364408
Cr 8.791990685371552 4.064758392597628 7.963699268352466
Cr 7.513600648036629 6.567357062480761 10.437732293740519
Cr 6.820925769017936 5.06534632277211 8.763733364408528
Cr 6.916444672788908 3.778243911251791 6.330197971323821
