24
Energy = -183.31162346 eV
Cr 5.4923453459541 4.212448057679093 8.108142877897379
Cr 4.881629837323511 6.044603530024375 4.449435000215997
Cr 9.149703840243737 6.554840640899603 5.94965422562172
Cr 5.559335917475699 8.533473519921548 7.746071873553279
Cr 4.409378983992447 8.529338813288494 5.640869577047444
Cr 7.350572517970543 8.036950493845206 9.409554332257123
Cr 7.307968798079537 3.9296501341974768 8.806627138755564
Cr 8.800100922679007 8.562012736731536 4.686464485240102
Cr 3.123267827173943 7.396997877049736 6.919464213543187
Cr 9.649900073271425 10.37030068857241 6.079803045770752
Cr 7.282927610593197 6.278584390805502 7.879547175943021
Cr 9.606586707383657 9.740356136248659 8.711090088535638
Cr 6.248188722757347 8.445203921728128 3.4050661301881444
Cr 6.551709378531998 5.747764532216839 10.413396569727883
Cr 7.062369131506506 4.909641446496966 6.004196846060554
Cr 9.575181424499805 5.042137475666833 7.550169268211025
Cr 10.697770752570442 8.17747224265254 6.5710994855441305
Cr 6.771077949185746 9.894592306681089 6.031035630047857
Cr 6.6736633721230785 7.425266106935991 5.458047878591662
Cr 9.768010009952125 7.217105114382418 8.666237695850556
Cr 4.878259941228499 6.575449675410758 8.982226239927952
Cr 8.747776679342381 5.772839011194349 10.217371840782304
Cr 4.895265489361447 6.2373875736035265 6.736554397305726
Cr 8.120896064639762 8.671535538449072 7.241324283337169
