23
Energy = -176.38087338 eV
Cr 7.123506917178609 7.570514458579137 11.023174313289271
Cr 4.910082837431469 7.017561756576092 10.662398551016498
Cr 8.075065150106242 10.113766761054 4.8041430553216
Cr 6.122877118321758 10.191027831376976 7.516323378729578
Cr 5.590192272530047 9.674774905346359 5.030140696247387
Cr 7.539955735015878 8.687024981252499 6.549607696462606
Cr 5.063103620966864 5.683612005003255 8.627820987536468
Cr 6.829024822933952 6.112172971810264 6.086030743233981
Cr 6.786378298765455 7.682511528480716 4.226485194340027
Cr 7.073025143123738 5.2077066541337205 10.227280643344866
Cr 6.661896426421641 7.407629592920778 8.666019398362309
Cr 9.227431928523812 6.36522494527924 9.63616357781352
Cr 6.161781286065871 9.648672355474933 10.064124700428138
Cr 9.138230192089415 7.599242527119795 4.740499964354474
Cr 4.389017533250396 8.515810426882084 9.027172740734994
Cr 9.362106646796885 5.238923734845879 5.747128538682281
Cr 8.972000669057907 6.959773017782026 7.492413006817949
Cr 5.2200439090181305 7.680650872433818 6.493511087869851
Cr 9.93475989273797 4.574002008211667 8.140152868511361
Cr 10.102126078403877 8.775059445732767 6.534972587379921
Cr 7.577799603878709 4.862982641874098 7.937936806696374
Cr 8.398823046526651 9.117341611285545 8.905709322669718
Cr 11.23071418625214 6.510241709854148 6.258204314654665
