25
Energy = -189.6555739 eV
Cr 5.488917528531041 4.845821780026954 2.874143636975412
Cr 4.664224741815673 6.606555901334449 4.156369166493619
Cr 8.23805321685085 5.21136007045611 3.3488588910082115
Cr 6.437239996477444 5.199088540138502 5.25500306965386
Cr 10.387057301020562 6.343238547200237 4.564409541093287
Cr 6.778497581243552 7.486428600813804 3.6709765740365654
Cr 8.89762673697988 4.25330774254996 4.887569468283535
Cr 4.30876282587524 3.842708592213692 4.780206043941135
Cr 9.498628377346089 7.4983347064449175 3.4646400739154086
Cr 2.6236010718923657 5.50724342027923 4.8480906799824135
Cr 5.522452359626002 9.172132702931965 4.684844044701319
Cr 6.689651251224397 3.2328031443493463 3.628277479334183
Cr 3.7531548948296534 7.730185285459279 6.16794690441044
Cr 5.905709814230785 7.635130842010991 6.197313608094645
Cr 2.018352931822498 6.379257465374922 7.492151188330937
Cr 8.142044090465426 6.770165017228651 5.662973932569789
Cr 4.343157198005274 5.596004082279611 6.6407569673191675
Cr 8.49466577624022 5.237947687122778 7.0533045046854355
Cr 2.0391196413465673 4.067396342515959 6.150036872201133
Cr 6.41920951074871 3.8016630212638565 6.902775312877223
Cr 3.9206037019606863 3.1857644480064553 7.0334335090577715
Cr 6.749872927479822 6.3589040301919715 7.894809931169204
Cr 2.6074026196912987 5.023466807414565 8.634717355523966
Cr 4.329515104249128 7.3537233579455465 8.596030436667661
Cr 5.159857021733717 5.078746086133139 8.827739029360737
