28
Energy = -215.73326691 eV
Cr 8.020617883529845 4.253552999902 3.222908120212974
Cr 8.791320464514694 3.2745930030405734 5.619830222454629
Cr 6.735935553212481 3.697246213265629 5.204639367463123
Cr 4.0407999077281955 4.070890203231364 9.589343089778753
Cr 7.260245807411239 2.9575931262849986 7.866539489397775
Cr 8.857883592409864 5.555263669979742 5.0166980230704405
Cr 5.237732457016876 3.8245176620590544 7.468997239262583
Cr 4.192621731644358 3.9202873758313626 5.029679702974242
Cr 6.095274452154425 5.968619563410879 3.830810326398847
Cr 8.09111836377936 7.010877247858437 3.216252927287817
Cr 5.218871253688415 4.101883415250388 2.69851548388123
Cr 7.397434540337927 5.317945965110962 7.302551889532327
Cr 5.351698678064633 6.059850673713922 6.172217346126466
Cr 5.751676782404867 2.811010232235074 9.853672779574294
Cr 6.274519604535888 6.523096379855633 1.3089098228512206
Cr 3.1092433775623354 4.968947452903231 7.119537905342535
Cr 4.279326640870676 6.636235952810685 2.1062031356102464
Cr 6.617504301832976 5.151466573848445 9.365985267301705
Cr 3.410437538642028 5.665047006731605 4.296334235509109
Cr 2.838025680266227 7.700762962619037 8.317542940102333
Cr 2.888732341181012 7.170346365281686 6.1145722740848525
Cr 6.913740570330606 7.586641071583535 7.727396712658571
Cr 6.374712253415234 8.49241602606475 3.1039602601521277
Cr 4.840213814006034 6.319168033564636 8.461381404535553
Cr 7.265841844238845 7.524325348413714 5.496150403305558
Cr 4.66309904975759 8.014470033684825 4.432238563198757
Cr 6.6716309674898895 9.545524388989552 5.6008832739844
Cr 5.19789153254443 8.265572037044956 6.844398778517756
