23
Energy = -175.7417013 eV
Cr 7.61254978628642 7.830569682127969 11.13151922219295
Cr 10.688814942836157 8.386145897679242 8.393647918921822
Cr 5.161224904376656 7.329540114745932 10.011902319995349
Cr 6.9249913649497445 8.914689887028107 6.056655379049242
Cr 6.097350550759474 6.86557464089684 7.589018239959799
Cr 8.773635320952497 10.991036384963852 5.53141726048507
Cr 5.893483233632849 5.079803246046081 5.903496872934973
Cr 9.353960536062791 6.466585393279832 9.479750116374412
Cr 4.338016052841628 5.57355656918404 8.489915017009519
Cr 6.44285135050063 9.546310432900897 10.160474555097963
Cr 6.181487400176172 4.164950089679289 8.18703512679392
Cr 11.385408065827377 9.499183454101809 6.2408681866448
Cr 8.908159109450313 9.788126835252601 9.400333071549408
Cr 6.885093312381872 6.003186649761028 9.783026040145678
Cr 7.3697484936850595 10.605664805904173 7.629906811865177
Cr 10.269834220108457 6.663275775390611 6.905389494440435
Cr 10.135550964651577 11.060595708123186 7.502678562506033
Cr 9.194855156835198 8.712268124927883 6.032194114093781
Cr 8.197973786924926 5.399426177779568 7.400096116637811
Cr 7.909271390125488 7.980294199738633 8.166608111464106
Cr 5.4678337191369595 9.197604447431063 8.223622253464534
Cr 7.828565081882319 6.428088887793331 5.5177797643773125
Cr 9.956547363649983 8.257395053503908 11.074103173507407
