28
Energy = -214.4664124 eV
Cr 7.622752726175935 5.6598355692060025 3.362655115891685
Cr 8.639713108683905 4.697430683436294 5.212715635811883
Cr 6.852040188389944 3.237908523220131 4.482731237308224
Cr 5.2760680882378646 6.6815815871907915 2.8726375471357626
Cr 5.3527474472788334 4.127094376464743 3.721492689308578
Cr 6.725361709214853 8.269418014915235 4.106417448372907
Cr 8.71119881792543 7.319477296428546 4.9889001721531745
Cr 7.318224601451928 3.3003630341114922 7.139441311949182
Cr 9.939851936256016 6.0791612105010655 6.943841580989582
Cr 9.650081210419982 4.319224517936553 7.579715811327296
Cr 6.306066601614655 6.1359662086841285 5.272821319357624
Cr 7.373511054689707 5.6809849666581735 7.260781365666798
Cr 2.3729753317913582 6.07685847192458 2.816383215315681
Cr 6.829819447847329 8.381969974775293 6.72710881374626
Cr 4.640409189114397 8.277273711846115 5.322421615090896
Cr 3.945419486031612 6.017732520329359 4.828262940350386
Cr 7.833459375693997 4.749119036610485 9.640822979866222
Cr 8.952229898842441 6.243620419197637 9.43496587155137
Cr 5.194620346917636 4.203037962592425 6.383907476200352
Cr 8.443960350884689 8.121368705170582 7.692594381224058
Cr 5.352498956121313 4.798192968547007 8.584215213493344
Cr 4.867188436560665 6.788316451040282 7.289353257636887
Cr 2.687018274211526 7.801846577604937 3.3823307265222295
Cr 2.8670109879179715 4.032151449786669 4.653934117819194
Cr 6.459302394265365 7.15505588619813 9.17574005329132
Cr 1.3323967620232287 6.295696979710105 5.339232255026666
Cr 2.31864639561324 7.627903005017794 6.195863819771351
Cr 3.111929628950469 5.256084804675798 7.110170009934141
