28
Energy = -216.55187244 eV
Cr 10.972016410466857 10.935129053405802 6.455847069504899
Cr 8.343791377016467 7.653800925694968 5.663742824258716
Cr 8.161783804569984 6.1975896129250785 7.53474753949044
Cr 6.454873645043199 5.867382536813251 5.8240179506610135
Cr 10.440841364497688 4.701788846998661 7.988675514392331
Cr 6.4921085388831745 6.065591086158405 9.53879804562615
Cr 5.52639336819884 10.505032547410122 7.4024372062607675
Cr 7.969123019589718 3.9496987015908864 8.281367811311865
Cr 10.147373800620036 9.021099765815212 5.303617517652012
Cr 9.295692335129065 4.874497096677315 5.967625362423832
Cr 11.779071227860209 9.293861880931223 7.736467724157559
Cr 9.234323956932974 8.598410692270281 7.808126933867573
Cr 7.621949162906906 10.13218927726061 9.19432864606475
Cr 4.346859151169944 7.35916912188225 6.71583711469291
Cr 4.082721836651722 9.634296396462025 5.5385436717426435
Cr 6.456416354913747 8.231938034840997 7.543882997837613
Cr 5.503315566130865 8.649852891134229 9.959187923548026
Cr 5.69855544657325 5.019239944285299 7.481401785684909
Cr 7.875991775131112 8.016074004761988 9.95711477664403
Cr 6.019047973021711 8.915932490843337 5.181050654244287
Cr 9.478277738432299 6.206040897303516 9.55651560656791
Cr 9.671925376549463 11.167906324175448 8.376363495634484
Cr 4.0171338776422125 9.264321070420007 8.239286885285505
Cr 11.56186181263504 7.064829580920503 9.180327024645774
Cr 10.270365405840955 9.122774902210091 9.775956614738535
Cr 10.7713370447123 7.0817587381288 6.9128386713131835
Cr 4.375294483956725 6.74929486553983 9.05091927225578
Cr 8.292405407114709 10.224374106321966 6.523630648593668
