20
Energy = -152.23790092 eV
Cr 7.246193239448312 6.361776993889762 5.956809609264476
Cr 6.959241481118858 5.76001348252581 3.4978194172944934
Cr 4.728311665906489 5.59047504524621 7.01648720524609
Cr 6.242237003031123 3.439588292945629 2.581310575773641
Cr 3.3619705817186687 5.100943940199416 4.78414201547728
Cr 4.293003531858387 2.9998359909120467 6.562964072495854
Cr 2.339904579404742 4.25560298760068 6.860477774842561
Cr 6.21902034471416 2.255329971979154 4.597238814988728
Cr 3.889194833852297 4.638669433631438 8.893384191927073
Cr 5.620326749892931 4.393260383050075 4.949554553566544
Cr 6.357048165003556 8.955627789302278 6.036547090634221
Cr 2.8101107634131313 6.759880773000129 7.086750427423192
Cr 3.618969615905517 2.827445350496442 4.236497018861682
Cr 5.929091300092905 7.332533729023223 7.942581346515533
Cr 8.187078731653122 3.9222036223866255 4.716364857437061
Cr 6.087678463142311 8.298359811383591 3.1794575084855317
Cr 6.804880757210174 4.293218034145962 7.007577993068194
Cr 4.622875517341273 5.9171836381435154 2.9192278667243685
Cr 5.101345485165885 7.196116889266039 5.092191944469727
Cr 8.021354387560965 8.141771038307422 4.522452912937979
