27
Energy = -207.09900769 eV
Cr 9.62148822098174 6.016232516983004 9.987929316528025
Cr 6.562951258478161 9.070078204703657 5.4429779354775425
Cr 7.486047569746454 11.30366645271386 5.952353320938159
Cr 6.444813005957232 2.82441718408139 4.995767724778776
Cr 4.759870519960462 4.632826816701559 4.640605702548324
Cr 6.5352940359582075 4.983297053147727 3.189525880329663
Cr 8.11284358978304 7.2553125405290935 6.330919293187837
Cr 9.800675056727213 11.176799189300016 7.864514087175773
Cr 6.210078964710029 7.321636722775165 10.149366599747454
Cr 7.149693007718633 9.422508156035944 9.273202637417958
Cr 5.926241491953234 8.276427029351487 7.5052279428936295
Cr 8.162347880333598 7.207663216223987 8.542038351321239
Cr 7.212854289477929 3.149838331129915 7.602413890587721
Cr 5.923243684405715 10.825306882513143 7.38224090649555
Cr 9.864247411132784 8.830323926314133 9.249143336909817
Cr 8.319270955270772 9.421854328033938 7.3182935987677675
Cr 8.36396059777916 7.699953302165889 11.141633528695749
Cr 7.757837944823027 11.643269269287735 8.869193229766884
Cr 7.418082947209814 4.953670525661973 5.432107670896683
Cr 7.8160501647520055 7.191426320265226 3.9964715348799884
Cr 5.507432614684228 7.368400082194712 3.579673403182799
Cr 8.811835639878765 4.895991411249355 7.501173021821666
Cr 6.487668160536288 5.742581626032595 7.912285459404106
Cr 5.685263298888214 6.533864274458447 5.779645031763714
Cr 5.186667248281271 4.077668566294788 7.051581839092474
Cr 7.354208703085346 5.127000502827174 10.063292986352884
Cr 9.15894929687149 10.526066579548582 10.694552395850886
