25
Energy = -191.98351249 eV
Cr 6.427561708569818 7.589698373541261 2.246432892944275
Cr 8.070635488058015 3.4410552350855332 3.3719104962573354
Cr 6.071014985290082 5.291260461519113 2.169246789632822
Cr 3.866241561224039 6.528328864589751 2.7327076335776934
Cr 8.05438424980185 6.288502157528202 3.794654320178088
Cr 5.547591217710989 6.7242474312767975 4.257454348089542
Cr 1.6825071579160378 5.401107396922324 3.974576820367975
Cr 7.645305334987544 8.146235325186657 4.406358283886612
Cr 3.8617144077286647 4.502398846843164 3.967949899838864
Cr 6.417636180263742 4.568119609928134 4.632960728889755
Cr 8.853535360798393 4.609577184519648 5.9208346680611434
Cr 3.038662850246602 6.779594455042441 5.365762239653903
Cr 7.324806432470245 2.5745738186069547 6.042241158794682
Cr 2.7226697623642475 4.490314932494379 6.332247942566829
Cr 4.702218336680439 3.2495316723045105 6.168204989245849
Cr 5.53226707993771 8.207451089334684 6.282820046367439
Cr 7.467732223924236 6.676601148098513 6.1636725838242805
Cr 4.967791921362429 5.909398321191969 6.668361550234629
Cr 6.665175435540896 4.3383532980115955 7.484889394860424
Cr 3.2536186519839836 6.073115629299658 8.185011238588896
Cr 4.500746271535901 4.127136270257602 8.587349831900331
Cr 4.984860814490842 7.982877627997272 8.473481161617553
Cr 7.550024263011599 7.889710144117028 8.120208327463724
Cr 8.218183922896351 5.723415911396794 8.572674751408409
Cr 5.812609818267071 6.1268902319684475 9.317483338810531
