27
Energy = -201.50046854 eV
Cr 6.949530385702514 4.698721414333546 11.448452904533909
Cr 11.311623949350178 7.655358729444757 9.52827757636554
Cr 9.78033617466919 5.69938241934255 8.817455474353464
Cr 9.576578652830818 6.043000316708791 11.219716386153877
Cr 8.432551424551335 3.9617460281250514 10.613722161167571
Cr 9.439923627803557 8.443759537405136 11.117516914808176
Cr 7.4028916745029765 4.727485453085052 8.527491260706208
Cr 10.573990477305351 7.86834534442959 7.108725364860294
Cr 10.405216739925978 9.93819604654272 8.983287283284863
Cr 8.857160583621932 7.948389963328954 8.804492128003101
Cr 8.815503909145429 6.419066836429826 6.463554280047628
Cr 11.072609924171735 10.080581404547033 6.8174442638611055
Cr 7.568831265390155 6.520730071317811 10.218725303849954
Cr 9.31346551721126 8.845224649142265 5.144129719024897
Cr 8.235497314773628 9.521770233338986 7.198102120679712
Cr 7.050221135634564 8.20762457184546 11.552503724775805
Cr 7.2822455513093995 8.072586311783185 5.1074383525790115
Cr 6.937681110698499 6.88785599363793 7.592637924897039
Cr 5.329512984491957 6.7612143008749825 9.364340030583358
Cr 8.196807999796919 10.259478775864675 9.903585657362688
Cr 9.30704494298024 11.26708248423457 5.539230294031607
Cr 6.539309047902169 8.935762181308359 9.352517578417281
Cr 9.173393781190892 11.707381858274543 7.796435383232824
Cr 7.1005768223987396 10.463103697294857 5.251435436156458
Cr 5.796355246357501 8.772267388382476 6.949443116234353
Cr 6.417775254342944 11.178463281691355 8.001539753817132
Cr 7.002319351066985 12.551118688738592 6.722789993952625
