27
Energy = -204.68905102 eV
Cr 3.065626170647433 5.797563559481891 8.433433455225464
Cr 3.089333332386747 3.529257209779065 6.796364776489482
Cr 3.2577693718860132 7.519117798804463 9.287998893569922
Cr 4.154036227689906 3.171845847375618 5.2877912943037915
Cr 3.983075973649904 7.725230043708687 6.746294357747163
Cr 4.809629615301098 5.274609159610259 6.761680930833003
Cr 5.65245658790826 6.569087021967875 8.671145088911354
Cr 2.9323487445657035 5.740588024839174 5.223779020815437
Cr 5.53558747563618 8.630373781676248 8.271705429529803
Cr 7.5363932915624146 5.22033746359404 7.435393380102257
Cr 6.0788221747769695 3.367488952592441 7.05319271336269
Cr 4.139763816038523 7.9799690074326906 4.524016997578639
Cr 4.8379100268157735 5.368552781589116 4.136705224495583
Cr 6.628740867555476 4.337953419792993 5.0758400560663
Cr 6.118941838377614 7.04298332319082 6.0774790166956185
Cr 6.654201713876735 7.180667239766856 3.955442521567645
Cr 5.961258738066067 9.858988948401855 4.131413011828461
Cr 5.735435078579462 9.694418574305958 6.042585491823111
Cr 7.7674994571125495 6.8607822004372165 9.495274926561253
Cr 8.815325877504963 3.6648517845827726 6.0767648527154945
Cr 9.67976508940899 6.100103860855815 7.651091900084497
Cr 7.826720670773786 8.013669584829097 7.402895532159919
Cr 8.967953543620087 4.616769030514887 3.85584175787655
Cr 8.459674727857443 6.132755513198133 5.295332233504773
Cr 8.16301686333226 8.778243309210872 5.170635493035563
Cr 10.78024884284291 4.949909593961392 5.871895380312257
Cr 10.104834031552903 7.610253113825007 6.004376412130466
