20
Energy = -150.11924008 eV
Cr 6.465050943735246 7.641733995377832 3.770558730623555
Cr 6.980655216944941 4.8535497765512385 3.9192131078491568
Cr 5.031866681073025 3.3984128187723557 4.606858019931015
Cr 6.973739985272299 3.3331168959690647 6.1822059726324285
Cr 5.421249889434576 5.558856649377129 5.783235845703972
Cr 5.071277814715523 7.9118297152720976 5.9407665877575075
Cr 7.463206426362335 6.815524370465126 5.8934157850149385
Cr 4.359119951421881 6.070489461713585 4.037145045869977
Cr 3.1575418903165646 6.78563258960182 5.563526745176779
Cr 8.880416899227836 4.997402399955996 5.819231567060676
Cr 7.936903489838641 9.173812240392097 5.907866803723325
Cr 4.100649511880274 8.133564467976997 7.852844178612862
Cr 3.216023927466669 4.229335849919357 5.926586647123344
Cr 6.693048630637862 8.880402696434142 7.760757477069808
Cr 5.679925486781875 3.9848600265640677 7.689961092809105
Cr 9.890694538829052 7.274932255775803 6.571838623526041
Cr 6.328686932955538 6.65687376563526 8.041930440113516
Cr 8.261089825646227 5.178414156017444 7.621717926704945
Cr 4.060522487830581 6.093837903813289 7.651947702432246
Cr 8.778450796133454 7.777539290920446 8.20851302676966
