25
Energy = -191.28569455 eV
Cr 4.057440537935174 3.3142561434368467 2.2126028777589726
Cr 4.9199549506906655 6.826916334362637 2.456322900009235
Cr 7.004108589142393 6.629552681779228 3.7099359244925347
Cr 2.6740258826911005 5.268379621104358 3.2434551510123693
Cr 6.086376709186313 2.767484804841933 3.8245602538205943
Cr 5.013177388222839 4.95724852361243 3.8465905262135456
Cr 3.861967312663016 7.258901096849754 4.3963469891683005
Cr 5.954714097909725 8.359984414427645 4.464675758026776
Cr 9.665466980401714 5.741927533211452 4.731783094169271
Cr 3.2834326020663283 2.7800830600501634 4.487989461820913
Cr 7.377013839112872 4.363423634641868 5.009367047270067
Cr 7.495098014460449 2.476928426908361 6.419295124623894
Cr 3.954498168967086 9.208198589922416 6.03889273414566
Cr 5.150919233900598 3.270220326149901 5.952450970740649
Cr 3.0011657609672238 4.8981184106704605 5.629469449040394
Cr 8.066217257637433 7.089656238979428 5.536278147560168
Cr 6.692710814024378 4.582743939427934 7.4585003385823345
Cr 3.5755395589818777 7.061607685700262 7.219488443231213
Cr 6.03681909431724 8.466232988669784 6.93046861450218
Cr 5.555784728583013 6.040411753116434 5.880796025191971
Cr 9.067324523581561 4.955856391263735 6.870196877412154
Cr 5.012808345693572 7.449111557629341 9.027429775663629
Cr 7.261896304244553 6.645774083678128 7.895278687024057
Cr 4.273815331046871 4.926118238235685 7.996167652911822
Cr 5.885078105476926 5.588217653235197 9.689011307512494
