25
Energy = -189.55374392 eV
Cr 8.465061287220509 4.8238728070201615 5.021474614993831
Cr 4.3732252441499035 6.707404558112444 4.63507115592393
Cr 6.134532515377926 8.548764611424096 4.475459582781771
Cr 6.407856866699236 5.729825318008685 3.942502190870534
Cr 3.4706089762358916 9.067765395428047 5.087432674013489
Cr 8.027129180069544 7.069952564006557 3.9963695749423644
Cr 4.664120633620161 4.054881751307732 4.286399938246824
Cr 4.825598400715497 10.61688167278829 4.955146203189295
Cr 7.091998371096782 10.339858872222399 6.404158575985719
Cr 8.527420704600353 8.913977287896111 5.430057733034275
Cr 8.948147183197502 3.310434538570692 6.145672742118196
Cr 6.268239717936833 4.077435186465273 6.044226320941682
Cr 6.569832160470598 6.834699839776424 6.258645884309356
Cr 9.051437496385528 6.719575284220675 6.502622332824159
Cr 7.25237792218159 2.4817576139975546 7.748980874641654
Cr 5.234151284535495 8.982932070772085 7.106276586698623
Cr 3.5919562414719723 4.754812903271175 6.184717626673802
Cr 4.014362081559189 7.218159735882633 6.959767923846883
Cr 7.836619557110428 4.937169244208695 7.673420013509564
Cr 7.832784157013334 8.229247097073944 7.926365333783227
Cr 5.831967193704479 3.286967744138378 8.506655321397748
Cr 5.281839976996563 5.398338901577246 7.668442734944959
Cr 6.025594312668205 7.354299117384643 8.884468549327634
Cr 8.668797729719875 6.507987043454659 9.39940400900091
Cr 6.835489329977789 5.264147365706907 9.98741002671598
