22
Energy = -167.17139949 eV
Cr 3.879958088445709 8.540960590450624 6.450230953173478
Cr 4.431629460186086 8.636542090881333 9.011620270330473
Cr 5.576338272145044 9.712549298210334 7.206566996747224
Cr 3.449552964928234 6.995711443758656 8.106899930281447
Cr 3.893521676448922 5.710535700321615 6.046591671118297
Cr 5.036331515916565 7.181924221077507 4.495398703875336
Cr 5.7573407015939475 7.225231824583157 7.133266330866644
Cr 7.022316107805626 8.527880287678366 8.400448343935327
Cr 5.122195900891374 4.954206339455446 8.157805174436161
Cr 6.777675554018379 8.322364102183196 5.338072754786992
Cr 5.769286483366913 7.11497006229842 9.640661306554653
Cr 5.512913715267497 4.773905317467973 3.783919476636722
Cr 7.471371776269836 5.8109426367444525 8.333485592210499
Cr 6.568716411120672 5.5198882638223585 5.891218105515615
Cr 4.961612470517333 3.6205518286085243 5.604685209497638
Cr 8.4143584514367 7.272313657229039 6.619219579845655
Cr 7.6741611820646325 6.338057853986861 4.200141466891595
Cr 7.491556777151436 3.9162734263713186 7.4438497107106025
Cr 7.75290614379185 3.851593106881132 4.5031042828920915
Cr 9.101388698198297 5.075319450744411 6.242841083709138
Cr 9.73690176747439 6.920408520546931 4.550718215824396
Cr 9.937654801978011 5.090505840637759 4.020335234352971
