21
Energy = -160.16164186 eV
Cr 5.941473556427506 9.173591682914987 6.008960613219721
Cr 6.268112195810641 6.145037112531723 3.1989917263149645
Cr 5.111977765597966 7.045275412648225 7.479663577395482
Cr 5.857449330471788 9.234502683338137 8.369812363544755
Cr 4.143378646047922 6.216038971362298 2.199808278286025
Cr 7.7431649514728145 7.687427031281305 7.708548790967542
Cr 5.720295293149264 3.936344820519865 3.1707729252020043
Cr 9.31775847880626 4.193695378437652 6.800951452917913
Cr 8.787556674265819 6.448808226286117 5.201324298689074
Cr 6.589109713673673 7.038198592585102 5.579543671965306
Cr 9.797910607524395 6.374305761625337 7.553636727436539
Cr 4.249637901045879 7.104138166749863 4.853833897774274
Cr 7.741286546186065 4.373743788644019 4.785476291102284
Cr 6.450505952670312 6.7302702990071674 9.519554683811204
Cr 8.387052813509625 5.380158782541642 9.325265486203568
Cr 5.453564372318714 4.617717890402027 8.583735104344608
Cr 3.6593369758772623 4.840990217928364 4.0926016319029825
Cr 7.251243416177926 5.203045386462165 7.344509013726276
Cr 3.599461922682923 8.634536348907647 6.592492822980044
Cr 5.552485272857885 4.884856499388362 5.713156369002581
Cr 3.4848161632368084 5.532993540295977 6.893641284881148
