29
Energy = -224.33044013 eV
Cr 7.2334675566521165 2.1620912581342644 6.145122888610135
Cr 5.579719111644065 2.939934332542293 7.703252970937733
Cr 7.879266709942542 4.339491650507152 6.885138015025561
Cr 4.4612495768581715 1.724384516385633 5.643085643436757
Cr 6.525199187210763 5.87560884248125 5.628773077136692
Cr 6.249068625088005 5.444216107465622 8.27858961111447
Cr 7.8748223979987815 7.179345386575547 7.343297837313078
Cr 4.59249865964178 5.201390864135152 7.193000660920635
Cr 6.241972177797047 1.6330657706972458 3.7669767318538305
Cr 3.352247268903641 3.4105085071172736 6.095109764078371
Cr 8.481757949992744 3.210792181546562 4.430154766280287
Cr 5.786339096209364 3.8214890386505243 5.183997346071993
Cr 6.461059366245013 7.90053133434001 9.123011225201768
Cr 9.08128400972328 5.725051831192079 5.110764281358934
Cr 7.269711541523675 9.605703935580806 6.9809229097417225
Cr 4.416668454771187 7.293203818957948 8.813947016258854
Cr 3.921023685867658 3.2747337608446108 3.4519399152038117
Cr 6.5423762944554955 3.4884531929021048 2.8528697993487233
Cr 7.937584684119445 8.16034933475554 4.942361606572523
Cr 7.810560315458689 5.711746527330184 3.510885278938219
Cr 5.37575330797373 9.855732757886855 8.346488027739033
Cr 5.37364621132529 7.672630335801443 6.575503274096948
Cr 3.9099089455973757 5.732186426933986 4.874062726207486
Cr 2.8077020862076476 6.915246536866117 6.6852443883425074
Cr 5.7405184486244325 9.94614508348957 5.578072592488788
Cr 6.156604434388032 7.945725884803017 3.8317703759905974
Cr 3.486443566225813 9.307240717091293 6.903725841004202
Cr 5.149109032863443 5.696789290629791 3.2418199857145353
Cr 3.8614147787971937 8.239952926384037 4.536522058674559
