28
Energy = -158.53712942 eV
Cr 6.795013864810385 8.798303804082261 8.976514644996955
Cr 5.325317977272531 6.92195188564192 8.948452590751378
Cr 9.069633810609758 8.734035514239459 8.87097120854749
Cr 6.668152250912432 4.943754225422807 8.882765926152308
Cr 10.210586197154372 6.783358404917821 8.807786967010868
Cr 8.950777323729513 4.881151270275877 8.792464218855644
Cr 8.002790282881739 9.347563565519842 6.80321786852548
Cr 6.033924144395782 8.086777586013666 6.930720971008868
Cr 9.790926588420117 7.911857954996624 6.652913515977064
Cr 5.936221645679128 5.798415640438936 6.872612468848303
Cr 9.789868205899284 5.644146179914542 6.6829646432282805
Cr 7.821816939695363 4.4498010518459274 6.661220567052521
Cr 6.6162654843581725 8.940014710611422 4.862451511199074
Cr 8.863910338739405 8.544530940592397 4.5656242589753075
Cr 5.172492019631246 7.009989998159326 4.925781080433777
Cr 6.468729083515835 5.024943170929277 4.737880073128716
Cr 8.774616247274425 5.230389867992181 4.550930473854674
Cr 7.477598868251496 6.8144709855440375 10.121622446847825
Cr 8.02606677863153 6.843592444689143 7.950923795812405
Cr 7.814264203874904 6.896718455518606 5.669938934046371
Cr 7.162923059190812 6.966774703277815 3.4925229538900986
Cr 5.931298817642113 10.384856338028106 6.901938149387294
Cr 4.300790280372588 9.06976840314169 5.82136984049447
Cr 4.439433892915384 9.079121878720999 8.217830095226638
Cr 3.8841462124305184 6.997456014951994 7.043612942907774
Cr 4.272058453457492 4.863029094248405 8.144271596228021
Cr 4.175854462764023 4.932346161835508 5.748357318929296
Cr 5.723543822923853 3.5115348213881408 6.879276633563445
