29
Energy = -217.37729879 eV
Cr 11.180456302723405 6.376270511699175 6.986360465149505
Cr 11.150787777741305 4.54641746821046 6.6849266772178
Cr 9.758864151939177 5.974357714608662 9.165078360975357
Cr 8.856366803254268 7.469495664995457 7.176104700773975
Cr 9.116975563226678 4.327775621106972 9.667327515974074
Cr 6.6452195207090465 10.870881022118134 7.870652597311689
Cr 9.629087528508812 6.108195168689067 5.007565516325962
Cr 7.0330237140903975 5.925157037533947 8.656820760572922
Cr 7.255659533424288 8.417496682651228 7.397375984985698
Cr 7.205838815504515 3.6743429342549763 8.229121440859435
Cr 8.772827997784095 4.863571585730946 7.034838146528491
Cr 6.154177905622594 10.527535293320893 6.140581746740518
Cr 9.467936857713338 4.227821481640128 4.524704194104642
Cr 7.387192153220699 8.37148148360545 4.7097172358053125
Cr 5.154443482642818 6.758836534021475 7.414743340300422
Cr 7.0229710229153 6.305255290609255 5.646160622602843
Cr 3.22450399679839 7.300207259455045 8.821090822126374
Cr 5.049218723518147 8.950003573781553 7.9265404363871665
Cr 4.885824467499033 4.973208990889406 9.187225856097834
Cr 3.0221919581947523 9.161182495374012 8.99101799953539
Cr 5.324197563876619 4.44816343333151 6.946103730372111
Cr 7.273221955323095 3.9986658969048268 5.507034644203759
Cr 5.063409261008434 8.286849675045023 5.621268659777075
Cr 7.521676344386002 5.680468436659617 3.398126563123735
Cr 3.144528844406286 6.398566260754685 6.116193599264621
Cr 2.88764675390235 8.756479750368994 6.476421735579071
Cr 5.685833808423841 7.2602198220871115 3.2937645070701764
Cr 5.00157024922728 5.640135282232315 4.7222949358916635
Cr 3.3591829354491973 7.663391995549136 4.032593311571483
