25
Energy = -193.56687105 eV
Cr 3.29894642974031 2.9700748401680452 4.649103986341375
Cr 3.0364719484923044 3.2087657952955535 7.039945676000584
Cr 2.344390805026234 5.359654256314048 6.136991939444119
Cr 5.71231128230754 2.4530194387257414 6.233320567878746
Cr 5.370558869630408 3.675729329139658 3.395701545752368
Cr 3.2783300950738066 5.320224609515598 4.0689837691046336
Cr 3.6053607277850266 7.6231319679518625 3.916200115021678
Cr 4.867653304650525 4.587670282328119 5.838904875969775
Cr 4.237538744413125 5.444793693838027 8.204284465467984
Cr 4.612012451695451 5.524234578041588 2.0847317046919294
Cr 5.523797594720643 3.5023308500076933 8.280120631285614
Cr 4.209938323578788 7.052374276307053 6.304256680536959
Cr 6.439577373100543 5.745670240151858 6.933168310588949
Cr 5.450047028167635 9.001740456942448 4.571919798902141
Cr 6.076543000479701 7.926276964754596 2.542677936551301
Cr 7.809744154725559 4.19727002046695 7.708923556418453
Cr 5.829798787794268 6.305576383850992 4.246365872701472
Cr 6.697813642439109 5.711398938644143 9.535559632649935
Cr 7.3096898329406415 3.992040928163677 5.20517406972729
Cr 5.950873719532594 7.650647997621304 8.458395746364442
Cr 7.369646577065545 5.220694312506202 2.9064145874735035
Cr 6.880134609718725 7.955074457911348 5.973212368734337
Cr 8.02655266259179 7.809623634895271 3.8519081118947636
Cr 8.615547553830586 6.923642048433786 7.636281936446734
Cr 8.50325016358118 5.891407519649016 5.344278330468718
