22
Energy = -167.92469781 eV
Cr 7.883725093531136 8.988792490295927 3.442423287929295
Cr 7.767975523315343 6.380993984134264 12.07643282904146
Cr 6.269457910167261 7.128834178611305 9.862597384929748
Cr 4.693817332544379 7.650158493776237 5.478063555960436
Cr 4.963884766211825 7.95305183196834 7.623494095568891
Cr 7.067255408184904 8.010230760843026 5.858940752574424
Cr 5.949318435059182 5.548175116801541 6.245941198564208
Cr 7.515455968865715 4.133189939371986 7.941109873963888
Cr 7.031327195377551 6.911917756744625 3.829177843195931
Cr 5.789733914172133 9.616455119836987 3.94181261816519
Cr 8.674245206845262 5.083815627970825 9.785010299643632
Cr 7.428903803813217 6.643622864458429 7.923103968596385
Cr 8.727420021549772 7.453750858054599 9.98370817393503
Cr 9.630135031406418 5.988444565486713 7.446608036247699
Cr 8.119129077151548 10.050310682530817 5.447944177676617
Cr 4.9718123392661715 5.642885571075978 8.443337459475535
Cr 5.6399863480925925 10.218039457408189 6.141904508568752
Cr 9.539398023797894 7.51026873761217 5.030745796591281
Cr 8.304474635959222 5.493887400804563 5.641901893551721
Cr 6.576613949679546 4.846995630765761 10.722052392609264
Cr 9.314966841027791 8.275178380963222 7.2206581414667985
Cr 6.832459148682019 9.195559697921846 8.153663116873398
