25
Energy = -190.14246113 eV
Cr 7.813440814818731 3.9982785420307754 2.9399245732183665
Cr 5.72658076042585 3.8523428639193398 2.8862028734031435
Cr 4.6953788974760995 6.442910132540672 3.682938709846804
Cr 5.5952020585170645 8.701098292517642 4.839683292589328
Cr 6.7711961728850545 6.414927888185518 3.263929861981922
Cr 8.736979371114147 5.975284544899649 4.839555210358796
Cr 9.240848259146677 3.4084131366613044 5.4035263958303865
Cr 7.739087758244307 8.334319587221877 4.805579195565061
Cr 6.925160907477278 4.380942966671308 5.269224767706165
Cr 4.700737254758866 4.572118153893822 5.312589780363365
Cr 3.6804454739985255 7.108316149982393 5.744686319801559
Cr 6.370104078566086 6.522004175782008 5.995990755669063
Cr 10.33202960630199 4.6538633821835225 6.264402925557598
Cr 2.2876120247052 8.971642552266838 6.71786635406012
Cr 5.759991452968865 3.5030937945335086 7.398408758337782
Cr 4.923766591465305 8.364112272586768 7.260560336890366
Cr 7.974592964845155 4.8913521894007665 7.228433180337003
Cr 4.427403604173541 5.712896695439126 7.443312010826138
Cr 2.5783399088715515 7.477095946002871 8.211194103265058
Cr 7.259826560942535 8.793266877148508 7.26042753906796
Cr 8.940321843985622 6.852362501180796 6.6775306354919985
Cr 6.718091242120277 6.632247878562631 8.149292787681633
Cr 6.036517901706886 4.484355233186214 8.917170227128892
Cr 5.968719978574277 8.763573267376799 9.714634276307956
Cr 4.706246742372497 7.097803206288329 9.68155735917667
