27
Energy = -204.01519745 eV
Cr 7.1793698647321245 2.5384941738186475 5.7586484898340915
Cr 8.1240194983061 4.754944217354888 6.675660818200188
Cr 8.819572851018306 6.283606403121241 4.857607062090558
Cr 6.833994874797124 4.886317927148905 4.516046508804701
Cr 7.187873410179085 5.428978341753299 9.040641736187709
Cr 5.274624413965153 2.7722788970958243 5.231847244351766
Cr 5.83562448707695 3.2343832785147355 7.934592208243185
Cr 6.986622275947578 7.279042877633297 3.413576813173747
Cr 8.814481297778421 6.788831940820414 7.6326492029966495
Cr 9.577353837301635 8.275535407108732 6.126844501268606
Cr 5.530713715062961 4.7273730515083505 2.8991334025833386
Cr 9.468138591131286 8.924846799571117 8.96747624852333
Cr 7.088817915961318 7.160448294689283 6.024168613914873
Cr 8.007998985160562 8.849964670824706 4.295835255923828
Cr 8.849971181377676 7.634043456223659 10.151436729129507
Cr 5.731447952418233 5.190039630712571 6.690059445390579
Cr 5.1810674276515725 5.998828317215295 9.142132855329058
Cr 4.041644405020851 4.8793786947864435 4.858557125588166
Cr 6.9290470231635855 8.077345741022821 8.64315536951985
Cr 4.922958535498759 7.0050077083061995 4.704395096923743
Cr 7.68418905960134 9.31199501662684 7.022691845876168
Cr 3.5305318431946953 3.721222021932812 7.03294428719477
Cr 5.849927518436571 9.263808105636123 5.053950803990998
Cr 5.038842922803728 8.084983409401948 7.10636523706758
Cr 3.649825228573446 6.2346499675728 7.174629236655925
Cr 2.4109039743476894 6.238737853513447 5.312291735696252
Cr 3.3109122874142134 8.315389174007608 5.593137503462223
