25
Energy = -190.24966361 eV
Cr 6.722130729909054 7.802081279344251 3.4646404585183475
Cr 6.917758501811857 3.7765096069011586 4.362382681623451
Cr 5.553860996163931 8.797734494358583 4.749439816487209
Cr 3.671404841703032 7.296794155006727 3.7155486868500507
Cr 4.877973222586995 3.6900534623653476 4.7619345381555815
Cr 7.821941091259252 5.942472560452308 4.767010831916314
Cr 9.975647000474288 7.356225731086267 5.111375880887963
Cr 5.581319881843668 5.971383309672113 4.648175023544299
Cr 2.924863602957199 5.797167790773737 4.781492943458172
Cr 7.7125348565029865 8.046320507065829 5.840324302741271
Cr 4.39700923819838 7.264480318335507 6.202621771364117
Cr 8.198183251309109 4.354600560003821 6.650893089287957
Cr 10.274187087652203 5.477514514302686 5.737948927683473
Cr 6.55203780479449 6.262190656309868 6.899520176537352
Cr 2.979638369389578 6.256329915350637 8.066614928836689
Cr 6.018082112703393 8.664817786289655 7.253548856944951
Cr 8.800956657926351 6.784510821561397 7.3969442408588
Cr 6.4010867198550265 3.63906739946657 7.03609880313837
Cr 4.390534751878288 4.907398332261862 6.820507768715696
Cr 4.180539234268888 7.659680006007803 8.78980222358109
Cr 8.28236061776562 9.215297189258637 7.778396827914874
Cr 8.914236007720136 7.956647180774266 9.1511336557252
Cr 7.616290214229029 5.160585945796813 9.050042333535272
Cr 6.760882644671463 7.523917479844117 8.871987864046593
Cr 5.386181779176666 5.307860214159701 9.00325458439629
