22
Energy = -168.39894875 eV
Cr 6.941681449601628 4.570120312037377 5.9538929115185075
Cr 6.810033904622244 6.28044915385811 3.784005481814055
Cr 7.824122773725486 7.134158009353007 5.702985006253951
Cr 8.050032718828739 7.920707167940163 10.126634612405258
Cr 5.607287943947923 9.399852310097868 6.752013798712392
Cr 10.174384336537152 8.136765373383925 6.1649317365032825
Cr 9.652978116467033 7.228261312852157 3.9728250963581897
Cr 6.663299095623424 6.030540874567782 9.968979450586671
Cr 2.73533194878543 5.576443386583075 7.340486864301504
Cr 4.931271594873609 4.910388008544841 8.043579154438785
Cr 8.744183660555125 6.597890384235016 8.213567209316963
Cr 4.959318835207104 5.922381275691414 5.7938764384927195
Cr 7.776584047764829 9.235461797873766 4.83327631904125
Cr 6.290047260237802 6.822824902644063 7.459826467181784
Cr 7.458236789966575 4.487234046087128 8.263278427608201
Cr 4.398764545681365 6.774385621584242 9.476737517127699
Cr 6.054362869391722 8.709547055474202 9.013383331363928
Cr 8.179732142765273 8.809649488449612 7.5541127060450854
Cr 9.491463662014004 5.447120682086364 6.241242685929002
Cr 5.455213702740471 8.115503706928548 4.868992857007072
Cr 3.987620137037234 7.615698380102874 7.249605615306947
Cr 8.79383382548937 5.09002966337358 4.038713742698793
