22
Energy = -168.04926912 eV
Cr 8.583726289130258 5.424058086132803 4.717798323340884
Cr 9.71107767714024 7.121485767039811 5.896965092152806
Cr 9.267702823738171 5.173121262168568 7.522510826304758
Cr 6.965187104981651 5.00545259702999 6.364426796246454
Cr 6.4464134681487435 4.981026949587122 3.6323221411668953
Cr 9.734015003104794 7.335666203253552 8.684941919954776
Cr 6.9716966079745015 7.395260559045827 4.991572671215269
Cr 7.374696301424469 6.956046284791731 2.6741213961250496
Cr 9.23016351756002 5.768704255439954 10.375358502599902
Cr 7.298004590953874 5.850817516368972 9.015981166841359
Cr 7.804182641363587 7.419256532708956 7.301919703224735
Cr 4.857858433991088 6.963995168234077 2.460828748773306
Cr 4.852083109378442 6.143101260737413 4.782088959266707
Cr 7.358084140878652 6.5928005863016335 11.645455596303389
Cr 7.802859122417219 8.219900998454047 10.064828171807365
Cr 5.247669713941385 6.360170010896028 7.480504838757365
Cr 5.454074053493914 8.806234822063667 3.731975746064895
Cr 6.5625583378115575 9.504306350815742 6.312338058022399
Cr 5.3016931857003335 6.623031478391609 10.30535742753331
Cr 5.870769707321685 8.39685475127778 8.48018665411115
Cr 4.5423227474617285 8.282247662106366 6.001125862854288
Cr 5.675619173992136 8.841172712764159 11.212905141904224
