21
Energy = -157.12814289 eV
Cr 8.041903080432329 4.6229916747115825 7.882720839023842
Cr 3.7951041725441574 7.339072420362508 2.6170096085261005
Cr 4.2866610337477065 7.099298007130609 5.097096529867618
Cr 8.286763432174249 8.291395672503599 7.261410419583443
Cr 8.73043842665538 6.7243896457448695 9.359781732830228
Cr 6.473583010313783 8.075317455355988 8.533413524242516
Cr 5.8113296104781815 3.731070849175125 7.221037206762735
Cr 5.378515303535466 4.609097297034251 4.8549278691389235
Cr 6.139912365375276 6.481530149597181 3.7800360636337103
Cr 6.1624377411019875 8.554996143255712 5.680101937893518
Cr 3.6614236832126346 3.7034345145409002 6.078953726735991
Cr 5.705364741578079 8.817725990131194 3.3712280962431205
Cr 3.306954217746602 5.054596016181114 4.50167801881286
Cr 7.905994104063395 7.691558417628621 4.804345743541931
Cr 6.548585836085111 6.302251928090331 6.6479873221771975
Cr 7.877045793577012 5.160550653616281 5.4723547264843875
Cr 7.3217833124911085 2.785323813533935 5.713551640827609
Cr 4.213134250218003 5.432806604320503 6.98397781848815
Cr 7.282432042640032 7.121858465222243 11.066452721711993
Cr 6.570863523676718 5.4415086288511345 8.868296355270692
Cr 4.570320050495878 5.031771996015218 2.2861657052196533
