26
Energy = -200.4061969 eV
Cr 11.365524552473225 8.866300054058694 9.29299278994822
Cr 10.612939777630032 7.316093842736211 7.711337725329076
Cr 9.413510957451066 7.552842049734025 10.278226940730532
Cr 8.673994930324943 9.658380687041179 9.192889000890393
Cr 9.631954385156687 9.04459948428307 6.579664250807955
Cr 9.165737299760035 5.58812358279138 8.624664074295811
Cr 9.158004609813187 6.446321145953376 5.795078740795818
Cr 7.929377010213229 7.736522549563753 8.067355542488128
Cr 6.812895140301663 7.819006255435022 10.395338434664833
Cr 7.712391597387739 10.330585400151309 6.968756271347986
Cr 7.209804055286743 5.674013589891386 9.781261415915562
Cr 9.143138247393054 4.341599385370766 6.47262054611869
Cr 7.517357483935768 3.375496453166153 8.409993221589406
Cr 7.066128107493733 5.319839419078705 4.789621095091827
Cr 7.6198304307372835 7.9971726352103785 5.362025817351635
Cr 5.101964816904936 4.270203929178889 7.1276417357619115
Cr 6.10940875942475 9.710683198261632 9.046506052727853
Cr 6.8406724028142305 5.7528608451956424 7.186459545090418
Cr 5.740539107412347 9.96865220634958 4.929460381643992
Cr 5.153886947926021 6.994820060363588 8.61302883204932
Cr 7.068926132103911 3.1960650853469277 6.140779066778354
Cr 5.84218030569243 7.498516058445814 3.8168282775438955
Cr 5.294223243536491 11.108971938607928 7.069444088264416
Cr 4.859863936199801 6.741827762192359 5.761848200232685
Cr 5.927218221773801 8.498545066836844 6.977433878233156
Cr 3.8202857391507834 8.964600447773094 5.412354759045298
