23
Energy = -175.25679099 eV
Cr 7.058520149040537 9.622841058853233 4.563744410021569
Cr 4.666909962304293 5.982917063607425 10.192511664452514
Cr 4.8825845722116865 6.192156883248907 6.113958977888053
Cr 7.229448750303982 9.424945727582323 8.691631474862461
Cr 6.89958679492555 5.374020433669696 6.555674340122117
Cr 11.36368650286491 9.47182791245655 6.72690905251699
Cr 8.021282242385363 7.986731368133819 6.597143796614378
Cr 8.68672925621758 7.319605026867903 9.949645990636284
Cr 6.610261258989761 7.1964036076312965 4.59963015866462
Cr 11.133088119276657 7.031772107521913 8.604763610615704
Cr 8.843392078086982 10.210313360238532 6.2221229295973925
Cr 5.301977842950477 4.573236160625453 8.341403977461955
Cr 5.367917628964816 8.34734583294808 6.522524744255743
Cr 10.671605580664588 7.360910593296609 6.213728116873682
Cr 7.193226587919197 5.106879213835322 9.412943243759349
Cr 6.261080064895774 7.064910554493931 8.1952319924284
Cr 9.611610362053923 8.793114450805147 8.350132577778819
Cr 8.480065726135438 6.5787756952335394 5.031335962696244
Cr 9.629337166376125 8.78526588016042 4.622480285513045
Cr 6.414113874611387 7.65303500734124 10.743128379557106
Cr 3.6481191300947478 7.018494474686635 8.331705064484726
Cr 8.880188645091623 6.116187366693785 7.862408430469759
Cr 4.596702239234717 8.65270148556626 9.32530415163876
