21
Energy = -159.29632857 eV
Cr 2.7506246904971996 3.7837360170075125 7.12902679354093
Cr 5.5183912619521625 3.7757918625123965 6.792281632610564
Cr 3.3364184106832817 3.976211497109727 5.110593196062328
Cr 6.819894929137616 5.490200964626412 8.06833596243927
Cr 4.487829732193653 6.313913932813177 4.022673601962265
Cr 9.018342718274933 5.608408826599633 6.750452320687424
Cr 4.263010415227334 5.871244895684414 6.80460114693406
Cr 6.205500115093749 9.688477061090275 6.019265037630332
Cr 7.886720895859991 3.582276980457377 6.431663468763855
Cr 7.758840873721049 7.879277297197287 6.689341759081761
Cr 5.591274699778211 6.909948042985182 10.222867523871216
Cr 8.530084479862913 5.196639312557993 4.285428532648235
Cr 6.055173601036708 4.003059636008178 4.358230207049731
Cr 5.552448648902007 7.595791608029829 7.876716191741809
Cr 6.519883786618408 8.07906159086499 4.139051861328619
Cr 8.695158480131116 7.374065086922156 4.444237468568003
Cr 4.517150545312444 5.260288837319022 9.021924974002834
Cr 4.347112677901274 8.445145257331184 5.864492010509033
Cr 6.696475316054781 5.983829938212649 2.8126878561224027
Cr 6.50721873672339 6.055603921289939 5.586274825353218
Cr 4.2940077158155185 4.502056854852773 2.7665676340284926
