20
Energy = -151.28043806 eV
Cr 5.294745685683184 5.287296689198783 3.2178584587585943
Cr 7.7160936181617 6.905781974450942 3.198026963273516
Cr 5.437816517522402 7.593575913836024 4.006205095031931
Cr 6.882049394239733 5.413289631443091 4.823236860778598
Cr 3.283895781761388 6.317742692632178 4.747937235813075
Cr 9.208349726971882 7.1655834954918465 5.021154646724742
Cr 7.360058654077424 3.249102107909779 6.32377436725095
Cr 4.483097752178054 4.335597374033178 5.512894107005082
Cr 7.015197909243244 7.541620639374893 5.934318140013531
Cr 9.068086573144415 4.612774390934599 4.80769887807042
Cr 4.601784890012779 6.891101572183095 6.4968482608468365
Cr 8.448540381900989 5.6325669198713335 6.995673070921809
Cr 3.195250486418209 5.25885613056011 7.459691920403457
Cr 5.539990057402705 9.390595179978972 6.62723926150954
Cr 8.770451958854082 7.510956429591196 8.105403579033164
Cr 6.0760308528740214 5.144404683003502 7.237984288704937
Cr 6.488835724377696 7.492265653941966 8.309095277805149
Cr 4.071839553617266 8.090315649056855 8.417583063551097
Cr 4.765919393817157 5.732103578118373 9.171724752592388
Cr 7.8894915759273 6.0319957825738 9.183178260096694
