28
Energy = -213.89805721 eV
Cr 6.02919826624279 7.554403327208122 3.734018615436587
Cr 7.078523830999804 5.814719453040542 2.4317987229670153
Cr 3.3936065451286015 7.593825914794029 4.656748992977715
Cr 8.618013457229612 4.899270222129236 4.249097145743858
Cr 5.153616203081542 9.164297967230507 5.100064019331679
Cr 8.25044283757435 7.383357729048518 4.34189100949199
Cr 7.650590690435476 9.559416611334951 4.8888422368662106
Cr 6.889260247700324 7.653999007061905 6.417032804833901
Cr 4.4921567256327 5.9313620705924155 3.4506021278153507
Cr 6.555722001897882 5.29383288935348 4.819158981446479
Cr 4.209476752870576 8.688368670630878 7.4384711439727855
Cr 7.583775294221873 6.789790971180992 8.650618816230589
Cr 6.433400924505329 10.344260549961373 6.883823597216579
Cr 6.992443986022269 9.145898285942861 8.745261759678321
Cr 8.555210872373234 5.7992285176817 6.454666142973917
Cr 8.735476524841955 8.722508590615064 6.678643071160465
Cr 8.4465436561449 4.315091530465099 8.165612521686787
Cr 5.222100598079854 7.125155127686703 8.656677903128609
Cr 7.839801371932088 3.322952934021999 6.019214319609869
Cr 4.694941046537157 6.725701449594497 5.900095854736141
Cr 6.18513908799258 5.059589825901282 7.412734607017338
Cr 5.5922316836329555 5.139509726087488 9.717231540133842
Cr 6.133508745039256 3.366597823497345 3.662142516099403
Cr 6.498565729271725 2.9776064312701336 8.372693374977748
Cr 3.43294459775548 5.67807433347543 7.823498924164464
Cr 5.621042041780015 2.8848356948409575 5.998958085357263
Cr 4.2544695868545075 4.385964514908918 5.590503837024984
Cr 4.036727427066962 3.5083850627611834 8.190857118346637
