20
Energy = -151.60319154 eV
Cr 8.312319043270572 6.884466416113165 3.8081740259213555
Cr 7.766667683713126 8.845642540022675 4.855528901285918
Cr 5.642039932452301 7.10858455991491 4.213321504164257
Cr 6.907725745538748 5.089952735802635 4.873767436985571
Cr 4.3866347414911315 4.685594653740511 4.944094016516232
Cr 9.776312029328068 8.052837719123637 5.985656405338738
Cr 3.345029611263756 6.915016430699321 4.834529117973218
Cr 5.264128577077716 8.69364046571573 5.856188399929604
Cr 7.37965407277225 7.085203282088983 6.410212553005727
Cr 7.07691459903118 4.470249966648472 7.416249419481082
Cr 5.566810122369094 3.0256265638666946 6.198866647878747
Cr 5.049670813314046 5.9701108451669205 6.879956311134364
Cr 8.430991213730382 9.067409670548782 7.67974086389738
Cr 3.44979106045276 7.683172078307506 7.093032525214383
Cr 9.228933921417077 5.189373689760652 5.83511098940284
Cr 5.1924548473409375 4.011164670850218 8.880518166707361
Cr 6.07512981812679 8.057977003274443 7.911691102503907
Cr 9.285892799852125 6.323268675652445 7.631298929913312
Cr 6.9530844457509815 6.268865841092058 9.02472527817692
Cr 4.559816958542185 6.221844228445307 9.317339441404824
