24
Energy = -184.11174473 eV
Cr 9.071754419069478 5.6214796879600915 4.688547391598809
Cr 7.165732761237591 5.346807455680288 9.149619871623132
Cr 4.637604327323495 5.841834911208036 3.481567779961834
Cr 5.083942397056433 7.036442566462096 10.156632598586409
Cr 6.254188710924806 6.6244107926137366 5.5629204282705125
Cr 6.30560131428393 9.597357050021447 8.279437252008123
Cr 3.923195616619633 6.640925200620888 5.743256239385915
Cr 7.235452976607207 4.821538258285637 6.766580673202329
Cr 9.123668541620297 3.488424688252497 5.4550088999716735
Cr 6.305613538518429 7.231672463987466 7.945952995522351
Cr 7.250733163955638 9.126170259800517 5.490874168751187
Cr 5.033631417037352 4.106064064920456 5.326916326297784
Cr 8.546253623613847 9.898388463554856 7.150677124611192
Cr 4.846003045514087 5.16039551452756 7.6432137286573605
Cr 5.02131593578873 9.096919919404344 6.291887024216139
Cr 9.239313311317803 6.093721326392082 9.884562606634608
Cr 6.8211402520656215 4.251816061627645 4.174940290329057
Cr 4.941381601508725 8.540911535233331 4.008156659061807
Cr 8.552413148012356 7.857491287696211 8.400317201052367
Cr 7.0125561031693975 6.887508908948771 3.4740474849419445
Cr 9.401224628873125 5.315132204004193 7.443590889405513
Cr 8.589539001423764 7.211298152713647 6.246041962233295
Cr 7.055656426673727 7.769091270886523 10.575814338366142
Cr 3.7704438688580546 7.796112168214009 8.002416257971007
