29
Energy = -219.79595742 eV
Cr 8.68918027955619 9.039662455667393 7.125290812587918
Cr 11.034355445897251 7.8428410708120095 7.1453102614284205
Cr 8.764008657052878 7.261459825906078 8.711651564782738
Cr 9.210082486189723 6.449151561002671 6.652564844919644
Cr 11.335887763326758 6.281164681421831 5.015949279081371
Cr 9.42708902023229 8.021369814394319 4.798577890736851
Cr 6.254137670529851 9.004932126884139 8.311576467874627
Cr 4.704035208302697 8.875919419388506 6.412646355295528
Cr 6.908841247581727 8.576795709476084 5.5068179984406065
Cr 6.707739316971809 7.255743935675702 10.146287730161283
Cr 9.901632021236022 5.230500381988704 4.608215747434513
Cr 5.165265659821667 8.115783578739507 3.806199804889765
Cr 7.63747514678042 6.554119761647867 4.366630826966695
Cr 6.603748100723597 6.973910544008737 7.30987946561456
Cr 5.707620972675712 5.856007701925336 2.709761165027146
Cr 3.109230564346733 7.631738256121512 4.918521445337912
Cr 7.590431177840514 4.950902886516637 8.609779666389686
Cr 4.12944164619407 8.377713524023642 9.400765784265442
Cr 3.959757651334178 7.053845510255992 7.555607953020453
Cr 7.568590515598588 4.845447497428049 6.134377776150687
Cr 5.351125103660742 6.34264394599896 5.3569311195327005
Cr 5.411884200080098 6.076721689829324 9.58563793339991
Cr 6.396494351530448 2.862967142600421 7.009639879550774
Cr 5.823602130641657 4.196432283445835 4.7411489333959596
Cr 3.969212334446147 5.6650998778230415 3.325810123389497
Cr 5.2841965203837 4.6622008821289755 7.497244481904163
Cr 3.1141933953993894 5.248711583253913 8.704390848900797
Cr 3.420705179802546 5.205350398379603 5.973282951536352
Cr 4.159508104758983 2.8803338261508116 5.8989727608796185
