29
Energy = -225.29727942 eV
Cr 8.70779740852026 2.400170610984822 9.78120949485731
Cr 6.53837946337287 7.492564279025676 7.609243883471867
Cr 7.034072085186774 5.699431706573869 4.073672287346365
Cr 4.4553025760366936 7.751292875511657 8.880622104737553
Cr 5.733737594577837 5.450722513203845 8.836088517196067
Cr 5.785798567230493 7.4796067723728505 5.217001634585951
Cr 6.506515220903795 9.669625325781158 8.684216508357228
Cr 4.1721313506473985 6.648775483852373 6.994348027349003
Cr 10.330563674475833 6.500332738301126 7.657219579296289
Cr 9.799460853793475 8.830241385820242 6.167550057762403
Cr 6.153461444803001 5.2211598215788575 6.654360373613327
Cr 7.997473512428099 9.421267536912108 10.303876947835148
Cr 9.235491532648188 6.950931961888669 10.23840413700156
Cr 7.875555289142216 4.6560835053911545 10.514983774854626
Cr 8.197295625805097 5.581632244620506 8.290201396260478
Cr 6.123825948814414 11.413665198753726 6.309742577240851
Cr 5.809210188711921 9.989480357133402 4.313011724512381
Cr 7.4337701907757365 9.195936183579338 6.235676379091327
Cr 8.176799295759439 4.477282793011607 6.143953025207085
Cr 8.547993807502193 6.808489714581617 6.077373672055291
Cr 4.860125406036814 9.117203987687857 6.552739578464549
Cr 8.360688836940643 10.726711738901493 7.8366137144517705
Cr 7.146308598012778 3.16675122610189 8.212378976270662
Cr 8.821283708385739 8.325532715750088 8.304250966298627
Cr 8.088145628575877 8.345313849309457 4.02945593319238
Cr 10.227645662101143 4.840852872922654 9.890214470912987
Cr 6.898272357646289 7.267341072576715 10.001010206323764
Cr 9.8937007190662 3.6543815606541776 7.9655022400823325
Cr 8.35573405624626 11.336275854833472 5.126643845600674
