21
Energy = -161.13111032 eV
Cr 5.073257641643264 6.233356435510077 3.2310758491240477
Cr 3.224498209597832 6.31788673926525 7.482528378430767
Cr 4.608465338016464 4.374949042143895 7.349225777331421
Cr 5.4811889583359825 4.054547468535272 4.936864417882458
Cr 6.767643490555694 2.8940272614495846 6.5686301101934665
Cr 8.393107320889625 4.008977340322702 5.243738597906218
Cr 8.840100657755688 4.475722593082333 7.604565187757489
Cr 6.594737412734982 4.529416891081296 9.217300346344505
Cr 6.722332430884088 5.463862633792014 6.820268672423495
Cr 7.257972228494412 6.038193876993012 4.524259698461214
Cr 5.302578525677585 6.787652501456118 8.489045106679145
Cr 4.742640057712275 6.562437403493247 5.627488898474848
Cr 4.803521758719383 8.696666553585946 7.054817719379711
Cr 6.2223330492420725 8.417082912802265 4.487715072092494
Cr 6.9297703212166235 7.786320220729477 6.678257636326126
Cr 8.595610696023298 8.599449435822905 4.812809228897972
Cr 6.489069626366812 9.294252487637209 8.72671370348378
Cr 6.640332651131439 10.307049847991925 6.089317189674391
Cr 8.558695319829107 9.31881827333074 7.298227882612336
Cr 8.103846315019121 6.831574158226969 8.72751424389764
Cr 9.14595960983161 6.637332678924019 6.298599128652988
