23
Energy = -176.48919811 eV
Cr 4.074615800555676 7.113621163381178 8.760171018968007
Cr 6.574307398163856 6.907908921241103 9.639823601704594
Cr 8.804233175538734 7.450000385638391 10.013886841659792
Cr 8.579718934991934 6.945307315866767 7.467102848460405
Cr 10.850663923536496 6.7292923927203905 8.28158458519671
Cr 8.249777030720914 11.043154122743102 8.455859378899046
Cr 6.505935478677904 10.536828775304063 6.155668184645424
Cr 5.718225318703528 10.641449490896354 8.436046765471332
Cr 6.056028091780027 6.167373586893216 4.5780285163642285
Cr 8.635516643301719 9.583536061821128 6.373124584560044
Cr 10.12010171639263 5.329337715438212 10.14088638429325
Cr 8.037851556428194 5.0284972333441065 8.724414107989075
Cr 5.938755311354401 6.329525940087759 7.34509637849014
Cr 9.960903053410563 4.554193705811972 7.442391898632146
Cr 7.14222569916928 8.678743523681549 8.149579236360623
Cr 7.519151924902771 9.602893931174902 10.467227524737641
Cr 5.147742525264718 8.88469066101123 10.087023182160129
Cr 4.526824734202593 8.7902326799821 7.217029026843631
Cr 6.336825111339509 8.145842771377483 5.965306009446438
Cr 9.783860902971679 6.118224383898314 5.6264383554419215
Cr 7.592846301290422 4.96246410168551 5.978504703733787
Cr 9.739210415840137 9.060763904786421 8.822514828745042
Cr 8.163387750086944 7.236658787736557 4.323134372956222
