29
Energy = -225.18435311 eV
Cr 4.730544151463088 9.318090666934877 12.128053116538434
Cr 4.606745334509092 8.290803401137138 7.373148652425666
Cr 11.300346107069911 9.138535042646303 6.8112362120347045
Cr 7.843074152960894 4.7705356690578835 9.434459084605692
Cr 8.51098837970963 6.220596152802656 4.9535984340566035
Cr 9.96866456370432 4.7444006024034815 6.1336266299539535
Cr 10.636950472032405 7.275394163677507 4.796067086971266
Cr 5.829029593850907 10.118767230811969 6.1435051618873695
Cr 10.39074729205913 6.438088456758232 9.728428124497778
Cr 11.027466888929002 6.679434899650006 7.138184754776718
Cr 6.400273322750439 6.76509022694373 6.277400864600032
Cr 7.651500493362658 4.4391564430497334 6.965053190982339
Cr 3.5985149066380107 9.00501867223195 10.026519769201538
Cr 7.175280762386111 8.77370122337778 7.849654820983404
Cr 6.916138221315883 8.467656569772938 12.10038187910264
Cr 8.148392378891698 10.649782630243292 5.845212549120462
Cr 6.0879825215628856 6.255105545368865 8.498892436338046
Cr 8.635657134789636 6.623930086788224 7.669947211333236
Cr 4.8790304039168095 10.436768339969216 8.571605897949048
Cr 5.997373735146223 10.686782387908657 10.655157783005558
Cr 5.804858407466839 8.172409576511852 9.886885760842567
Cr 6.975227059224235 8.466048907570313 4.906016721789668
Cr 8.086554837155859 9.673595275619046 10.050181015860593
Cr 9.183200799150447 10.600442742745667 7.688127994350213
Cr 10.042475013041349 4.433930044024361 8.505633970655868
Cr 6.993616098880254 11.524352368669373 8.201943272875601
Cr 9.070567358059982 8.397018107206883 6.241067085818096
Cr 9.915586910666256 8.633418010311587 8.713400122994388
Cr 8.089673151479056 7.134158945306716 10.024128089331066
