21
Energy = -160.18482663 eV
Cr 7.623442984825646 7.508549928459159 3.459873585171839
Cr 8.93144304244713 5.80285509418623 4.903027614864137
Cr 8.584193793069485 8.438838464222174 5.821048150679579
Cr 5.084415972335401 7.450519133644998 3.2760439124278053
Cr 5.986198795247043 9.059759439398867 5.332386255782723
Cr 6.588656084902577 5.083447272446072 3.317864938057406
Cr 6.6001546204351955 6.721018418891904 5.46955328501345
Cr 6.390815213352778 2.4563338839697715 4.260443698922162
Cr 4.214492436080856 3.24319153033693 3.4705618869785004
Cr 7.095711441970086 4.291423028852157 5.59905725237641
Cr 8.133797232664726 6.326745743732827 7.357092457621176
Cr 4.699577710823087 5.52951003623763 4.788404020688073
Cr 5.416775485980092 5.6503832875240345 7.378813745235956
Cr 4.808423865788488 3.53144096071436 6.189473679393184
Cr 4.192781579844247 7.9490660937408295 5.959436741152869
Cr 6.410748900979138 8.38458719927676 7.631863861472148
Cr 7.10670620464735 4.019477829290088 8.010894725259776
Cr 3.002027284751871 5.627821803729399 6.477205336337438
Cr 6.708072793935453 6.446572973155863 9.49674823468279
Cr 4.166434865021694 4.770587384391431 8.94176604066023
Cr 4.312136836740865 7.67930714954741 8.533893690493102
