24
Energy = -183.94230235 eV
Cr 5.293804839329828 8.940950448296228 11.973446694959579
Cr 7.434082093155645 9.638399234608311 6.396443101995836
Cr 8.077457162482474 6.875611054213323 6.682935372681573
Cr 7.71053172614985 9.615663641570352 10.168535708822212
Cr 6.5712545606216235 8.531771158250088 8.255125216961103
Cr 7.229438105296765 4.304285648755344 7.06309106031864
Cr 8.533643314277246 7.113969370169465 9.331029535149787
Cr 9.275917960864637 9.081504809127802 7.895530397915703
Cr 10.657385723945488 7.5342557954415845 7.704758051260417
Cr 6.182879165861797 6.036604590738547 8.304766205011708
Cr 6.455169565788682 7.32842297713272 10.685770641400921
Cr 8.769112990987937 4.00849120475135 5.305008239904475
Cr 9.59640658582822 8.557369166591213 5.341614604247721
Cr 4.56187155513049 8.246653037829821 9.384394913210848
Cr 8.669792221604007 6.385897325894828 4.20639390876929
Cr 6.5377474006500425 5.745452473245251 5.4901083164232825
Cr 7.0574246073207965 8.207578356874878 4.509669358671086
Cr 7.7301624248894525 4.91890959746043 9.747819243264994
Cr 5.206975661762485 10.56260513892819 7.586255812900602
Cr 5.477676446039871 10.360735149920044 9.991209419061342
Cr 7.559017246891884 11.186115257797159 8.234275757776242
Cr 10.435630221952481 6.134965054314212 5.650519648515266
Cr 5.337807689807913 7.864878611143257 6.440693059553496
Cr 9.285831669493204 5.14212553183258 7.7839452766967545
