28
Energy = -214.52400783 eV
Cr 8.133538598723016 3.2450018123647997 3.454410692015373
Cr 7.214351734527329 5.325455050345691 3.29554412253406
Cr 6.119834936052505 3.1709292137926233 4.387854622172804
Cr 6.306758232583312 2.732247475038396 6.597218188586846
Cr 7.73184092776085 7.56939646398979 4.114447567239411
Cr 8.40257958052353 3.2233247976900143 5.70803950757071
Cr 8.847531457446856 5.269280879403567 5.054219090766342
Cr 5.002081176682334 5.292449376544735 4.332470316014289
Cr 5.399426607641806 7.479529328795041 3.430911003310897
Cr 3.3135852098924024 6.881264066738446 3.1022809737721335
Cr 4.378786416764853 4.218273048712279 6.316547687540353
Cr 8.528799940124975 3.2900886676379386 8.381988430877687
Cr 6.366914108442861 4.429952974274909 7.948678728689824
Cr 6.821991861664016 5.293705743351733 5.873194854424481
Cr 3.4251267757089625 6.88611273458766 5.261729479676825
Cr 4.7848506621189815 6.5727366435657535 7.8043180345026615
Cr 8.929158375686718 5.149140184294155 7.627631189070027
Cr 5.670386271790159 7.467279517533729 5.874897749582992
Cr 8.240672647250555 7.4380254084263395 6.314501357078605
Cr 6.2799415931283304 9.558368021322492 5.095946142986187
Cr 7.5989995224420355 5.230226997546631 10.086229856419738
Cr 4.100600018813351 9.064968953863197 4.52422148233014
Cr 5.2643820907513925 5.448768590694054 9.816672814032211
Cr 3.667737813867848 8.790425072045723 7.11820693579915
Cr 7.058558608732277 6.750178779342473 8.305830630412755
Cr 6.29989401409604 8.936411917878548 7.744187155513725
Cr 5.150779684490372 8.321163931259212 9.265150185555116
Cr 4.6121311451595295 10.61653436182713 6.813911214391256
