27
Energy = -207.92259301 eV
Cr 9.214382805449485 5.027957581767363 3.751831009989924
Cr 6.962835233734866 5.24507045468567 2.470443633387028
Cr 8.301175823393969 3.2276671987358125 5.728936776322896
Cr 5.448385421989368 7.0653529981583985 3.9693727466482307
Cr 7.30676155449296 3.2672448150466944 4.080466268263798
Cr 7.713016870793482 7.507644561046455 3.2947102006306546
Cr 6.782591300482692 2.987939669221569 8.047175434832702
Cr 5.296155630432989 4.86182801140131 4.182681941444768
Cr 10.10796923563595 5.203548984282057 5.838222397562246
Cr 3.3741467909635787 6.767788235808975 4.876490306759686
Cr 7.494452889706345 5.745750529365234 5.170001101041617
Cr 6.212887381952705 3.8911917138991328 6.316811861379564
Cr 4.577259455815432 8.91835489362998 5.6325967769219245
Cr 9.256719508187999 7.414592562605937 5.772781356492845
Cr 6.338416021466563 9.436575990071377 7.620023931860508
Cr 2.6260871617321513 8.964641910421854 6.383069793581846
Cr 5.680211450200651 6.768662102423822 6.7167019365459115
Cr 8.290775862677163 5.205310262322556 7.390944566236003
Cr 3.6873301972166046 4.452676579460879 5.855165705750051
Cr 4.370426741494192 4.546443983545042 8.108296354103388
Cr 7.200511057400423 8.517815404024951 5.458433811561553
Cr 4.1942370009212375 8.994407043963403 8.352039251272062
Cr 3.343734988175646 6.7521974813387455 7.2884779515708455
Cr 7.874735135919905 7.4863391567156885 7.787727586525824
Cr 6.122923736441306 7.821961718847395 9.81128886787489
Cr 6.291772461540839 5.455616750648909 8.822047760220784
Cr 4.3160582879959275 6.851379412774942 9.659220677432275
