20
Energy = -151.87303271 eV
Cr 7.906379736090805 7.851723608650372 5.163394873131756
Cr 6.123499459131545 9.336439012543982 9.001862637661576
Cr 8.900129172608432 6.709359087093059 9.545892679297532
Cr 4.8454154328406505 5.334073692173753 5.548885175207654
Cr 7.131057571718144 7.547357659156042 7.8681212846535855
Cr 9.336838235532529 8.51248468801563 7.287447122772432
Cr 7.35113975086979 4.859380787353831 8.57141179765059
Cr 7.001845962732916 5.994762698571838 6.270554510829704
Cr 4.903504319805984 6.554268837924468 7.980300629288648
Cr 5.450392522958615 4.195179129525355 7.950579300489732
Cr 6.298532502809562 6.1593792058934955 3.758449273149633
Cr 8.546858928250908 8.967955039683732 9.552980314000715
Cr 8.434210828165147 5.1173730955710095 4.438605262931768
Cr 6.51244347388415 6.725480010503801 10.17214039145151
Cr 5.563991862020439 8.465690430161736 3.6650997975164157
Cr 7.048754567827317 3.4929822562441646 6.019038278247742
Cr 3.815184285264409 7.266491322177287 4.611393939253391
Cr 7.356569243064889 10.082403552269229 7.084554424165573
Cr 5.8672769752096094 8.493906488506811 6.030883301719087
Cr 9.189269411692782 5.91660364045914 7.061699249059042
