23
Energy = -175.60449096 eV
Cr 9.35485856227873 9.525408648231279 6.699235438305601
Cr 9.55551070339277 8.604683635268133 9.35413167541885
Cr 11.22532113492985 8.472713704010205 7.574912280097052
Cr 7.831377624881939 7.890500178578467 5.183171267977902
Cr 7.21595034580617 9.36395001603509 8.190006293257788
Cr 6.79294864341804 9.773524298822158 6.31019627562371
Cr 10.454669652050878 6.6944867876289225 5.8956821830316475
Cr 5.717331573929777 8.51135252835761 4.28125649705847
Cr 11.007903818596587 6.361904729296754 8.605989387097274
Cr 8.790445484837278 7.217084877920573 7.443660953450559
Cr 9.883455588009026 4.776162856402108 7.348764340800392
Cr 4.40239296807887 8.944968686188918 6.053188545584449
Cr 3.3263047318361334 7.165609025100005 4.727833278997877
Cr 9.089262559509237 6.279618021897334 9.96639542198767
Cr 5.565020011958543 6.196691326259124 4.696216480035456
Cr 6.101507276574054 7.315847829576931 6.877510883072778
Cr 7.806689799134283 5.351276380815381 6.112895672511933
Cr 7.297844997766555 5.1070363560097505 8.179795429003393
Cr 4.740667072977656 8.434586648731345 8.755611888978626
Cr 7.129200209111915 7.113407195688416 9.2352909425425
Cr 3.880219877500624 6.384809871433025 7.003333450975415
Cr 5.3115574101240925 4.717506235399837 6.508492928879528
Cr 4.954663414104554 6.139403728203266 9.067387933928579
