24
Energy = -185.2706045 eV
Cr 5.801363102346339 7.514691163596455 7.275312773438798
Cr 7.507727228464511 5.937921992861161 8.415590970154287
Cr 4.834934582001961 5.12423819162747 7.59056018519908
Cr 7.0631636325211105 9.1060433857559 5.9078400566165135
Cr 3.1605469394408883 7.225014686948531 7.541783015852412
Cr 8.478553826715876 7.1452404324037335 6.604867279343137
Cr 6.7619360372101855 3.0266289717158235 7.781497062535417
Cr 4.312353941627198 8.781541759252367 5.575219299340758
Cr 4.438061049142534 6.314689824526478 5.3743973637590905
Cr 9.151540555279475 4.410470828541281 7.419716289608768
Cr 2.587259467031398 4.8967129806936756 5.9504526020707615
Cr 5.469642272710142 8.253770546396359 3.552864770931801
Cr 6.782475470622201 4.919124050285692 6.35691713352949
Cr 3.1317673129948385 7.375913614031583 3.3892610454734977
Cr 9.076525123749386 5.484243483940426 5.081043909484014
Cr 4.174409594533359 2.966364476550031 6.950159451898704
Cr 6.652757217178074 6.702384056178083 4.844235893357426
Cr 8.501539654458021 2.898498870450632 5.572947498395238
Cr 2.0272956719406725 7.465471854970458 5.495186212733363
Cr 5.2541769598445995 5.808398925618085 2.7082838436679175
Cr 5.029699112054611 4.0758378829738815 4.913925749577858
Cr 6.476600776241437 2.2858295404997033 5.518048617485567
Cr 3.090138306235714 4.946519022621008 3.489432320060489
Cr 7.194765341722288 4.426391264720143 3.73318245735931
