22
Energy = -166.42296527 eV
Cr 4.130649876361193 4.305225526005525 6.1442437747310406
Cr 6.313663120209477 3.990406579946054 7.490411710938838
Cr 5.987261888636352 2.0926253757650497 6.206386637839978
Cr 5.8102920596111876 3.74440544122733 4.3766661390812
Cr 4.760989056219256 7.481137738487827 2.3906623456052287
Cr 6.055133916168526 6.178529658438019 5.720577714175752
Cr 7.740609855513008 4.117327724360825 5.532202743487313
Cr 7.030402540053706 6.190077461555866 3.6775494069918317
Cr 5.7701545384455954 10.562929755546987 5.587427102234315
Cr 5.819194538287377 8.393938255136417 4.117337741147822
Cr 4.262974733642479 5.454097067505258 3.55638881675087
Cr 3.9231754605614855 7.07704886990499 5.077770254095397
Cr 4.958923050687928 8.571798025385432 6.735130458455073
Cr 9.214390729803977 3.9789770988465443 7.230693648155116
Cr 8.106634911934309 4.2618191995399455 9.140391568264402
Cr 6.155023552588489 6.212311129521309 9.370660757490997
Cr 8.872619089226184 6.455178435539744 5.439769577225527
Cr 7.688583435244274 6.211946284595557 7.480652465367399
Cr 7.439757523459223 8.26988807623514 5.83156192951587
Cr 4.63017725324724 6.229088544660064 7.652169502781312
Cr 6.436519640152883 8.399643955294751 8.392124887324755
Cr 2.2655582658748337 5.117517530781997 6.112269167379513
