22
Energy = -168.46538048 eV
Cr 10.776587735714015 9.742908113382258 5.554028239177273
Cr 5.633978401281949 5.004265027507571 5.5025153691254785
Cr 8.200325627865451 5.4844694766149065 5.963802736994396
Cr 9.628819415062381 7.387964304563917 6.454075702573037
Cr 7.594870102254684 7.898123008359817 7.45395641813594
Cr 5.576449955344092 9.194673665866704 7.176479868837994
Cr 7.209155951405573 10.34995128339109 8.41612248795845
Cr 4.534406377380306 5.880388748775222 9.26151599881959
Cr 6.356111456965089 4.34224995545975 9.896407619062673
Cr 6.919695722661577 7.413593241939692 5.328166754309373
Cr 5.986231296850182 9.517588606060626 4.700811391750118
Cr 9.106100125812112 6.0935964677565675 8.71527170112943
Cr 8.992047876093627 8.468841664153624 4.313837055444252
Cr 8.345097301782046 8.571041035956192 9.619870880105225
Cr 8.00337158504224 9.878282795028898 6.08797348779088
Cr 7.141169781747385 6.279452437234302 10.485678235873676
Cr 4.8334841296525 4.167248896876088 7.538691655874494
Cr 10.92066617267659 7.7033752216707105 8.885528018661711
Cr 9.777707413559474 9.483437742648492 7.7899512796582595
Cr 6.795805316494292 5.621840515031181 7.894947476139259
Cr 5.830697866429911 8.017200623191163 9.465084075348821
Cr 5.039976888866414 6.903286523901606 6.902626781802658
