25
Energy = -192.10897388 eV
Cr 5.703089741218668 7.244609788416358 2.726489074074134
Cr 4.126216780248696 6.592669382679643 4.415053529470717
Cr 5.711068082778592 4.777244798341179 4.039778453327047
Cr 7.790518116400276 8.826936692747827 3.8822833310628626
Cr 5.583390977306128 9.03064648347313 4.421854333684879
Cr 6.938794011807765 6.608149333304604 4.774679550284348
Cr 7.910955939051974 4.503800310245466 5.618321440268515
Cr 5.2290096760690945 5.081595560383356 6.110480112125925
Cr 5.284573974843833 7.70296143034052 6.370379979179987
Cr 6.2340938894717715 2.8263969867292693 5.525150441622581
Cr 9.271581901236182 6.979014262685969 5.244158484854962
Cr 8.427310382089468 8.652909152732835 8.729715290364588
Cr 10.29251542637603 4.831646438249865 5.9009646303282155
Cr 7.696214337917909 8.774944651249092 6.331779790923691
Cr 7.029285735062796 4.299139428331963 7.765499050203166
Cr 3.182722665304582 6.774670806071606 7.011929850397272
Cr 7.463229725822608 6.494771693039199 7.337111397702987
Cr 4.964340609786114 2.963776817848406 7.78224946691231
Cr 9.445277784839018 4.762682530666975 7.98654158488423
Cr 4.034195403679044 9.492877027734025 7.2612594042722876
Cr 9.758714537834864 7.068248426474967 7.4872772669096666
Cr 3.354778298414595 4.1411764368731765 7.404478284082364
Cr 5.001942413151014 5.713503580882059 8.484864474654525
Cr 6.112234824797219 8.006569093657253 8.573929221340189
Cr 3.576235985365849 7.971350107714609 8.93606277794175
