21
Energy = -155.53716528 eV
Cr 6.419983756139699 3.1927963344142767 5.388634615356207
Cr 3.3652402346276755 4.8025165973865525 8.005392713046827
Cr 3.5328731251400107 7.493962909201825 7.416890139813171
Cr 7.889244818787527 7.79813517361654 8.494507234231412
Cr 7.338743284556584 6.627664635856445 3.1634735573655104
Cr 9.122415015175708 8.400697715584199 6.779630802996911
Cr 7.094077259248414 5.26532950646288 8.674784002569643
Cr 5.84175342961907 7.312536469637525 7.21705696438486
Cr 6.762985269541026 9.473003440057614 6.668840538734381
Cr 5.577549301222568 4.674112049655184 6.987845186980231
Cr 9.183485577498999 6.050242723410404 8.335694102210539
Cr 8.165717306194406 3.8973957070176675 6.847642200860183
Cr 4.583312136861959 5.883875873007277 9.234931902278117
Cr 4.609173391302344 9.607357460763403 7.038548889780742
Cr 3.682046953865065 6.206479924923709 5.898162790479959
Cr 7.1240920789122155 8.102141133258682 4.881358570646462
Cr 5.933046378790559 5.821483115542351 5.179453236132785
Cr 8.0374124334861 6.223449406811023 6.243167810342991
Cr 4.882938339207889 8.261098945149016 5.1383140483738465
Cr 7.7766682614436915 4.522408486405173 4.178202620107432
Cr 9.2242420521466 6.679670280833345 4.367095253102199
