24
Energy = -181.88506441 eV
Cr 10.860837438606536 3.553068226856292 7.927798363183645
Cr 6.980802432014096 11.512569273576801 9.059844764074315
Cr 6.5344564399697855 5.4086160468728375 6.415677574752131
Cr 4.9844952382219585 7.305498031467164 7.3390384051087265
Cr 9.607538703381104 8.088883333950314 8.072605966787854
Cr 6.123214699264219 11.990076302620944 6.661324337217623
Cr 8.040522931040488 10.600004486932123 7.790560108058237
Cr 9.202149558300334 5.756042324681518 7.305456138557911
Cr 7.273636636064366 7.8519533606434795 7.496315009337301
Cr 8.427891059709989 3.516072288769933 6.790777418566205
Cr 8.667555823307218 4.547707805436795 4.879760759362245
Cr 6.522895766225712 9.62328738810504 6.029952267813416
Cr 6.3273619705631985 7.698030179547106 9.819200422188052
Cr 9.415312953196008 4.568871559224721 9.366204378456198
Cr 11.214467543705265 6.28356768477141 8.919410585178511
Cr 8.603869614880619 6.8492199527679025 9.78201484569517
Cr 4.409613413280934 11.634696174644404 8.176268455868044
Cr 10.894596757863013 4.700780462150032 5.96563857151766
Cr 5.761714201815283 9.697011664079206 8.395773227539237
Cr 8.188560341694302 7.0967749191681095 5.468675951857647
Cr 7.655334705636609 9.223390259390769 9.74943071234823
Cr 4.361372066141439 9.843706678739352 6.278116216900614
Cr 6.879147739782929 5.407254230712886 8.491718767297854
Cr 5.719600853587323 7.5878755155728275 5.244719858856798
