26
Energy = -198.70998997 eV
Cr 5.268084670917663 9.810061217832128 5.626477220357747
Cr 5.5690531545332975 9.017583049000715 7.8508506490256
Cr 7.564641560332889 8.474498013787992 6.396788714096365
Cr 9.18575925643644 7.878957981648368 5.137604181444775
Cr 6.641397348478372 6.545577134680748 7.642444639693347
Cr 4.956421842231099 7.2409235785482595 6.171656166123512
Cr 6.566079696341715 8.179600968745438 4.243345456787996
Cr 3.7662834559005733 7.8285072126305915 4.234960638351971
Cr 8.211377643348625 8.500410156528162 8.784795372121458
Cr 10.056344574053654 8.427933633352835 7.626787695626336
Cr 7.315425930548634 6.0545514375947915 5.252309772104022
Cr 6.030799348245499 7.368368018558316 9.698509486641745
Cr 7.80514137407282 6.059688241807874 10.12549669564684
Cr 5.1898569401207775 5.40080690630832 10.725326801401165
Cr 2.2882436309765892 6.070767480290103 3.718054526319049
Cr 9.63449490630012 5.117888741880241 5.455626149119979
Cr 8.787701150383937 6.039153062756243 7.618928347211117
Cr 7.45846712846687 5.709660639610582 3.0764394254429663
Cr 4.164497485786452 6.223380209959489 8.33479450636676
Cr 6.036978102405111 4.761668573516451 8.902844662343819
Cr 5.078012749604731 5.728365079710055 3.8813564705193055
Cr 8.347173291589526 3.69016416433641 4.279208249661048
Cr 7.484295311540746 4.019543349578252 6.683780105589742
Cr 3.1683872644305726 5.565265974620697 5.730787448223059
Cr 6.0158188013787495 3.6373118377234497 4.254226350829365
Cr 5.338849389911647 4.5789493433299775 6.4761862772880345
