21
Energy = -159.57796489 eV
Cr 5.671747307197226 2.976402442981003 2.7908882700097895
Cr 4.125349210833611 7.395027845627789 3.2382242803195855
Cr 6.0885634338025865 5.834992891440172 2.4725140014315956
Cr 6.939337571928221 4.249036605334947 4.226450384580881
Cr 8.066924611134292 6.7634611850193656 3.659149062166898
Cr 4.518740348763922 4.932942591136361 4.310269888491245
Cr 4.670228958372553 2.664464802698381 5.015855601142379
Cr 6.405741622550675 8.40592667645978 3.385100591317044
Cr 4.500900517064212 8.807578425399592 5.386346867220657
Cr 5.9159433104783865 6.715651598727992 5.0535108209220025
Cr 7.176314022870388 8.2615567761236 6.168977021905435
Cr 3.016531337820505 6.646168881011405 5.409275351504003
Cr 6.891432252601418 2.664222139653327 5.995643699364674
Cr 5.31673645567068 4.7667197338743 6.3868469282138545
Cr 7.884303049581509 5.4759201279202605 5.923782708161201
Cr 6.548545023853529 6.3708881697406285 8.281455150069355
Cr 3.058098182059671 4.525969084508197 6.543259828955315
Cr 4.477786975923602 7.057421950004167 7.306708324074482
Cr 4.402594402531967 2.5993959503759694 7.45425572469721
Cr 6.338904048700832 3.9465047862008356 8.351774747564708
Cr 4.090108027694861 5.044578007197168 8.744541419323236
