28
Energy = -214.72210146 eV
Cr 3.5850445047645425 7.514970422114354 3.9250507194241364
Cr 3.2276077882690637 7.245753564136315 6.7417963087121775
Cr 5.399834131415189 8.15817041913669 5.2445705712368085
Cr 8.141598608203376 8.617767106865921 4.634086458251797
Cr 3.317871044206119 5.045395733368697 5.052308837555402
Cr 3.2748470108410825 8.400632597604504 9.326029005273808
Cr 6.439180558995739 7.609539646057351 3.319734311322591
Cr 5.081101487547851 5.57644463700239 4.3361136517231476
Cr 6.876759848191836 9.818327316171885 6.4650697782618245
Cr 2.8442963164209587 4.468571379055555 7.32932075671262
Cr 5.084564945574471 6.001706012453357 6.835137434799298
Cr 4.794602630140314 8.66135515658678 7.780774168535836
Cr 7.060120696869809 6.169399164150272 5.291644388529344
Cr 3.721503546182976 6.121577694372047 9.096922107841031
Cr 5.356473758503023 3.940026515381985 6.1509447338008085
Cr 7.382769101006716 5.311931249135409 2.7777165413984495
Cr 4.958337770620075 3.182266609977756 4.033902754526909
Cr 7.268033436338185 7.6518899788647685 7.360416086464336
Cr 3.5163856915751386 2.4263972337367106 6.491219708529048
Cr 9.074733264164776 6.587802945593379 3.6132062340435502
Cr 5.402989865109529 4.05032170261178 8.554610366422907
Cr 5.863733010761187 6.8128416605390525 9.1279749011975
Cr 9.195686460830906 7.334682917368407 6.328624921906236
Cr 7.463013380499427 5.135456126873083 7.1676525105087014
Cr 7.194857362632196 3.9998764309435675 4.923875554250117
Cr 9.295524697079632 4.002847738917505 3.4739507738929287
Cr 7.4779481788389734 3.098268662701458 6.767825167662956
Cr 9.34265048910547 4.697848962968612 5.491590831904278
