25
Energy = -191.65248674 eV
Cr 7.677250728928092 5.279729059259421 2.8488014245112048
Cr 4.153343849635895 3.5943240662487375 3.1187433801603266
Cr 5.076784589422528 6.234051146459183 2.490107910914646
Cr 7.0550246530258445 7.421864093016795 3.9344253788642205
Cr 6.478957938653818 3.319523497585833 3.622916602815096
Cr 3.1964808828596474 5.60031041349352 4.638976877389321
Cr 4.587559282700432 7.918632521494151 5.20378475281109
Cr 8.143523316962849 5.100995139764194 5.05883571904425
Cr 4.303804633231932 3.1765969549980184 5.2443179387826495
Cr 6.920491989748341 9.282153273901322 5.1922059896013915
Cr 5.454823910666549 5.45677295236861 4.477494222700278
Cr 9.067131095177947 7.447064026749678 5.53863395900087
Cr 6.412799707516547 3.9026899293052706 6.26461201170072
Cr 8.711911658668038 9.546211239953319 6.571736141855238
Cr 4.260990865570076 5.604695925082454 6.726897713275814
Cr 6.669705462846942 6.763276817672456 6.515104314788345
Cr 8.366968786940179 7.297862918833868 8.06929619390926
Cr 4.50153408442454 3.413049580532538 7.846426606608145
Cr 8.796086678106773 5.250246653358247 7.252804216342015
Cr 6.136122876436597 8.865877430672839 7.388607317567588
Cr 2.4398673793139087 3.93335325333525 6.697155780832361
Cr 4.269441087086308 7.41310501429763 7.824364073123359
Cr 6.487873662004069 5.2537455277508505 8.4634731925485
Cr 6.199656239168947 7.362848886678505 9.319125242672408
Cr 4.174662639741905 5.103817676025442 9.233951037018603
