23
Energy = -175.70384686 eV
Cr 8.506971035184783 3.395442375333073 10.304176469436575
Cr 5.990099681155921 4.25466706266548 9.540673634848273
Cr 7.179476107504075 10.756902961239156 5.457691315143189
Cr 4.385322291053986 8.785594673240041 9.80403116426915
Cr 5.857760885320658 10.152014916507802 7.87197773608558
Cr 7.323847051468347 8.701694084048977 7.015667219481629
Cr 5.352873610365136 4.9878498737572725 7.383558657859388
Cr 6.247121879839993 6.641728782114924 5.745541980096239
Cr 5.472877706846009 9.193143921003221 5.267331507227367
Cr 7.331875660388571 2.6434828276678677 8.318099240864044
Cr 6.997132938124944 6.544273962415274 8.415409017239183
Cr 8.994726456176895 4.864760544380534 8.487958396889887
Cr 6.752354464489672 8.578642124131525 9.669108056229534
Cr 7.461027272734739 8.133105301366678 4.276571333012318
Cr 4.957234030774841 6.456874374477947 9.857557436565367
Cr 7.4848564300883185 5.204372292714316 4.213646462838495
Cr 8.60653766183636 6.563160579373007 6.381404812125197
Cr 4.801989387980374 7.89464024325862 7.519678350988078
Cr 9.674646064508586 4.093800138304437 5.622844196540412
Cr 9.171370748940603 8.938683916279833 5.622971757431314
Cr 7.612445455549263 4.3834434207558175 6.670602818453274
Cr 7.5531864996414075 5.702688007053786 10.636644853255737
Cr 9.535592010514005 6.277307516208024 4.258233035682431
