27
Energy = -151.85291065 eV
Cr 4.071441000100345 3.190806303423638 6.9117963135822
Cr 2.7463975762462334 4.27610642461334 5.317192625245978
Cr 2.7115326035934055 5.057044020449716 7.486830795422107
Cr 4.998948757150366 5.123005135878502 7.748031309402918
Cr 3.8744618061358587 7.1391096014796025 8.074380646789702
Cr 3.8267193034009086 5.549768611245933 3.5788941750339287
Cr 6.497924026291097 3.531284203535855 6.846635391436494
Cr 5.063138297422476 4.2879400636986915 5.086378857503832
Cr 5.364215670266436 8.839271790843721 8.644459383141886
Cr 3.895628439887768 6.216951088994699 5.853343269474943
Cr 5.722996593093568 6.603607639011373 9.415863076622491
Cr 7.350191333707253 5.174911047501448 8.318815242727526
Cr 6.6337736375106875 5.866093307442675 6.093696724283642
Cr 8.728149923568326 4.3418641456803595 6.625257101582323
Cr 7.45525550758671 4.102317185589656 4.72028435732541
Cr 6.044407623620139 4.99979335880881 3.0784411261402873
Cr 5.605047110653843 6.952016864504279 4.25632436720795
Cr 5.3465775957793475 8.017156486411116 6.4817073986371545
Cr 6.949162201272997 9.668063513083156 6.959393903876508
Cr 9.149853031744408 6.514326125641444 8.542762247711774
Cr 7.1943884421231115 7.565590071438579 7.953607101727822
Cr 8.881255842456333 6.5923667006726605 6.302533167209083
Cr 7.8905378695231745 6.269152446127853 4.03622140229662
Cr 7.3529586429750795 8.247136852649648 5.208494524629145
Cr 8.795184302707927 10.055359875444063 5.455913531894727
Cr 9.563833472893162 7.998336403309501 4.69995923811567
Cr 9.152925289910478 8.687526634140205 7.169688622599865
