27
Energy = -206.21639901 eV
Cr 9.140389256282427 6.281829869494365 2.8405825069853163
Cr 5.9325496924018495 9.292467042015378 7.74700982648799
Cr 10.756799518386472 5.995704949470627 5.133359908472202
Cr 5.354415648320491 5.453163121231953 7.5523915211658625
Cr 8.442526666975116 7.856848336609481 11.518507735152662
Cr 4.865446005291964 9.183870875997878 10.225819785481871
Cr 5.1038032691643895 7.201958145656076 8.641546807301953
Cr 9.051377881490762 6.500644600599054 9.362313188924286
Cr 9.013675365343193 4.6058249900733355 4.161317821213527
Cr 6.631640109351361 5.930570153620759 3.7200864148714383
Cr 6.236381743067388 7.520368910450494 5.939047242718701
Cr 7.38883582816269 5.234962666048313 5.798103619920305
Cr 7.377542771254713 9.24372867783627 5.391311896997033
Cr 8.913796318276434 10.40724755582574 10.628985947759242
Cr 9.791523700982287 8.934878209351297 9.206456043061976
Cr 6.803046373899733 9.923712479457208 11.542298427306912
Cr 8.332464264792657 8.776320372769352 7.125360845197008
Cr 6.06772143634827 10.825621909071286 9.760787932189444
Cr 8.085538082769148 10.897312712948883 8.19454649466608
Cr 10.177303987989792 7.147364728108955 7.337002994827936
Cr 6.97955102033314 7.757638614524038 3.4628803023034718
Cr 5.8736369442579965 7.889636330899289 11.649039115533023
Cr 9.570570524487902 5.354247977307568 6.946443538435811
Cr 8.670935131591193 7.084503125070647 5.189067903534416
Cr 6.691107896112318 6.256850705624536 10.0506563614887
Cr 7.596322843143743 6.727320130421113 7.769691539968182
Cr 7.264566004665514 8.580620840039222 9.61153749980279
