22
Energy = -167.46089815 eV
Cr 3.466342403401321 6.229737672872632 5.679896735780633
Cr 8.210413211116537 6.6771326573599925 5.5547092381633645
Cr 6.765749132944178 7.590422020895991 7.7974968303877095
Cr 4.889564383311622 8.641698930980423 8.447057373475326
Cr 5.609520415042278 7.846096077917543 5.533070684261172
Cr 10.448312223085281 9.947427320902582 7.297938113133941
Cr 7.53478541206828 10.145071833755948 8.08922900170431
Cr 4.3803367046795705 6.286663179705155 7.781300953149863
Cr 9.262783959545311 7.93376494812188 8.096364684517065
Cr 10.769465502253242 7.7541102312913175 6.027245149856631
Cr 10.615540388506227 7.85199625165108 10.388621014002236
Cr 11.759693501091888 8.943109767136923 8.483520137023138
Cr 6.25409329286932 5.414496574534446 6.667483808027202
Cr 8.852680204542901 5.776215477467119 7.758498148257494
Cr 9.468911580148012 10.206489816005343 9.542615852950489
Cr 8.293691757716097 8.736266108285761 5.867826932837391
Cr 3.4140831949301833 8.533234789035314 6.390357146910869
Cr 10.99602013038288 5.975438468451527 8.65398496222908
Cr 7.710571900769031 8.334607131136666 10.093855284471235
Cr 5.935151361615547 9.754985425388458 6.349814908721601
Cr 6.354232534679324 5.9777710358907 9.390340295205402
Cr 8.716067204858685 6.2744493129757135 10.121925130075425
