24
Energy = -180.44584596 eV
Cr 5.617785192083789 5.48503414803315 9.715253767789937
Cr 5.336458008674822 6.893734708783992 7.753388345485646
Cr 6.526185080585825 9.06231759226301 7.639140047354854
Cr 7.632866660268309 7.174484380980292 8.152652936702893
Cr 3.738081583240295 5.011024371030757 7.997225114274701
Cr 9.522313552824276 6.516279512514654 5.991749501500513
Cr 2.6200505504091636 7.61928357107022 7.526965612214138
Cr 7.09455280503293 4.589777178857865 8.194335973099548
Cr 5.066699544413022 2.8558222079980355 8.82207378121055
Cr 4.920287177984969 8.134335153767479 6.205569512494268
Cr 8.704934149448057 8.700118773928493 6.330497176436006
Cr 6.622083043007999 9.600059535761742 5.133817998064383
Cr 4.628700504778118 7.841971638652276 3.8255991642838985
Cr 6.437540117312213 2.219351861059872 7.823258053867484
Cr 7.291478927086428 7.260649745182639 4.691184958289497
Cr 6.321796328478367 8.956538208372876 2.958745965590386
Cr 3.6294754144578363 6.078900807665808 5.775680123046166
Cr 7.310903984385249 5.654419945801138 6.171828766787382
Cr 7.220613211349271 3.2603311759468894 5.427159073389103
Cr 5.054865734489416 3.9731643991476506 6.29299556250884
Cr 5.428909430105205 5.4769832538470995 4.813792779869616
Cr 6.415720291594238 6.18777888166973 2.6640693506281514
Cr 8.049432736078568 5.051101965767181 3.67970526122142
Cr 5.870894998079178 3.459166008065298 3.4759402000584774
