20
Energy = -151.23919694 eV
Cr 7.027767639297804 6.035966449687266 3.5349333812084134
Cr 6.440932352524319 8.718540352778659 3.780227324030948
Cr 5.9877119302055855 4.4991921228909435 5.089784251699699
Cr 4.613879335016501 9.003276484614819 4.301207927166552
Cr 4.9654652108887145 6.78115085377195 5.003435002015495
Cr 8.667852368643684 7.734073932859673 5.5921236497916915
Cr 2.8625443250271347 6.643918132773498 5.396476460060201
Cr 3.6627271046463568 4.494125196770967 5.697044808718298
Cr 8.690736338128927 5.458347606329274 4.9035973499134045
Cr 6.594208340765157 8.360409359692133 6.048913899273702
Cr 4.764947222371327 5.8656102240884636 7.357401977195864
Cr 7.9991908391441005 3.3952421531957326 6.6615803813165195
Cr 7.0081935820503665 5.91074717034594 6.6623524687892655
Cr 9.56573057559709 5.569031921543639 7.280444531005336
Cr 5.582229526859063 8.268547499599526 8.358893045835494
Cr 4.114312989483338 8.435928864597017 7.024170316343826
Cr 5.839307027253673 3.6200484341443193 7.578247217072467
Cr 8.12557774801381 7.3879872016179595 8.158917537978024
Cr 7.920952387167966 4.706020316151712 8.969900716208896
Cr 6.3028798678505105 5.848982433482522 9.33749446531148
