23
Energy = -176.59867662 eV
Cr 6.284006278252175 3.5350205586640606 4.6450523458825295
Cr 3.989588774963747 2.6391299494283333 5.346779482585098
Cr 6.007141441036837 2.943183080224902 7.190410566348916
Cr 4.420868656629922 4.769890043926991 3.7274129984099966
Cr 7.032028785242477 4.8749211924055045 2.6980578996383326
Cr 8.734067041232404 4.594749945388396 4.777657680177079
Cr 4.938395175874207 4.97355338790418 6.522829043075963
Cr 7.619624510005789 4.465503360786723 6.832430451711217
Cr 2.42944154862702 4.4728787059320965 5.4778155165523525
Cr 3.314861892905568 3.871667160622474 7.859711471962284
Cr 5.899380941891278 6.688175993470918 2.654714397638348
Cr 6.537906100948912 6.010431820475362 5.000330319889114
Cr 8.206408310628392 7.189406659078526 3.89326223483765
Cr 3.848541187224576 6.855003621336082 4.513330341701832
Cr 5.867841458082517 4.57495523902215 9.026589725658278
Cr 9.125084949010773 6.428903828850722 5.877837265635334
Cr 2.7915233089571103 6.415984239172654 6.62285422863414
Cr 5.733638656143292 8.555587701022814 4.18442266135702
Cr 7.1428039481252075 6.6119962046372995 7.58077074109654
Cr 4.5954133942342805 6.4201326853081575 8.683463061716006
Cr 7.4529523944727805 8.470433306507442 5.693890078458819
Cr 3.5600008887485464 8.93701563613684 5.885262064376707
Cr 5.1469527081592386 7.582813027609606 6.690641991161791
