27
Energy = -209.14959015 eV
Cr 6.459977294202742 10.466450929780121 6.625522349451177
Cr 8.001351852091966 10.4528521557059 3.9811665010979453
Cr 5.736594937908071 10.275783837962992 4.335710731593652
Cr 8.765940587628734 9.539909148890652 6.151914646496611
Cr 6.532625505346269 8.17185990794992 7.3976254686381875
Cr 8.770543156499373 8.688974919230391 8.834349914864804
Cr 6.423978877730216 7.732199011780336 10.2633291884723
Cr 4.478081884815337 8.321890760201542 6.016956151783357
Cr 7.444245011911974 8.215955495838381 2.8188218708300896
Cr 9.523591820171983 8.038589823180072 4.191035158606416
Cr 4.603471048797145 7.8412395794461265 3.8014089036672662
Cr 8.962417533841371 7.181327462444423 6.802953002361431
Cr 8.909405271670575 7.525142726128713 10.835278557865959
Cr 7.4629016149422505 6.30744264300556 8.865373483788867
Cr 5.906248887885736 6.112430233696233 3.6708836837927663
Cr 7.916547390522805 5.375152312942482 11.175305463455866
Cr 4.180107524028721 5.891235922286523 5.877319621779998
Cr 8.155228994843581 6.102614160614094 4.584411434712161
Cr 9.805293294353193 6.093918230983871 9.0487305102127
Cr 5.5575358508511945 5.395747685195678 10.632660848303454
Cr 4.770460461298446 6.894423936651086 8.382195871274705
Cr 6.961754615691906 8.250240360482218 5.056795038748723
Cr 6.439298009480189 5.916374929090239 6.392382458058688
Cr 8.399326423902993 4.795995996711531 6.973705923525246
Cr 6.455003444383098 3.091087338628355 10.658832064306674
Cr 8.365195573535319 3.7735179480939802 9.363489768626541
Cr 5.870978081914093 4.59203253190287 8.34318190206033
