26
Energy = -199.11900249 eV
Cr 10.485145873126664 9.12504726078653 6.270877631960934
Cr 5.295988525576306 7.772713138078275 4.661214388174244
Cr 8.375420722608826 5.499825616068627 6.146430038858027
Cr 5.911657457208364 4.633634888713419 7.578349859114753
Cr 9.668063053191892 8.943009158239185 8.89401592642251
Cr 7.291932017573327 7.739096743069192 9.056843210377066
Cr 4.27266911539232 6.284466412731585 6.10164842785989
Cr 9.320597081750531 6.6190598540460615 10.216490265090611
Cr 7.3494748290300445 6.749302483686185 3.7803282389598447
Cr 8.866170175843479 10.65346491655974 5.304938481004842
Cr 6.212469992803799 5.506511368042264 10.132987280344762
Cr 9.519299482002934 7.246627544012232 7.672998404759334
Cr 8.542728685751916 8.36956093610205 10.99933093463476
Cr 8.555408666758483 8.011046286580935 5.334774106705013
Cr 7.516396920556495 6.410070194042738 12.09792165759299
Cr 7.842455448328445 5.382695479396804 8.52767199977864
Cr 6.597221891777192 9.677388278113538 5.211964617344727
Cr 6.102564053813131 5.048840746581202 5.151841663798771
Cr 9.695507795376246 9.036291280764145 3.50937200718813
Cr 6.844390836862764 7.060982214455264 6.63077640489671
Cr 6.01434517755562 7.828369940435245 10.764040115672886
Cr 7.952805892166665 4.782787285012557 11.103844986069129
Cr 5.28771934395034 8.684888695044782 7.398418739907673
Cr 7.907052789991215 9.294335258643818 7.336005272020084
Cr 4.981771990988592 6.768514997841855 8.44633138168093
Cr 7.395218430358966 9.209124063990933 3.182888747597533
