21
Energy = -114.37504562 eV
Cr 8.127142909931328 5.119950275279687 4.779209448246258
Cr 9.723627874775712 9.046062986732203 10.779278174259492
Cr 7.462761159639629 7.2556457362634275 5.33006542213155
Cr 8.963382288132255 6.963762617737595 10.699659732332748
Cr 7.418090979717191 8.9200063841482 10.87564599972218
Cr 8.417285340521373 5.617240324634246 8.799013995086675
Cr 5.844336596425748 6.651461268704895 3.9028130410246225
Cr 5.479674731117792 8.137125570764063 8.317931398179933
Cr 8.927645926980105 8.49444865199803 6.763124899837859
Cr 5.115407985871127 7.482061100187085 5.976888007945398
Cr 9.120700550232979 6.111577000468032 6.700868723392919
Cr 6.722094190528193 6.365167999282611 7.3625247945751155
Cr 6.903908758273785 10.114959228699849 8.802171999341473
Cr 9.296727151193608 9.755001989558325 8.676233426839458
Cr 7.765823142533456 7.907498766927274 8.879695389072724
Cr 6.6739227161447054 9.074500117929361 6.681749715130413
Cr 8.180900039878304 10.767462645023643 6.951425771333266
Cr 7.734298708002938 4.266267411255003 6.872078678540791
Cr 8.310060721070874 10.930412236881423 10.436334884863388
Cr 5.978754975569581 5.196472985814183 5.5671513156647
Cr 10.013868725056595 7.365017991953876 8.604690989941844
