24
Energy = -178.02647706 eV
Cr 5.786357082921687 6.736377715219737 3.120327262004672
Cr 6.323555328691854 4.161036946090684 1.822355981978712
Cr 5.603876303663904 8.448969026138279 5.126941561846829
Cr 7.564308094525609 7.199775760586013 4.96847117212063
Cr 3.8739542394037128 6.941025761977045 5.1319333783109915
Cr 3.5616555556433616 8.21148542453522 7.1832557596848625
Cr 7.642296375198474 9.169761867933603 6.903070582604633
Cr 4.415992420964678 5.181282547567911 3.2071950873922783
Cr 7.463037883347515 4.707398533652694 3.761284251648269
Cr 5.941522624715989 9.619383165829243 7.887985903577136
Cr 5.564314592269717 2.810755152126505 3.5570461539411107
Cr 5.779132279461465 5.483432615521017 5.653180550398038
Cr 4.006745168731264 4.065855405090825 5.342680121962189
Cr 5.746543876169446 7.2393879490476865 7.176332927706944
Cr 8.154805031382338 6.650694272929206 7.055985170926575
Cr 8.691813647649813 4.7788447843180535 5.515980141178149
Cr 7.893976483569566 2.6318388292090864 3.383043958364805
Cr 4.376519529436347 7.945586570833915 9.204743807269086
Cr 3.7131936078584666 5.770519093378247 7.595200595768127
Cr 6.526201453433342 3.1668144709202046 5.565856647069318
Cr 4.8981409288254945 3.665257521555478 7.40631003794838
Cr 7.178076176040172 7.532830493264031 9.262565242121461
Cr 6.8547489555738474 4.836885028008291 7.730062895016887
Cr 5.283748441306614 5.885655951581474 9.145302014186043
