27
Energy = -205.5708265 eV
Cr 8.062385422275526 9.903847977529322 5.709063382575673
Cr 9.356175045798855 8.565023808727897 4.727592911056859
Cr 9.171957388031519 8.3686765040039 7.387710034417122
Cr 6.59933094776603 8.024931510687987 4.256190190025468
Cr 7.544726361173962 10.243699907389853 8.32288120981292
Cr 10.026245804198958 6.653760787120016 6.129125387383217
Cr 5.971881726535553 8.772431013072259 6.629122722434255
Cr 8.774929868493684 9.363248158499086 9.609690101724931
Cr 7.877515991958555 7.767566557090029 2.517659073503472
Cr 7.494331389947074 7.099519231397489 6.427396561526702
Cr 9.160719379119158 6.360649354245621 8.645321605612619
Cr 8.665195364766333 6.173295558726521 4.490798531448427
Cr 6.918517134446243 7.667905504123059 8.970720487694841
Cr 7.258997227273665 5.214409901256628 2.397935048228912
Cr 5.459720344839517 6.074159379177857 2.7891651953120804
Cr 8.695011625186668 4.744468709162961 6.793683068011593
Cr 5.3268593955254255 9.378355420660446 8.883180606158234
Cr 5.189469813126364 6.38015579193077 5.2648558822528315
Cr 6.788268679123919 5.023941169140338 5.004554783589038
Cr 4.907961803544886 7.092066555135382 7.629086818709174
Cr 7.923579206659047 5.1333790967771575 9.742383913570256
Cr 8.384996159227363 7.376515476094177 11.034169243565922
Cr 6.56925376993893 9.357201324881297 10.858375233240135
Cr 6.317975219089745 5.265170986086411 7.481531639068869
Cr 4.507997278188772 7.5883576557312375 9.9952612619805
Cr 5.481752767233139 5.643756792188267 9.796671577325863
Cr 6.686571357794085 6.93352074510415 11.512762278144807
