21
Energy = -158.99673422 eV
Cr 9.057892584707782 9.051407619342575 10.892766723433697
Cr 10.479924969730687 7.578489719387859 8.822784856887457
Cr 8.68477170100734 8.783407964075176 8.412552332804504
Cr 6.1328714248700225 9.643092677709408 8.337111022324109
Cr 6.485969034303706 7.996495969236845 10.147907737812972
Cr 4.505027202483683 7.553428354232274 7.944517970971721
Cr 7.681097829830241 9.040160015893127 5.969124496101336
Cr 8.650869399120248 6.850157716100228 10.261621423842145
Cr 9.726255195698906 7.814130652179384 6.083203149685491
Cr 5.336325348117532 8.864138611571729 5.852689250584567
Cr 6.920038676743304 7.178175657086636 7.787257983209048
Cr 9.011118968862155 6.130309495604072 7.479643770976507
Cr 7.081482612099554 5.015089443242054 9.031235015660213
Cr 5.014750378223369 5.750352440385937 9.235712381215274
Cr 4.413991613063035 6.8722956337617935 5.1938218468181505
Cr 6.147155481734251 7.950774264500038 3.395537545248552
Cr 8.269718149707241 8.215180202958814 3.7985058369786997
Cr 5.438468267008161 5.095175056940478 6.908284841984192
Cr 8.845805103039067 5.867594835349678 4.689478981731481
Cr 7.612628320040589 4.324279638652888 6.650822312650084
Cr 6.815491108929591 6.626823670318061 5.38331742401236
