26
Energy = -196.36759766 eV
Cr 6.821149196756845 8.174900781690637 3.6657297376924385
Cr 6.24789694585601 3.615683182344504 3.0885442065235926
Cr 7.841507026814847 5.969812853327939 3.4352099504659557
Cr 9.364403011332293 7.093260831819925 4.6778928314619925
Cr 7.174485276571273 7.0812067337377895 5.601582175559613
Cr 5.273993152943288 6.0497675476672095 3.9589730332760937
Cr 8.985751416053843 3.6786356226849835 3.8125067524836656
Cr 4.991644972116667 8.557357643541884 5.283472255500609
Cr 4.141652986680578 4.242541791994967 4.348962369021414
Cr 5.226254801283333 10.819447258639972 6.362823434711492
Cr 6.708856834567309 9.077480095894403 7.359972344511518
Cr 9.042343393651437 5.168225147142115 5.926708492594161
Cr 3.427290045597263 6.879906323720681 5.56265939202169
Cr 8.758043937578039 7.468326917789571 7.435930940680889
Cr 3.6934901969245244 8.887193874211723 7.579008973703289
Cr 6.688588079041701 4.479538228701302 5.1128858003345785
Cr 8.323508878777554 2.9763294749715685 6.517923012631469
Cr 1.5739050048094156 7.783011303116622 7.512558377542351
Cr 7.226033650755799 5.253435426568648 7.328779436959364
Cr 4.721330985254801 5.25377652344472 6.425982630830023
Cr 5.424758083659366 7.215273723450295 7.395793452720929
Cr 6.966059803419694 6.6977815317300085 8.985747301583318
Cr 3.1735554241372697 6.236644025970916 8.120859996148964
Cr 6.33105295559853 3.2906402176613585 7.599658591634627
Cr 5.244465687349326 4.967126008734754 8.981397677869026
Cr 7.740288906429961 4.195007583403083 9.030747485497473
