29
Energy = -224.21667189 eV
Cr 10.801220998415808 7.619686907273227 6.8216161663541515
Cr 9.982823872761871 9.51889664342884 9.00326606579862
Cr 7.9233720989646015 6.553228246546883 3.2970764058783426
Cr 9.353134034773317 9.752850265574034 6.331358455061222
Cr 10.976501841101292 7.26116353864831 9.142335646858996
Cr 6.889295609560923 5.2864753119425 1.5135885789768229
Cr 8.84730894067997 7.670566320695345 5.225186314364451
Cr 10.012453892522709 5.956690749975009 6.939560478458732
Cr 7.43814444731797 6.018742596604208 6.018552476278873
Cr 9.615892724895104 5.828831483992799 9.565954709744286
Cr 8.466509016931845 7.596024172494672 7.906798993981841
Cr 8.586493634312319 8.274512969530706 10.186017759473355
Cr 5.006213341509628 5.983823980014054 3.0451214199964842
Cr 6.0720589768682025 7.344428560330307 4.623069130811228
Cr 6.614098209185222 4.599635114587387 4.319084158990925
Cr 6.870558148785347 8.763873252638886 6.309189628476334
Cr 7.777353877889257 5.04162432683138 8.213417625607327
Cr 7.866572274505001 10.238528488277518 8.075536018892569
Cr 4.418811815790678 5.585923711934301 5.715973133497269
Cr 5.806550089382896 6.925975813647706 7.708588794303558
Cr 5.650931251750025 4.286046396166539 7.005747483899747
Cr 6.923000966066629 6.29280246977024 9.828099255545204
Cr 4.1791008432839964 7.964009104209299 6.088909244163837
Cr 5.166581434875358 9.805755026711061 7.376396891495085
Cr 5.104256339147473 4.850282153789848 9.380672510887157
Cr 6.2358167191991765 8.770548356245687 9.119605085384537
Cr 3.489974583286016 5.811600139345543 7.980122101219479
Cr 3.5011757027513757 8.1464287105339 8.63452158652854
Cr 4.471911494491284 7.113110764871977 10.20727039354332
