20
Energy = -150.79017762 eV
Cr 6.84786917370152 6.124716949406392 3.300177047227129
Cr 8.85458780959848 5.170017658591455 4.46655638897731
Cr 4.3441847997960865 4.613512514154274 4.781648646629973
Cr 5.368685115680389 6.878880945384311 5.097098929159256
Cr 6.897917990971142 4.797021979662718 5.529804926495189
Cr 7.94694923966528 7.273434217036106 5.613717812697575
Cr 6.4423628508676885 8.808692258251028 4.355103985287015
Cr 7.885014863138959 9.775757038465438 6.40249723214007
Cr 2.921292829764355 5.791530776353609 5.656312120720213
Cr 5.305842090159216 9.536556212975686 6.282116293309131
Cr 5.218920686470787 5.002997319388737 7.181450852445377
Cr 6.682003066051311 7.603980014289615 7.226285115893843
Cr 6.798531683387318 2.9991577206680065 7.400431821666724
Cr 9.264286744688782 7.770304042987299 7.646207669711397
Cr 7.2171850798594575 9.619122273714206 8.294696345587862
Cr 4.160729755085447 7.231801080817606 7.144285443526457
Cr 7.973338759832358 5.371855165058672 7.369101897923512
Cr 8.26816221643205 7.291548033114009 9.392336895009464
Cr 6.303015387765739 5.9773195193473265 9.02070259239596
Cr 6.710810114096691 3.7734845373468415 9.251158240209413
