26
Energy = -198.06161606 eV
Cr 6.2110151959642454 8.336238975447218 12.123413476338317
Cr 6.8413507586287885 10.241845904853799 6.343355188912141
Cr 8.134400341079747 8.398332321587299 10.53590221758687
Cr 9.920874820673326 9.404484876304064 7.182078426660241
Cr 6.427919476380819 6.965249510864852 3.107959492205673
Cr 5.5919817130356195 9.090612491504936 10.134073986849053
Cr 8.514097497650951 7.755421638332374 2.9177777642713933
Cr 7.916758383793554 7.795217511867456 6.566825547329278
Cr 5.954789256457818 6.18283302249404 6.6010574013837475
Cr 5.748326546951954 6.336266003610146 10.550457626141656
Cr 9.86961130981535 7.479071807881994 5.0228618160836875
Cr 9.725478411080461 6.286540984306485 9.612345409728752
Cr 7.974504512534597 6.109339112049686 11.409025485470522
Cr 7.279309804631836 6.909571787660367 8.796271604352944
Cr 6.06484310095096 8.236542625216423 5.057430416325477
Cr 8.443069666388828 9.427374847288387 4.9115506751099876
Cr 7.85140317789135 9.437215640424231 8.591998707351609
Cr 7.703641341386041 4.666537893915219 9.991858612794557
Cr 6.680349818440385 9.536349049684905 3.751432910603052
Cr 4.514961018634464 7.102065994765694 8.669819000933042
Cr 5.767883719145595 8.749042822181647 7.579715633358143
Cr 9.994410744158438 6.901520871683309 7.2903224780268525
Cr 5.888796921115499 4.662004072926735 8.265822858887217
Cr 8.312964822841762 6.347033800860868 5.052182335461245
Cr 10.32644127956919 8.52803943132008 9.424415379309188
Cr 8.38626557547387 5.209912937546264 7.463883998820727
