21
Energy = -115.17044818 eV
Cr 8.055022942691718 7.973647272897892 11.112702759854598
Cr 9.64307783102265 6.927140478233092 9.861661183368376
Cr 7.509881340575149 6.1474037743227665 9.677319265339955
Cr 9.339785231008308 5.495131758863952 8.047200818898368
Cr 8.870829934278133 9.021897039213986 9.179652337898728
Cr 6.6319613869978316 8.383756973805516 9.428563091332425
Cr 10.40653928960759 7.635140425250345 7.741420540269795
Cr 7.058127337323445 5.084416668201699 7.5926596058974
Cr 5.595974001008852 6.72240550738581 8.146827787420627
Cr 7.985333193173393 7.428167789529288 7.666881879168804
Cr 10.878101360593066 5.769518094567149 6.431574219133702
Cr 8.62262689629791 6.005845167481036 5.836731452566635
Cr 6.272436574428657 6.6512329224538105 5.94033643590693
Cr 9.328819232176405 9.488442235983154 6.855539882834328
Cr 3.9957169061347577 7.069915818323187 6.543556616616311
Cr 7.009439423476849 9.57268585667055 7.385336214209244
Cr 7.809438055668283 8.357820223917715 5.484477385592625
Cr 4.7880980991680415 8.880584816790886 7.995625951235119
Cr 10.100680623789113 7.751321446683051 5.4488179018953335
Cr 5.45094091428828 8.806240978267265 5.78904410301481
Cr 3.2653951282475906 9.199450777124056 6.375495803906911
