22
Energy = -168.0833793 eV
Cr 10.432604541983356 7.161387946669686 9.584122439984224
Cr 7.722275170344208 6.255778698274441 10.464015123043742
Cr 8.613073512185014 8.604576978193373 9.904675490990641
Cr 6.292132236338948 7.607584364872546 9.139392630362861
Cr 4.602015770530175 6.187925341757748 9.780208227141985
Cr 4.616759875325677 9.018938012963138 8.207409907219665
Cr 6.95665510122325 9.653276531384007 7.64492311184823
Cr 6.27855267709451 5.001420935407616 8.616773244180255
Cr 8.938603196950336 8.509732185616343 7.54120515550555
Cr 8.729262613495695 6.1678446445184285 8.26118295748854
Cr 11.053206460742176 7.3058294918068425 7.296477053199299
Cr 7.329799555011645 10.47591886214071 5.485649795267763
Cr 9.363971141824893 6.414422942737609 5.862072146598578
Cr 6.7273029810791956 6.828071260008213 6.957640756136951
Cr 4.366152753209237 6.721763084291387 7.449411531208153
Cr 5.160154039163372 8.884361294930496 5.797061448642924
Cr 7.5012854604861925 4.724403904200578 5.988116766669622
Cr 9.7014397602995 8.8300276519113 5.240606752036403
Cr 7.402592642935631 8.293912247813294 5.245970257137321
Cr 7.414247473154471 6.153305207909116 4.012988579510974
Cr 5.458088971928123 6.321400922705647 4.808463358595956
Cr 5.163886141449939 4.6030571429344755 6.556902876691332
