29
Energy = -225.68588906 eV
Cr 2.8915216529185757 7.527590221259897 6.706161582353305
Cr 10.15735107231164 8.683631775177938 11.553446640930673
Cr 8.619167297862782 4.14556653833645 6.158140246867751
Cr 6.386978513659622 9.413924902886935 6.443186401540695
Cr 6.541613144026406 4.694491885470742 7.39121723727235
Cr 10.81303612854801 10.099394723068775 6.865842433355936
Cr 6.083615090876772 10.207267038794624 8.767332266654961
Cr 8.236532077546606 7.034731749647415 3.7639040839814966
Cr 8.077662211176396 9.63479028753104 10.530307300863345
Cr 5.474476361340295 7.563895645488109 7.571319069747672
Cr 9.659177189650329 6.925140856437317 9.9546952381588
Cr 7.5800459034048995 6.7217827409491555 6.394373006841221
Cr 6.931142903103075 5.032609503949113 4.626233157222286
Cr 10.106272489931806 7.772461653820659 7.209074742754445
Cr 8.07757132253793 8.282267172788409 8.416735652999263
Cr 4.869840575194761 5.974564617560995 5.851333757223125
Cr 9.782968044554547 6.228888921365185 5.354240138261473
Cr 9.17521754487504 5.59614669955364 8.012522079830365
Cr 7.7066902221909395 7.267270981561909 11.083426879455844
Cr 4.030004166881918 10.253121156194688 6.867714748778134
Cr 5.831997913424815 8.294548811916194 9.967632361336069
Cr 3.61688608851731 8.867154539664492 8.610688441628536
Cr 10.47373863893926 9.453044428430067 9.279802573642295
Cr 8.466723036748565 4.3464780714403215 9.870180833631055
Cr 4.046161021742767 8.671640621769193 5.092092478568853
Cr 6.128635371879242 7.67393898817947 4.750345102804014
Cr 8.615282569203542 8.81090304426824 5.649415377490877
Cr 8.631151183758963 10.483884031717123 7.554582457286996
Cr 6.953579812208227 6.204704321119739 9.023023752245184
