21
Energy = -154.38152614 eV
Cr 6.161369532632492 2.6836704421580158 7.135158168723042
Cr 8.331351059764595 7.61309613247361 5.805842570502527
Cr 8.468163516723013 6.25730702885608 7.903845583682522
Cr 5.98313370384247 7.122021705640294 7.089544222419093
Cr 4.81198531008848 4.776718991146711 6.186880682481796
Cr 9.106099788486775 8.06751862653293 9.892329505163037
Cr 5.502863615534995 8.790502352811984 8.712116321885711
Cr 8.344630712308783 11.401751894415446 8.447068531150787
Cr 7.944522864199355 8.803330507430823 7.784682530676004
Cr 6.371768192907267 8.962895489990284 5.679453357365115
Cr 8.878325142444426 10.208060370773346 5.955189647506476
Cr 7.163089603913161 7.22903628490007 9.527155465145821
Cr 6.382545886335237 3.725117304359707 4.533801809842037
Cr 4.899527478355 1.9977454277992763 5.5454185432879415
Cr 6.019477844000792 5.065905309071429 8.188883222199351
Cr 6.594058311368039 10.564125370917672 7.346162238708051
Cr 9.92207191247301 9.70097884716296 8.405520458291988
Cr 7.5594883245026 9.89087619099394 9.961191562987729
Cr 7.485825044331974 4.86541783408024 6.2741881139985765
Cr 6.214149551961223 6.415862590874281 4.92031636305037
Cr 10.329454605554904 8.004128197234696 6.9685113026672045
