38
Energy = -295.87339743 eV
Cr 5.953739646281644 1.9869903719364537 7.506487529628094
Cr 6.819856941016842 4.164677041250541 2.1011832855952037
Cr 2.9440266930447083 6.306940498373066 0.9964929423611735
Cr 5.8758801140475505 7.414738214944813 4.511792354516236
Cr 4.465773858324941 1.617550409972678 2.375306929324048
Cr 9.235169975061615 4.182377004372967 6.220195175081805
Cr 8.783127732593933 5.041427786776382 3.457551827163048
Cr 1.8966527638342008 2.722055033650556 2.9860657447609364
Cr 0.5739143101176617 6.804702521886361 3.031538288062656
Cr 4.278149734087965 3.644543338301636 3.4324729974990893
Cr 4.12423944843459 5.767630470064528 4.9847798955938
Cr 2.293253357220279 3.8941508821869704 5.392890274009419
Cr 3.5064913424921333 1.8007178743559935 7.002086555018217
Cr 2.24490974225767 5.199075583102985 3.0342730413133703
Cr 1.68710128090101 6.489476530672046 5.27862262010014
Cr 7.995953437044985 5.817471082787531 5.359763745414303
Cr 7.0061347928881705 3.796421049428879 6.73363978550082
Cr 3.1974701395257727 5.570201876164412 7.352386530818976
Cr 4.544912011216479 3.663240326674583 6.21567517783395
Cr 6.5034212884747635 2.152731134047367 2.931480638180614
Cr 8.210171851504727 3.239947957160331 4.538591369418207
Cr 5.791987061561614 5.666154672293028 0.5488536051485546
Cr 3.5967254720700366 7.470609312546089 6.27411902472867
Cr 0.7112783810673281 5.161344121519291 6.828175834734385
Cr 5.788864686973518 5.941338087377893 6.837182248407986
Cr 3.3839241217915585 1.6128396936518103 4.634019498135198
Cr 1.0312816066277068 2.024720446272126 5.950524977896006
Cr 2.626041656014792 3.4265138364761474 7.9821150915626555
Cr 4.910660382977542 3.724887984836626 8.411903835404644
Cr 4.803687109614537 5.970152823468224 2.4354687230074825
Cr 3.275110978901631 7.536609615295178 3.5606329408231456
Cr 1.2432487065950233 4.164586395945155 1.455730630838215
Cr 0.4889611457554241 4.240398299429376 4.166431470241045
Cr 5.648412822497092 2.8617426386188596 0.6096448956221341
Cr 6.347294860965458 4.633372809262503 4.419014219051521
Cr 5.666809446816908 2.064206149182216 5.022915500148828
Cr 7.32137232398749 6.812096338951539 2.7445904896119595
Cr 3.7150899064286858 3.902460917782497 1.1665014384614467
