39
Energy = -310.02530332 eV
Cr 6.239752362394298 3.093625571779001 1.0517346127399514
Cr 3.5088050320320985 3.0549016804647953 0.17121578783645108
Cr 4.700620956794867 5.453177322066769 0.6523747842297096
Cr 2.0421951107151246 4.883125927624596 1.3109082768099667
Cr 4.598743477669393 0.9221982188599067 2.1756618037216815
Cr 5.6655187022539035 7.444053671975282 2.401983943348054
Cr 6.243527140092071 5.041745595907521 2.644380702924171
Cr 4.065826208172794 3.4878399215839395 2.1264810280369377
Cr 1.9916652129446195 2.1515760521124943 2.1791478515543004
Cr 3.1343278332759077 7.488841516144102 1.541937476019945
Cr 1.2393679763691032 6.525521291999356 3.5318898949078297
Cr 2.094784566564822 4.110949930527067 3.762985307603538
Cr 3.3828675071331284 1.915124546966454 4.139743673924905
Cr 8.235738370450266 3.628002413505423 3.214382219310048
Cr 3.6886484043556007 5.826762314382966 2.9771704599728555
Cr 6.365461748030258 8.723011409732653 5.023505833557774
Cr 8.373423657921524 4.010348778977451 3.3956166317336907
Cr 7.405668815824708 1.1508840466419896 2.7605962231266914
Cr 5.809730225980313 2.708444486248855 3.6476555868385714
Cr 7.804371469087314 6.248376186690416 3.979915783043346
Cr 4.482649279566178 4.343900524414557 4.525747371019839
Cr 1.040837952230883 2.010307168762521 4.916106956094421
Cr 5.4434192761332 6.6163710060913115 4.809231436615139
Cr 5.485676757579639 0.3290991611910468 4.593259224148514
Cr 2.76459949844426 6.055982290577919 5.378018804015169
Cr 0.5354272454826656 4.7610636570761224 5.694660674037818
Cr 6.912350495705547 4.326466061684886 5.203639378643178
Cr 3.4865587584253386 8.118775800557676 4.136793287022847
Cr 7.5831866602699245 1.8304724616772183 5.510957243302442
Cr 2.8275696405803563 3.515227582593955 6.109520739565945
Cr 5.221909874892109 2.5107693341735553 6.109368001236867
Cr 3.404892579715976 1.0553171258371623 6.262044865685249
Cr 4.252623637034455 7.426752086128707 6.863029227985465
Cr 6.977761660700655 6.330683589907485 6.7049894819598315
Cr 4.855156627290019 5.06744865343643 6.921337516202956
Cr 0.8063766052988433 3.0543803118119284 7.529365025595146
Cr 2.41089062729197 5.424885016242142 7.721358359996034
Cr 6.75245119161359 3.6730322627925256 7.529537761132603
Cr 4.014480478676608 3.1365063973038487 8.247698140952666
