30
Energy = -168.53063671 eV
Cr 7.348597459324575 6.719539214183982 2.068185411780772
Cr 5.153950892967799 5.792997947839964 1.8924677172474704
Cr 6.559395496828102 4.855012858190735 3.3149594977842307
Cr 7.288079267731618 8.693927109503463 3.3075575470839933
Cr 5.619894386558829 7.2386298315273505 3.6904479587344343
Cr 8.760694237154175 4.802467037741668 2.996450321777997
Cr 4.228522596084179 5.193817124239185 3.9173625927251114
Cr 8.00927164490147 6.636589117078429 4.278295761652543
Cr 5.544684890743091 3.453355254351653 4.969824083484823
Cr 8.01657517927101 4.430932597640328 5.333775998417812
Cr 6.884299736575545 8.287971475505985 5.489480479849699
Cr 4.009214525656828 7.029727985805368 5.574734341478667
Cr 6.127295305353802 5.7656997173233675 5.660405066203198
Cr 2.308352759903536 5.494174770573175 5.358944572081167
Cr 3.24062243505465 3.3736286358330627 4.964843107157705
Cr 3.5780746317293044 8.495595063526613 7.4275278795052175
Cr 7.963189580648804 6.557266807128598 6.807334331351285
Cr 4.278028142197612 2.447057201997485 6.9581828704178434
Cr 4.82462643057092 9.148180412574627 5.493918911088817
Cr 8.437298475414295 2.612356665500602 6.559074052668383
Cr 2.7866748486900277 6.336083161547522 7.528873658744393
Cr 4.17510961966371 4.7545137426999196 6.564764416710514
Cr 7.370881189366476 8.827804732792165 7.586164657166804
Cr 8.363548133413088 4.559232261266032 7.799138527057916
Cr 6.367465967864732 3.2639746280513338 6.997897240931698
Cr 5.59060943826185 7.482330359809592 7.461038212217675
Cr 6.162156870141782 5.3062180650345345 8.165927049724685
Cr 4.335075670637062 4.057365187846814 8.749458598795723
Cr 4.380362781324729 6.370332650051174 9.116967506472545
Cr 7.290959039205102 7.016730016072053 8.969509262923932
