34
Energy = -260.93150644 eV
Cr 3.3527924926265102 6.175865404320505 5.475812517740688
Cr 6.974105819390012 5.082151905115726 6.09775525300374
Cr 3.747489011777205 9.570301770566155 9.081980504413714
Cr 8.810763746429227 10.047824071360264 8.99278134782829
Cr 9.063282010865956 9.240221008104763 5.265207226373862
Cr 4.786146397841037 5.845968684365485 4.5860921100488286
Cr 8.854223959370374 4.542450420658418 9.66464369284537
Cr 9.44046478218325 4.463105307999626 7.025971441794984
Cr 7.850914175586328 8.063761397671373 9.891623380798247
Cr 10.494912987705126 5.507528752784847 7.682577335197963
Cr 5.9114026378569315 7.97634853964107 8.995268789049328
Cr 10.05040470786791 7.96788292495257 8.217813512392329
Cr 4.464239330567278 8.510248864894093 4.682060840642349
Cr 7.721070070530428 8.76507183862445 7.198017194900495
Cr 7.630784775114567 11.320014488322615 6.760018523866347
Cr 3.577194052591361 6.793534230961812 8.050567018170131
Cr 7.04746072847928 5.809518233249698 10.447691521417525
Cr 7.140906835774587 3.755864345644638 8.215549673070045
Cr 11.254008998105798 8.16394734594307 6.4604372996247195
Cr 6.3220989720176215 10.299183504531547 8.904282444205885
Cr 4.782809901023094 4.416110149937913 6.833772159527084
Cr 7.905015522864107 6.440449429243233 7.893854627382309
Cr 5.500106523069523 9.623567222360865 6.907842385798893
Cr 9.950934730766011 10.42145505682238 7.008554065089758
Cr 9.617338251263474 6.5702524126150275 10.174419596026503
Cr 9.246096691911898 6.916196800603927 5.829117648172672
Cr 12.039367992212815 7.288623918462691 9.323677350113671
Cr 3.2901312814175414 8.758783660010941 6.832203438695898
Cr 10.491904006124068 8.995947612102118 10.603818048388327
Cr 6.698028072076906 9.916173800910594 4.963868080806554
Cr 5.590094822791763 5.474146458884913 8.722085591396917
Cr 11.601733535948542 9.971576963229126 8.845423726418282
Cr 7.045463888450867 7.37739305895821 5.067360507873885
Cr 5.454202475841746 7.204095252365279 6.692832327320636
