31
Energy = -238.51537366 eV
Cr 9.850310799526653 6.505104010223483 12.761018772648777
Cr 7.731077626750189 7.5401449231637825 11.689411948716652
Cr 9.283732629438893 9.987383576328513 6.0608756546683225
Cr 4.9264939862579284 7.828265757840769 8.00958123086967
Cr 9.375984953890832 9.120024853536307 11.834492568770665
Cr 11.518319958422467 7.337313329739486 11.175428691081951
Cr 7.03506253966761 7.831364709981227 9.006584486800975
Cr 11.120057307584158 6.619112682255722 8.738899743213725
Cr 4.569753638726553 9.516858574767326 6.987733807792676
Cr 7.4614279860029225 9.111822861438746 4.114050011072868
Cr 9.41228225348801 8.006388014134226 5.044426740395918
Cr 7.0556982161651245 8.610006679392619 6.517407117500674
Cr 6.8441940011942775 10.839132152193903 6.554920828726672
Cr 8.165173014862571 11.676807115818905 8.683815785270944
Cr 6.165357537436198 10.117257880549543 8.597112715921345
Cr 8.484200975834323 4.859241595828325 11.409916704885465
Cr 5.3129868806607785 9.666237864165732 4.571411841972296
Cr 8.711270884605652 9.60005680056678 8.347650420397077
Cr 5.326793114911207 7.272988669613768 5.457879317091113
Cr 8.540895580144937 5.349490998644798 8.659659907306775
Cr 6.669183067402601 5.773154148590871 10.07585678944878
Cr 11.030785387398327 8.628830197649746 7.352921375246327
Cr 10.441101404726977 4.856057677423864 10.41213142422963
Cr 7.906251214160649 9.71819285049601 10.575045289663322
Cr 6.913295672781409 5.977470215356845 7.218108208006737
Cr 9.722540006080225 5.5428120453336485 6.572107763314406
Cr 10.387713536171939 9.14346541607432 9.817276772294086
Cr 7.937222950434702 6.635212342819103 5.171657956329038
Cr 9.157469490859421 7.531879516069901 7.396772062405863
Cr 5.9230124464253056 8.594424789623428 10.69192843801749
Cr 9.205552208491621 7.373500097211771 10.107982003463759
