30
Energy = -230.7135486 eV
Cr 6.589115398262423 8.752843072991942 3.3445137364210487
Cr 8.819753130835595 9.971205014802921 3.8784882384086075
Cr 4.391247144540369 6.358516846062416 3.7947337236820453
Cr 8.937868151592332 7.842136013733288 4.065283797274382
Cr 6.0424054660189395 4.723779255378114 4.619175132983152
Cr 8.010457328433555 5.280427547153266 4.19056097233296
Cr 4.721444470143725 2.6150905209836237 4.41721156193052
Cr 6.586884299348351 9.807967441782411 5.259527208819641
Cr 3.6651195966220085 4.887626322562892 5.411099188272896
Cr 6.663496872689549 7.127098654678444 4.808087226108458
Cr 4.471343969318772 8.435647294257766 4.6640718614734675
Cr 6.866011063674438 2.286108435913082 4.555974758953557
Cr 3.77020242478768 7.0416480973236215 6.460633385281434
Cr 7.9513050156980505 4.25650327169779 6.263011002519772
Cr 8.409446754005852 8.73215411524487 6.202079414123093
Cr 8.338456660328559 6.562045051234812 6.543024792981516
Cr 5.316950147767978 3.094846836257203 6.7613108789980165
Cr 5.885246393562011 5.4992574601018855 6.922597511151582
Cr 9.640714386549742 4.684348676249295 8.04147483655699
Cr 4.250785642737704 9.749603306625938 6.704151054601621
Cr 3.666423148970589 4.353356878679112 7.771070583550449
Cr 6.025676698306463 7.992257902228601 6.996153152275606
Cr 7.167155385778728 3.41889405050849 8.301073127594814
Cr 9.85977551858042 6.704837615591628 8.29315282790224
Cr 3.804777796449298 8.689208977349248 8.351928488963772
Cr 7.3926948209264385 5.812692804619444 8.645254254891523
Cr 7.848710355197436 8.430876086801508 8.619765035182777
Cr 4.683397599700171 6.3498581029187156 8.659292819665962
Cr 5.500991950320056 4.086525317137008 9.351445656327847
Cr 6.17170766743122 7.902204287707909 9.553419029348383
