31
Energy = -239.27354856 eV
Cr 7.14532012324387 3.5630964874932456 8.640320449628856
Cr 5.046692780915631 5.080123761279335 9.84983382472634
Cr 7.516066458159297 3.1281540845343665 6.2592772631791895
Cr 4.732716959481076 2.984713815622656 8.955226256654422
Cr 6.887178589881397 6.565146691909265 8.407255226494842
Cr 5.719594044214038 2.153859202656532 6.566593723329289
Cr 6.812488909868424 2.750900129928198 4.03882885662071
Cr 8.46280918036213 5.22958283670219 6.737397761938749
Cr 5.726758230137682 4.932490212228824 7.249916242668046
Cr 9.378338960849474 3.575771065674737 4.580363572408139
Cr 4.7405909010185 7.052538360463476 8.120347191147136
Cr 3.316692694217494 5.212155209235698 8.386850799901412
Cr 3.4002158999651204 3.5309223275017603 7.109077195195085
Cr 7.102290680967767 5.33198197015073 4.6944047742048935
Cr 7.778351261674908 7.399159048226389 6.309823690842015
Cr 5.015603481135114 4.3007161111172225 5.124793761650594
Cr 8.532538309268123 4.348293102687625 2.4846151449845317
Cr 6.702650408623969 8.8398173746876 7.726592965442924
Cr 9.093279514430739 6.469652631102229 4.148728602347744
Cr 5.716875806590034 4.112196693424942 2.653287699786916
Cr 3.597595037190915 5.8121309666987795 5.977129034219749
Cr 5.195604899413151 7.243098135895955 5.779148028755431
Cr 4.587302012503021 9.320358418520174 7.293974338975625
Cr 6.973163518787013 8.017703962205633 3.8736933711325463
Cr 6.863255187980344 6.256209177007646 2.3080642989770537
Cr 2.6397841937755318 7.768222890689066 6.99101645266833
Cr 4.777927462227304 6.260558321111853 3.7176459844047227
Cr 6.34772213589611 9.506644156719489 5.269579108466978
Cr 3.0842851532666278 7.41281970420542 4.444817508638152
Cr 5.124730788456525 8.384676322472465 3.0634217475540635
Cr 3.8072568482358236 9.285008601290873 5.136266658612072
