36
Energy = -283.23687081 eV
Cr 1.97873263345345 5.024706039853252 7.187293302318842
Cr 1.6598033052959813 3.9794103646678423 5.099292066663046
Cr 4.289697452690305 3.6654543295553235 8.527213360604717
Cr 2.5524946475578205 2.3370173573108186 6.331793660045068
Cr 2.652314523031447 7.744679884463779 7.685937770434269
Cr 4.323842340364704 5.927573183245449 7.550900815849157
Cr 2.8269997812314847 6.44487971773115 5.355141529308518
Cr 5.395949143010531 8.181882583214538 8.486325857806058
Cr 4.183544492935159 4.189450264828887 5.920393359739934
Cr 5.384934392005979 1.864116149303515 6.272954777020495
Cr 6.244455359707852 4.07608943034707 7.216106405060823
Cr 4.025128920062975 2.5752701246762655 4.232238406397853
Cr 4.718899620247514 7.738895963601475 5.9221245434313134
Cr 3.936036330587399 7.454842454343904 3.4027535992037334
Cr 8.11364863691832 2.61137441836722 6.421309571267977
Cr 6.643983595787609 3.2231380894397588 4.676552553913083
Cr 3.3747703440586423 4.811248859759785 3.4886324140773
Cr 2.4582066120214647 8.993301329198296 5.175051285560758
Cr 8.332900515880471 4.937745104939382 5.785688174498103
Cr 8.541414314762035 5.1912647214390315 7.981436568711196
Cr 5.879972603877694 3.8395008377391826 2.658427754203029
Cr 4.441850284165723 9.833732043179301 4.401982807208343
Cr 6.161765036119635 5.660193074943051 8.993832446404364
Cr 4.099498113143596 9.673895494290083 7.1626038210870675
Cr 8.803778627242327 3.6737850916150787 3.6488189196929355
Cr 5.080125113299818 6.004534506922295 2.254517261100806
Cr 10.563657326402287 4.13816789111754 5.805251781644425
Cr 5.609924083021248 5.537825546242171 4.8580313078510615
Cr 6.674343632484009 6.691363602969063 6.887367553863569
Cr 7.549628385720255 5.528036793564257 3.275107759125512
Cr 6.288448086015565 7.953267386099825 4.016919435364749
Cr 10.298501592981513 6.804506714045269 6.4600321430344
Cr 10.235880883522842 5.814348374958819 4.183810019127536
Cr 6.6926435557329675 9.369275284360508 6.177513351743059
Cr 8.210916831436206 7.23343803753768 4.956539046222999
Cr 8.374496863488444 7.9114224604794 7.722804429218254
