33
Energy = -258.57436565 eV
Cr 8.737450889532475 5.057041466326324 11.802305442210432
Cr 5.2273547107671305 6.960206211980122 8.212903205646594
Cr 8.838457684707478 6.039806585405354 4.451095354651608
Cr 6.765327132015173 3.8678975739184347 10.929704251792977
Cr 9.128261503962657 7.172058673005758 10.550780812618362
Cr 4.629193323769686 5.348200148604922 9.894048906728962
Cr 4.720687943631193 9.58045119304759 8.864551596087487
Cr 7.410020634523772 8.391894751756725 4.847295687986864
Cr 10.15464168118061 6.354031369593055 8.471690551382068
Cr 6.742643819158668 8.437913634824245 10.03703115686407
Cr 10.709394478660379 5.0838880304168805 6.194940260528732
Cr 6.815186072991179 6.34019736634966 10.448319418622965
Cr 4.932783212743725 7.535913622419652 5.755197994440887
Cr 8.931479094015705 4.6286640546168165 9.453539485949449
Cr 4.4089879369352625 7.817493537480052 10.611973620371266
Cr 6.706413456882513 8.842300346507121 7.1760441147394864
Cr 8.753319114130857 10.126605290209238 6.587421090486364
Cr 4.767796587568177 5.024272657323733 6.954200188178182
Cr 9.144266561117536 7.651855106578192 6.233932283445722
Cr 10.972247479286127 9.617016376261073 6.937960577657773
Cr 3.0028093482763625 7.361630084584428 8.679263659767626
Cr 3.85413601223322 9.060040973398577 7.0064177715048475
Cr 11.25749786838241 8.379078970238275 9.183052391432009
Cr 7.775341432796436 6.8191291463103205 8.282748053074767
Cr 7.265100703003667 10.673312899501836 8.74819151076255
Cr 6.650151675916954 4.578996457706747 8.427676500645171
Cr 10.977112713268822 6.947980130690178 4.262178726885633
Cr 8.980965565171608 8.935798946625566 8.759356610830471
Cr 8.649640266136222 4.859802160483876 6.8300591194626445
Cr 6.807463267920076 6.216460709558335 6.088251661082939
Cr 5.661165009837138 10.494377212225906 6.074911032364847
Cr 11.604813076212123 7.3488056166359055 6.570278859189188
Cr 10.294006983538212 9.042330668884903 4.548436041926432
