36
Energy = -207.19606986 eV
Cr 3.096112862940299 6.792528185710035 5.124428811389669
Cr 3.7761392276786796 4.608173242705656 5.94795099797009
Cr 3.1154835596548054 9.005945886414148 4.423834201058099
Cr 4.9695098979950565 2.605686571790551 6.906465178909573
Cr 5.408983039418008 9.020719771569171 4.715201850560054
Cr 4.468892446251181 7.579994788148703 3.1941545847187593
Cr 4.779640037535866 5.446398293584713 4.0230023457650965
Cr 3.6881287037165973 6.375901088083186 7.467394537637783
Cr 4.9585953359905615 3.149571543298992 4.543776433928637
Cr 4.726150555144112 4.461447545596496 8.32122767059997
Cr 3.8387820606498466 8.624846696976157 6.576552498498084
Cr 5.342238290789715 6.924660453353916 5.813155701302009
Cr 6.132137868701062 4.557328255302466 6.307816714567726
Cr 5.104671706933029 6.148324601830454 10.076042558672384
Cr 5.974156455268255 10.590358361158179 6.136194288631942
Cr 7.14301612451175 3.019466987898457 7.762224078681234
Cr 6.710850158149259 6.899054639304036 3.7361420051052217
Cr 4.32483251171262 8.009671023423548 8.922625870172176
Cr 6.134412876564241 6.3875878617982345 8.032983862381483
Cr 7.275740749622669 9.0835593488268 3.384928488685168
Cr 7.9402344134489455 6.407269151796666 9.78939425685951
Cr 7.77030897999078 6.406051733154444 5.8186464235006286
Cr 6.896812212893117 2.395842978790218 5.449224065686484
Cr 5.9639250385754545 8.823085029159202 7.458952532442345
Cr 8.092130833141217 7.765031918842776 7.857038940010106
Cr 6.717645460990463 4.452525464017894 9.493299400388514
Cr 6.929351114886079 4.537349403159973 4.0801826972933695
Cr 6.505686535108283 8.155561854645628 9.692049108298027
Cr 8.967853322012635 7.7092755119294285 4.23759557949698
Cr 8.527294224234549 3.9837063511312234 5.8289105382466655
Cr 9.766412204420922 8.057538799614989 6.387613704849679
Cr 8.320535489724444 5.150383000709074 7.828837206799812
Cr 9.037690736535042 5.4098612741810035 4.022931327803701
Cr 7.634595051573683 8.935989868922276 5.735066318758727
Cr 10.013748474872726 5.784693608700291 6.27773990516
Cr 9.987867352939793 6.647055611217208 8.477377131854006
