35
Energy = -272.45224446 eV
Cr 6.701267844219585 3.5754385674620934 4.827425274977231
Cr 3.0836943898454487 4.813868880234568 7.709269520121119
Cr 8.859079111875653 3.359317485890902 7.260937342067105
Cr 6.613262621842238 7.324482843430541 6.33957234906581
Cr 8.662289144833304 7.3485872397141545 2.3835095658932963
Cr 7.445641135391162 5.196324530200004 6.368314950752597
Cr 5.47432085929426 5.094874548196159 7.480041325238048
Cr 10.11652798454634 5.82514223159732 2.9988012484804223
Cr 1.5076671758217468 7.0461990333242515 7.603291085229243
Cr 6.3471978912277 7.084243257733979 8.565606533932774
Cr 9.064121402242442 6.6251095116104635 7.515745047132374
Cr 4.1072066529586175 7.205203649721651 3.4462104801738582
Cr 7.96626404572912 4.456333682511647 2.0527576684595448
Cr 5.471033510142434 9.022469268964612 7.839079932641995
Cr 9.121154067588169 4.518019902352139 4.667806719892947
Cr 4.764815875439385 4.309487789327603 3.2136020581203804
Cr 4.933248500852319 8.76091114918597 5.172162678465897
Cr 5.851061682821639 6.773849202048043 1.8493730802129535
Cr 4.366033415757279 2.7915798216219843 8.400646442015688
Cr 6.67595362113822 2.887029569719517 7.089008152657164
Cr 4.0720053348092655 7.045348386900751 6.938466304313287
Cr 7.184119732133052 5.695736187765331 3.7488323086751962
Cr 4.080223535728977 6.940422541738931 9.21563798178771
Cr 2.3111663301453578 7.771415459116387 5.088142537699454
Cr 7.58721666195696 4.5400997159602605 9.024904021497113
Cr 6.870939822890135 2.474330263907127 9.365006338447959
Cr 5.13790376439557 5.909179116282651 5.019107688609411
Cr 6.707947312656244 8.30325230158247 3.72173008793558
Cr 2.6882580323693333 5.333452526247456 5.323711862690676
Cr 7.446098025105853 9.716750217854264 5.8325019325306116
Cr 4.494467662494051 3.290398290648486 5.676328096210824
Cr 8.806138792747454 7.390208643618833 5.198789521111434
Cr 2.5859470020134507 9.034003980895578 7.393967728972263
Cr 8.343180946761912 8.795385085825648 7.629656148593784
Cr 5.175023900851067 4.444955158395458 9.620976124130058
