37
Energy = -289.26958667 eV
Cr 3.136053402423982 6.302438288698058 8.342049997686372
Cr 6.566353102922554 3.4022489057639147 9.380286143668012
Cr 5.469008963860558 4.97976708311982 5.057068397497312
Cr 4.592383514682265 6.368550860358978 3.2861033513300617
Cr 9.033795218861524 4.648931727616324 3.312971201769542
Cr 4.421474949678044 4.404043325994464 9.571956744654685
Cr 7.904597214611911 8.456329858455256 3.35421678220382
Cr 5.679426377802549 7.899762157343009 4.854068765975401
Cr 2.1731057478403537 7.814986515275688 6.586351942479615
Cr 5.332461224991405 4.749989769721111 7.539233025710874
Cr 6.594111849174865 6.739072732092799 6.80198132506975
Cr 3.8082196646938433 9.153031000876972 5.481848984682213
Cr 4.393252825964971 2.923443143417883 5.554153869249359
Cr 10.508714025910416 4.051153035216021 5.617281182594988
Cr 7.603809557007704 5.516277335490908 8.5822894041096
Cr 6.527598770981548 9.287900973661383 6.338057692387617
Cr 2.8308221137154104 4.943204974012042 4.497485782567313
Cr 6.507038121104665 7.648422990959716 2.2409769547249043
Cr 6.467158030979386 2.853362342110991 6.8159100695189085
Cr 5.7486495624682785 9.958971906475853 3.542880651803917
Cr 4.3474640715312605 2.6734995944686406 8.232365613943562
Cr 8.09909933942582 4.889603988886622 5.96239409099563
Cr 7.190723444059797 6.211464630695052 4.005840975696797
Cr 9.11389866441308 2.5593976415875277 5.166129962913171
Cr 4.874313954112584 8.021421483010794 7.5543186997941945
Cr 9.532129493672779 6.275861212734956 7.143295576035584
Cr 3.794176647920164 6.524163829961123 5.912777202415571
Cr 6.967526205075807 3.4159132400866623 4.33146461853875
Cr 8.189570026400895 7.818124478639127 5.737909935809146
Cr 7.748571898171615 7.916837695917498 8.236072958131126
Cr 2.092482153497727 7.311273484084622 4.1999769973361225
Cr 1.4112105808224076 5.631847367468724 6.190431783887143
Cr 9.787921834198356 6.405931424721581 4.362982814441391
Cr 5.800710569739929 6.606064065738533 9.342326680542381
Cr 3.8955317444849227 8.54508263667938 3.040336041046779
Cr 3.1409520835101383 4.313341896039452 7.138004922628122
Cr 8.73211509803469 3.3832194258259456 7.757663959098064
