30
Energy = -228.08477516 eV
Cr 5.231299916987579 6.431973721928223 2.0621160141817163
Cr 7.757437439585748 5.143544772833865 2.5498969537175897
Cr 5.2026913646615105 8.577542297859049 1.767950615129841
Cr 3.104778400885424 5.233748393500595 2.3049334524420786
Cr 7.49309801611473 7.446817608799802 2.2725771091302485
Cr 2.185985191672522 3.5441111938411574 4.583430388776433
Cr 3.966476205877947 5.083235971334742 4.0646616253556935
Cr 4.109410391369056 7.453563461324658 3.835175046253909
Cr 5.540158450795472 3.907388169761332 2.780519016284434
Cr 6.4578339699282665 5.997047617011529 4.148836144450008
Cr 4.377507228680216 2.2768042940423903 4.385452025051992
Cr 8.852517841211387 4.836264552716952 4.5305326157672425
Cr 6.1662006651758015 8.313611954783791 3.8743897218530092
Cr 8.59953486746276 7.128266915708878 4.4067861484045805
Cr 7.1938282119214385 3.1158264871677375 4.414832936873863
Cr 5.547511690013953 3.890452232478562 5.638218844580776
Cr 3.5841026698986425 2.2017606009563697 6.550949821712182
Cr 6.982936208194594 7.68742138035446 6.197269951702488
Cr 5.977621227408993 1.4275565916133985 5.80689444483683
Cr 1.104565956900577 3.7546178391710168 6.532770097016152
Cr 3.5890360404541637 4.603921700147813 6.891277132384541
Cr 7.407571134384464 5.357833249493217 6.211450994293378
Cr 2.3283158935652617 6.159312580780964 5.523197327283439
Cr 7.818408236810171 3.1193640858499947 6.679057680414804
Cr 4.9476346559256195 6.768516290206745 6.010480995067758
Cr 5.529489945349252 2.7072406230678765 7.64387464166846
Cr 2.7781273067020833 3.9246075432581278 8.738732604256843
Cr 1.4978594832710284 6.004130968263182 7.856459288510003
Cr 3.3196022569838486 6.843273984523643 8.084513040859926
Cr 5.636473626963317 5.34825741237623 7.9407778168951255
