34
Energy = -265.25207723 eV
Cr 9.186004456408533 7.186144175646725 13.033195856781669
Cr 6.820790336250436 6.724386206470813 5.460539792686682
Cr 7.487470774535721 8.737896741820157 3.80955647149082
Cr 8.319213977262216 5.217697183159341 7.214130691598903
Cr 3.6961758757884655 9.134271622888134 5.192608894002601
Cr 5.433985926469434 10.882247280301264 7.843728751851425
Cr 4.5849675511680585 11.270895497883433 5.727226961225489
Cr 6.797929121356739 5.068048944857536 9.036558086850883
Cr 5.455460476175663 9.772036181572938 3.558612956434101
Cr 11.78131218120427 6.787348845076823 9.122094727780459
Cr 5.927587801369015 4.845865125792001 6.467201229679347
Cr 9.408129030876598 6.359114557943866 9.523687429919697
Cr 10.124566227509316 9.08975463106301 8.320548135317718
Cr 9.985654960789882 8.097148968856173 11.06560554911606
Cr 7.88486793143447 7.491380777618383 7.761450879025282
Cr 8.301011767638407 9.133757675579735 9.703055308757811
Cr 9.065138207029245 6.728198335797421 5.258059817106409
Cr 4.242981908171454 6.838263107853345 5.62987409875835
Cr 3.8026255928228476 9.035341290281819 7.5429010721795295
Cr 10.782034647994529 5.512332057545127 11.549492726887022
Cr 8.743095387314572 8.997534590141791 6.148182731481646
Cr 7.7690918400265065 10.414305438158738 7.607198044983752
Cr 5.428133661438609 6.973751162877696 7.781682500639564
Cr 10.50494978304015 7.1273956200035204 7.149833249183307
Cr 5.949590432941484 8.954182999238071 9.127928054678875
Cr 10.71786827134177 4.890572681903456 7.258093373731808
Cr 11.486348043183447 4.4781767611189 9.506381348194244
Cr 5.0579268308543215 7.346759543542553 3.5370691765697475
Cr 6.699363995011311 7.025351589526161 10.150338706188535
Cr 7.366519810841673 8.504667663620744 11.878852886433961
Cr 6.0378291924451615 8.927616846317184 6.048229897932423
Cr 8.087408162690101 5.8379563672813655 11.492675418802873
Cr 9.261476185690112 3.9948708164451663 9.459129111165419
Cr 6.896740935111894 11.060663529606364 5.397436878488885
