35
Energy = -275.11180688 eV
Cr 3.8297416725413864 8.224192101851612 5.215222503090666
Cr 8.72427397257252 5.091502185062592 6.806928960318122
Cr 9.508137775821435 7.514227997332259 7.740201730298681
Cr 9.937576010713602 7.103318073999614 10.493561174610225
Cr 7.4898678691925245 5.115218635369144 4.585507125867251
Cr 6.544238264603982 4.395859505407024 7.210360012109309
Cr 10.73797201709322 5.182479987061283 8.75358333888646
Cr 7.694925271640924 7.276323592215999 5.591945627339546
Cr 8.235500111569623 7.762471020425927 3.2604712538283946
Cr 8.505708508335092 11.172147679261956 8.42859777865229
Cr 9.53834473864542 9.318179533956341 9.595997143673987
Cr 9.718282436027286 5.954009570983764 4.279956943357739
Cr 5.850473660966873 8.622452435635442 11.632144452105944
Cr 10.344410680615352 10.075225991588606 7.093993920452814
Cr 6.005328717687611 6.928132385305944 3.433273392672833
Cr 5.381123305517215 6.473950002518286 5.619452426675969
Cr 5.7947909415529955 10.408989650981434 8.87985039683073
Cr 8.604294349187782 9.084625003097479 11.90262589456608
Cr 7.470784285853264 8.293299029649424 9.540478857145132
Cr 6.176127882271142 9.03012190796562 4.835775766987905
Cr 7.822827544916318 9.246410176239088 7.234294864320824
Cr 4.998455224279939 8.122582828087857 9.508988873256623
Cr 8.507256310590693 5.549234932859766 9.257987299424036
Cr 11.618980345360422 7.565498296182509 8.81295272340047
Cr 7.661217143226787 6.890755242850732 11.631096535319111
Cr 11.039297060163584 5.764872565004511 6.602749981590425
Cr 7.236528523285524 10.552396275314402 10.652365208843914
Cr 5.613432384135701 8.469195722812195 7.182275789044901
Cr 6.84276181004758 6.782025103802606 7.75427943582865
Cr 5.135873652555152 4.269790937996274 5.230421312931167
Cr 5.963125198654594 5.875959527007167 9.85241233769146
Cr 10.018771405964126 7.960562632876325 5.455369757320851
Cr 4.317330299422036 5.9413705740230585 7.957456491017434
Cr 8.645180333323903 9.83484111102453 5.005305927941073
Cr 4.4298943399669115 10.456748157562423 10.882728782979669
