36
Energy = -281.53926832 eV
Cr 5.265172932208355 4.609716035961367 0.5901478074426596
Cr 4.1152270088330996 7.048616706074228 0.07337710684648215
Cr 3.5158586398108334 2.789554758071423 1.0658157728280584
Cr 2.998327663386614 5.440540567020887 1.514560960148264
Cr 6.111211819531765 2.2079572872828805 1.849853897533342
Cr 3.913901450730582 0.5533895715233863 1.2501687463511628
Cr 1.1313101377581216 3.8546934073347976 1.3659581435033652
Cr 7.143687169710615 4.506370796568446 2.6561413448055937
Cr 5.41621695183653 6.4437743191453585 2.3261629726574857
Cr 4.672651208664333 3.9245226262731214 2.9431127598175757
Cr 1.807308509477637 1.0701162713569143 2.429311143162075
Cr 3.283615094567146 7.56799186987991 2.6259015078250942
Cr 7.801826404516315 2.039047347964753 2.9688330295951286
Cr 2.2704956723326335 3.579472931859228 3.3510255086965564
Cr 4.244538076760382 1.5691312231478374 3.4860890374414386
Cr 1.229120775923439 5.876176235704474 3.2988517710975946
Cr 6.292533940596604 0.317022062993014 3.7654195717594434
Cr 3.5955280709986255 5.630583458030381 4.080010861287275
Cr 4.010380023460516 3.4909260730668947 5.293568696397751
Cr 5.950231720305958 5.267614394303137 4.796452554603572
Cr 5.100857509398694 7.373039087590696 4.713330997002366
Cr 3.5136772266029106 7.9926542639629465 3.850880910624885
Cr 2.6056559070107137 7.169874986444295 5.324167656809102
Cr 0.511394464878108 6.3901084303158004 5.654345973025161
Cr 6.350144399771597 2.819275302884518 4.362849339024982
Cr 4.816731596519411 1.2746864516123773 5.949674032939717
Cr 1.9084318968794618 4.634723442373536 5.510234003221327
Cr 7.031945235017061 1.4544739748548685 6.044342560358449
Cr 2.204433404222531 1.8041820312423567 4.988559616968692
Cr 4.14499131278104 7.992654263962946 7.114035027300472
Cr 4.135669841865641 5.6142624415372895 6.582894785370751
Cr 6.421360097863667 6.4170629095647165 6.868583435418358
Cr 1.9649962111568318 6.245713954236949 7.64811154491566
Cr 5.941690148831432 3.7295758272433353 6.785352946101256
Cr 3.2210926892326186 3.3976070100127758 7.5223097432660495
Cr 4.603338698766592 5.720087607617999 8.59511814606163
