30
Energy = -228.4298195 eV
Cr 5.98182390038482 5.8324592934851145 1.7475552525936129
Cr 5.054374848388514 3.357276234205277 1.4515953808951967
Cr 3.727567015157374 5.495043974196864 2.642786520896363
Cr 7.394195694267041 7.378354637512278 3.2392996726398624
Cr 7.30863534352592 4.673691118593091 2.684707227332414
Cr 6.265284911162446 2.22689305053413 2.54862841106306
Cr 5.082930532915349 7.126492384246435 3.8697781216358202
Cr 5.0421472223970705 4.297274509774421 3.881551426054882
Cr 8.535581191501779 5.819324177850938 4.550407371229878
Cr 7.226044253534738 8.13039841126925 5.542606763430583
Cr 6.477112479365489 5.785253222543561 5.109360093622507
Cr 5.884595738037162 9.509444754876332 4.13015175004532
Cr 5.276159473858305 1.8243861085830966 5.330500528085178
Cr 3.7099274543377008 5.750354032685455 5.459397007670082
Cr 7.0819605789247255 3.0305259961645508 4.747274186502004
Cr 5.128262567240161 3.747660162776542 6.419407547056061
Cr 4.998063129372138 7.996113736353467 6.147247324763863
Cr 6.735949928152848 1.9567836212927 7.272272589756243
Cr 6.331255437135896 10.233120903643677 6.784938457380161
Cr 5.410439665159438 6.015758011587812 7.369640374475371
Cr 7.537068439580088 4.162939911004143 6.742761173890298
Cr 4.494439398699249 10.04046075260537 7.409828959351533
Cr 4.725503666218276 2.6103954477779725 8.252834163694345
Cr 2.954037954819266 7.21737158866317 7.002297934900727
Cr 6.41217724954807 8.274118186277525 8.353297550926523
Cr 3.64679190859256 5.097191090012002 8.384615173615314
Cr 7.786513804395738 6.485191883811985 7.5377978227073035
Cr 6.312342859283059 4.2074315245399205 8.819141360033168
Cr 4.284560561469687 7.7996810478227445 8.782472784737172
Cr 5.32796863464922 6.0523260673841355 9.919562911090365
