34
Energy = -264.69406486 eV
Cr 8.228854444794052 10.421429845012002 5.459733467040207
Cr 6.155538497701001 10.34464376242563 7.56010714190192
Cr 4.411492468092371 5.228766936370367 2.9512295830993023
Cr 6.921516452995878 8.476414340653804 6.215184163575322
Cr 9.518657673071145 8.38444857454793 5.592841354043238
Cr 10.94679701265337 7.92990130537662 7.684915548813752
Cr 6.819551014180655 8.049610244901594 8.633571368445768
Cr 9.445797612075614 6.947668409861662 3.6308100915382373
Cr 4.761189472731561 4.359609844320785 7.865614575206403
Cr 7.171161068960137 8.51800241715167 3.8483626165560887
Cr 7.692487061315555 6.299011285480161 5.344348609063828
Cr 6.9564147456926815 5.916004045156496 2.9252727041703235
Cr 2.9544126581827728 4.039212970674159 4.0258865507442065
Cr 8.078071752150956 4.447353421148353 3.9387706883690803
Cr 5.112729946978252 6.80209363314603 6.758022124790783
Cr 4.996629101821133 6.35210416918139 9.38442296421444
Cr 9.5224459730279 4.965743120094009 8.719711677502374
Cr 4.438092390071615 8.712506509790478 7.778490106097889
Cr 7.152519803678819 3.7605345131671517 8.98665106365139
Cr 6.748608917695894 5.579300027862264 7.4931607975202015
Cr 8.617320899553528 9.321002472730658 7.896304650866192
Cr 5.4142270156805825 7.22685454854009 4.326506966283649
Cr 5.646830351995828 4.703617409414429 5.133137891773128
Cr 8.643481646878701 4.196633704387823 6.645229821491703
Cr 8.873236202702461 6.859806824755813 7.642794910256261
Cr 10.181650258712839 5.730374285645079 5.9912374704726785
Cr 2.9597620053981397 6.4124052887766405 8.367444641064699
Cr 4.672370304516152 9.12986711169819 5.431532785792325
Cr 6.404258382631535 8.358795515357102 10.607060517303754
Cr 3.2705347646395015 4.8364582376054015 6.429726379013858
Cr 5.037864315048837 4.586390414838655 10.618324112126048
Cr 7.577984611037183 5.902338180267159 9.969612543278751
Cr 9.07914995121331 7.616508929155071 9.98522956911847
Cr 3.2035746364722524 6.744646498255351 5.071538275988166
