34
Energy = -267.1942667 eV
Cr 7.132886684796401 4.1218380412993225 6.668116468147704
Cr 10.49215301701602 10.355932946671862 8.438369980021248
Cr 10.674896991567664 6.249663829580636 6.860067152107898
Cr 9.544279627229837 9.399092517445007 4.726066014858617
Cr 6.166881140922644 11.005774407789799 7.601082025698877
Cr 4.424296838190862 6.804864644733242 8.68945069387587
Cr 5.309701643774504 8.333663136509376 4.750158901728712
Cr 9.52868229667318 9.949656011098046 11.12671159822464
Cr 8.346494275704638 7.8635763740557305 11.787822910665946
Cr 6.4877337559964445 5.007977126674766 8.69216438873165
Cr 10.905443963695822 7.432819035676507 11.326640200918295
Cr 10.81316090047053 5.787366023948506 9.322674466362702
Cr 7.350818161269038 9.935500810092936 9.895493527788675
Cr 9.115585915903264 4.187628237233714 7.995712869020028
Cr 9.552948667105438 8.23015028476818 9.445414004262641
Cr 6.155538851948221 6.279819091909212 6.220355055957392
Cr 3.6358567748090196 7.2795625993711335 6.091094185079159
Cr 6.903834237083544 10.038355024889626 5.531096145201739
Cr 11.801372127312241 9.466224711189192 10.373712178381629
Cr 8.967789428104501 11.081649615580792 6.616318865264932
Cr 8.09527086341248 9.12042060193753 7.7281582729625695
Cr 4.288582997297434 10.002383678724062 6.337648386972016
Cr 6.872638632351342 7.725632621432982 9.733613450907175
Cr 4.361346430010007 4.994267072981707 7.170879008445472
Cr 4.908567645806411 9.67996225255987 9.162086522975688
Cr 5.831503595594713 8.245042546639226 7.430589181392366
Cr 7.91834255641034 7.867882551652187 5.5371487662403025
Cr 8.786616712183061 5.8968527872725875 10.28712937496565
Cr 8.608558792900833 5.576673144595723 5.328323560654028
Cr 10.350296045819492 8.536742221861111 6.843457964223448
Cr 11.896727468345643 7.898160211197638 8.646058128037218
Cr 10.370582602027774 7.020371978273037 4.527412332655025
Cr 3.1151588455847197 8.655173507713343 7.819510563918683
Cr 8.252594256583395 6.45878638546076 7.804902440398004
