34
Energy = -194.42197823 eV
Cr 5.269505965800136 6.9993804980530285 4.573282285235687
Cr 8.618923042849163 5.494953833528769 9.990512789942175
Cr 10.403604404048892 9.139959076419816 9.767980980317473
Cr 6.034928091030592 8.595223478810926 10.199155541522584
Cr 4.601072201607027 5.055574413811725 5.546155557590204
Cr 7.959146470128106 7.892678311476485 7.129125954634947
Cr 8.774381323293126 7.714674312178467 10.820147358684423
Cr 6.990600044174871 6.845502659276266 9.062454362810486
Cr 12.649523867461488 10.330998095040856 6.490414374327306
Cr 9.080269084773981 11.165412077977544 8.50948674564162
Cr 4.341519843507386 8.35326587294961 6.290238410510503
Cr 5.96005259696804 9.026415341457906 7.843895955584876
Cr 7.744988889597199 6.4961169177957885 5.300917244296451
Cr 6.891363870517402 6.547821678111098 11.358029539992609
Cr 6.678126327644222 10.889779811841157 8.950206762632002
Cr 9.952796056785855 6.9594388104672715 6.309158261400847
Cr 4.59451115218684 7.276675502924437 8.74714073103608
Cr 8.372048295079358 5.593190059291884 7.511072336607448
Cr 8.923025067594324 8.976577417541812 5.243661560307937
Cr 4.790458938102265 4.973494618013826 8.000730937149093
Cr 9.847694309692573 9.178015085181814 7.468640205205166
Cr 5.199249247862746 5.610694316998531 10.218719409775561
Cr 6.830869115635724 4.458492189421309 8.965532301729803
Cr 7.7314573943235105 10.327881248899315 6.816411363583342
Cr 6.611498417534092 4.478072975296027 6.54290410763788
Cr 11.41215018670206 10.736462418103438 8.309685798972103
Cr 8.10704975940529 9.167062286806592 9.216977172929715
Cr 10.313338128996403 10.946893685989727 6.209542257135844
Cr 11.922288925096884 8.47688312843037 7.896220819600093
Cr 11.238441491664885 8.833201758425918 5.620244803005608
Cr 3.3857126063053316 6.4337199701624375 6.855119199442452
Cr 5.888452122685214 6.678423719773184 6.807709176161754
Cr 9.777283419356984 7.125261499387635 8.723852176201264
Cr 6.5981247127787706 8.663730245819805 5.409558925687515
