35
Energy = -274.51985269 eV
Cr 5.950714243532967 3.29120343215278 0.9854802971740756
Cr 7.157564311379727 5.014752068488299 1.152351272699895
Cr 8.22221740970065 3.3344556618550385 2.5984066804858474
Cr 4.430185239976296 5.063277170745708 1.3383855146461339
Cr 8.176068343852128 6.034399079877015 3.294184429734815
Cr 5.952619686978149 6.962305231446277 2.534393699462478
Cr 5.99480532975611 2.2368059563526823 3.136263308929337
Cr 3.842879677241702 3.4329815760160116 2.823100257371584
Cr 6.217907489169634 4.4588404769425845 3.8040652469164953
Cr 6.692869260982569 2.322720793628661 5.543885924804306
Cr 4.238377771615228 5.605022284958552 3.8139969282032524
Cr 6.67138473768522 6.711430050608273 5.256153044521117
Cr 9.369040936774404 7.054618290979437 5.458702494632169
Cr 7.148317634498404 8.643012945697391 4.073296540349927
Cr 4.362742541685307 3.1627796134846324 5.180386956490875
Cr 8.700550141602898 4.761589860348748 5.002822387414121
Cr 4.528481954204855 7.885955134699306 4.634719910101693
Cr 6.808231493443994 4.5450126053589965 6.279438799104215
Cr 5.5313433781969055 9.088330026135623 5.971015311127607
Cr 2.1417008542576306 4.506958199189729 4.797346878245324
Cr 8.451343637536008 6.130488569133201 7.374301274362314
Cr 7.448031040789373 8.299612204439953 6.908599193722277
Cr 5.464370734963479 6.471355113556256 7.8232150985649955
Cr 2.237301631860443 6.529529028543167 4.978531821364748
Cr 4.394072192670599 5.317830131166803 6.091926223544225
Cr 2.8522625277411655 3.216509656008716 7.078439096063657
Cr 5.159005821142846 3.3827889378812976 7.792336961651466
Cr 3.3975571951217733 7.621235880625574 7.033004947851495
Cr 6.783680438263077 4.761676532662063 8.912118312473519
Cr 5.598368199207715 8.645281387024108 8.732123018085876
Cr 2.126158215243447 5.42352620095221 7.377084870877567
Cr 7.4311648788162294 7.345455111404957 9.51942684241299
Cr 3.458744964542706 7.392959492549559 9.39227098824708
Cr 3.883946705035615 4.976486153560729 8.899070961626814
Cr 5.49880763270667 6.649453660989295 10.554462773620719
