32
Energy = -247.24771568 eV
Cr 6.720762780494918 7.483557092905223 10.159056155799306
Cr 9.848556371943841 5.55275959590547 4.597451345867472
Cr 7.367654562918157 5.944344019480572 3.1719838620164227
Cr 8.269836660689947 7.008127124982857 5.758107453930213
Cr 5.1621903906664 5.940260950871928 3.508398306597334
Cr 8.183656617804445 2.049976655764569 5.231552092726185
Cr 2.978034705987035 4.633036421062309 7.4689060516355665
Cr 4.9355171146031385 6.331493923361618 9.677463968938376
Cr 2.4082863171455577 8.635627148525158 6.274083204011784
Cr 7.275380644751167 3.3887126853517393 7.409609205777702
Cr 6.006759637702029 6.99287375538297 5.378205501544587
Cr 6.01486981005026 8.502784550680934 7.846823745676282
Cr 9.055357448080919 3.932234938041778 3.404488660519782
Cr 3.869223645733736 8.795662004884559 8.551172470806243
Cr 6.367691088288838 3.553742141289341 3.7883923091651646
Cr 4.69121625514065 9.01223535922391 5.669047946414586
Cr 9.063696582543482 5.25043458187879 7.497359559830101
Cr 5.287343058217637 4.089198835458664 8.329855041868802
Cr 9.72274244275519 3.243135979447313 6.06589294776236
Cr 5.714212597868584 2.3374856213662443 5.989358707140458
Cr 7.253893299520747 9.399529170765312 5.821990490449607
Cr 3.7113806532650573 7.964945389435235 3.955066443823702
Cr 5.153496213811943 4.677468201427101 5.907009353064748
Cr 5.884945213732301 8.542558202107282 3.1529371989090635
Cr 3.996460820932445 4.027360898758768 4.288105882068295
Cr 8.131093581459105 8.3501375124305 3.6365410114640433
Cr 6.644602046685511 6.0457310936217805 7.774430854320186
Cr 3.122012300603136 6.278250038726706 5.19064044209034
Cr 1.7207414221412043 7.0444936916556316 7.614118547630114
Cr 8.250019506602706 7.824713552269709 8.078326139454628
Cr 7.505032823093929 4.66872050750987 5.449923482854969
Cr 4.170008217225154 6.570830998737443 7.345773503171504
