36
Energy = -282.57874004 eV
Cr 2.925544176141833 7.13273067009634 9.818615110736157
Cr 6.6830895209462975 9.416940237746138 8.190693141693528
Cr 2.7940059305250187 5.208905515347248 5.512205730739511
Cr 3.9499636887265033 2.719124744648664 5.346476317470523
Cr 3.553758570601525 6.78894170167766 7.203002993759186
Cr 3.9261144775949393 6.230939781523184 2.434670186984679
Cr 8.350086306798827 6.470103951980743 6.900738162854958
Cr 6.398127259352195 6.387891963899692 2.571372298569538
Cr 5.2103450974944465 4.769772126700603 6.36181331893122
Cr 5.68715260657015 7.569138671770713 9.531566109667798
Cr 8.969822758595155 9.012639977297221 7.652665576686761
Cr 6.875706616088449 5.033600187821073 8.669904129227625
Cr 9.324788519882155 4.681465960716256 8.523061913619808
Cr 10.733988777140034 6.672524829218058 7.744288316193294
Cr 10.055976957785013 7.928228595322571 5.611985808298473
Cr 6.247423286577984 2.3875440772233816 5.126705485481201
Cr 3.11367847369048 3.7767923404862715 7.588415673200725
Cr 4.390988488575255 6.907858050186842 4.6578464903123775
Cr 3.826987673067623 8.885961978166668 8.293782918736008
Cr 8.975347836231979 6.140325165948141 4.2350549763356815
Cr 5.9660519138157895 2.9965692459156057 7.518882264407812
Cr 4.4350150970924345 5.299991602901903 8.94644471167249
Cr 5.261207406635387 8.93721953445616 6.1975989235108395
Cr 5.690038232330622 8.557266841020477 3.7185737983920832
Cr 10.21914540206917 4.888840341888186 5.92500572991163
Cr 1.700543240431447 5.75842583605211 8.22730509084095
Cr 5.876313530880754 3.9345144544019597 1.753606598366173
Cr 7.586356702786218 8.224764146432555 5.581804509268142
Cr 6.658020035320329 6.246268141269825 4.902418466374937
Cr 7.298585898516809 4.0395002109133955 4.035783433100212
Cr 8.079901216823057 7.129782108890456 9.08724974707346
Cr 5.95183465918057 6.93458480991965 7.266769521216935
Cr 7.902975888569093 4.240995562226314 6.233562097289576
Cr 4.742386555035995 4.353526391445585 3.7681672890359517
Cr 7.283126370235324 10.509554820007734 5.738139897041958
Cr 8.260518966446211 8.119934021658528 3.294330403481451
