34
Energy = -267.02086494 eV
Cr 9.597619516763691 7.300277599659331 7.044690263868506
Cr 9.879300843095848 5.016685441684374 6.3749212572866885
Cr 8.725686400336716 5.987002164428349 8.748284907323168
Cr 9.35644049007057 6.510470690127523 4.445866107049693
Cr 7.763444524666114 7.978871025747275 5.64330832260516
Cr 8.025566373877098 4.12917175653418 5.128973428028115
Cr 8.406847518016448 3.7007365958588525 7.811480118399035
Cr 7.14189924009382 7.754401093943097 8.16185263157854
Cr 7.419563799497132 8.23430785501228 3.195571708476237
Cr 7.287054841676069 5.7974808886280425 6.553048919367362
Cr 6.458901582284042 2.128301875118232 5.746004860164853
Cr 5.531279609714297 7.079008499391244 4.7305994182606526
Cr 5.364884986015056 8.278971477760697 6.647745120010111
Cr 6.537350384252081 5.267954345979391 9.19626832250791
Cr 7.278509379749125 5.774611773537035 3.819458796293785
Cr 5.761451319866889 9.589245041210845 4.508817712206216
Cr 6.782645945057719 3.018961261387803 3.426844260426878
Cr 5.874630808613415 6.975698914623834 1.8937472148426988
Cr 6.088166114563538 3.643916203287028 7.545238351413935
Cr 4.550842925515708 7.298208031348691 9.308631175284283
Cr 4.670555101766968 2.3292028140737853 3.6474780084933687
Cr 4.6704854501340565 8.671632378510626 2.609473176911971
Cr 5.101326775523613 6.126984805758076 7.312522594258584
Cr 3.155141238572491 8.006060695391522 7.442444283432429
Cr 5.2323704614487685 4.486115849796633 5.177665769338595
Cr 5.15652274641959 4.940957895521096 2.9013816334956695
Cr 4.0999180980217345 4.884998131448568 9.468391926995075
Cr 4.098517013183159 2.140317954401988 5.9353463296609394
Cr 3.411149319462285 8.851090300711386 4.960417582397123
Cr 3.5353922191948413 6.639808919009164 3.6021780723347745
Cr 3.723225736378347 4.038801390738199 7.235010462401225
Cr 2.2430291308253953 5.980987867160233 8.369704708807822
Cr 2.884177163058061 4.153609496032976 4.626209624605493
Cr 3.3281588986652153 6.337839692921441 5.9520549141309385
