37
Energy = -290.912534 eV
Cr 5.471456640743144 2.6830132069640027 8.527663770477695
Cr 3.2458760079671882 1.2567579772609563 7.177192019626385
Cr 7.530779530851494 6.259391835639898 5.484910151031506
Cr 6.376705804426608 6.562300669375226 2.867392765496813
Cr 4.6300534463536325 5.8999503809916725 0.742506621478772
Cr 7.232145097389605 3.4092323681663004 6.116923833648689
Cr 3.92752006101874 5.668637030548997 3.2223312650834366
Cr 0.7818831100466489 3.5174164500710026 1.5809357502585273
Cr 4.771757133428153 7.151385560295166 5.132914662249544
Cr 3.9906704473528642 3.442865178216335 3.8958134926531702
Cr 0.890710676113356 4.889283063508277 5.97517729330837
Cr 6.290480689095102 2.34307160412432 4.120485429174951
Cr 3.9114398263405747 1.2580800244682284 4.586618344414951
Cr 2.0623085598863113 6.960795229152621 4.421724187875852
Cr 4.776410517578223 2.9530570299654526 6.387513962202235
Cr 2.691617809752062 1.93527016946047 0.5758649579059925
Cr 3.369080821470856 4.986968943150192 5.52188855762979
Cr 5.315561713618147 5.328113270217311 7.200173679270902
Cr 5.808332621111306 4.299230419962762 2.152156318120659
Cr 5.170748796956361 3.266079214778125 8.527663770477693
Cr 3.2078699253576364 3.95020702687141 1.3900133260464054
Cr 1.665687658206003 4.538352615552497 3.617903789521547
Cr 6.095287725493728 0.917445644570725 6.196657764461149
Cr 5.894192668707397 4.955926663185486 4.776265337407533
Cr 8.380593131973331 5.582134636917816 3.4045242706316743
Cr 7.835353931244008 3.998833820675454 3.3973682050311655
Cr 0.10109850208075956 2.776832591165195 4.220446226506037
Cr 1.9494990726017265 6.112274923567853 1.6671941818207998
Cr 7.332889921377311 4.509854931702591 0.7801769220063646
Cr 4.831114858902499 1.9962523984817198 2.153317398328126
Cr 2.1297715187545565 1.9746241306093408 2.9600087008791256
Cr 2.1453316027729774 2.7046743590992137 5.681537624496426
Cr 7.067141640631105 2.425076290400873 1.3901316272919912
Cr 1.435286653187264 0.6995459987616689 4.996750437666228
Cr 2.963757081632333 6.609888881783912 6.888627180917257
Cr 2.883429521818069 3.936881838042801 7.753743669772802
Cr 3.9860515455236816 7.742478120174194 2.6573787765950687
