36
Energy = -283.26237176 eV
Cr 7.091841206615074 7.979161084206771 3.0436015336842557
Cr 3.901489504293357 5.009369727873491 4.70494132677866
Cr 3.2025187436319555 5.69295810551642 7.501750035005248
Cr 7.15141081819188 8.963837958865778 5.58189168485468
Cr 6.697110178440438 3.343042194625526 7.906849531081715
Cr 4.744495776341218 7.397167927268386 6.149613461312522
Cr 7.794076865669899 10.259494452686608 7.81290807390995
Cr 6.281135539205935 6.258155895702514 4.380795202208636
Cr 5.721720770521496 4.975354778545028 6.6388338877278255
Cr 9.680951534388571 9.320136109073832 9.907251275615229
Cr 8.785705238087685 7.034689701074839 4.490992721115727
Cr 2.5820684231531326 7.247390686741474 5.486406811788553
Cr 9.478755461660457 3.8916342106464867 7.871616586806441
Cr 7.389729317991141 7.371116008555585 10.211302210077559
Cr 5.08053958294742 9.839885969218763 6.7428346601974845
Cr 3.504067041970361 8.08659679272586 8.282787869713509
Cr 4.086598396003705 7.352306084769587 3.3335156192548037
Cr 5.0233131406402025 5.180519210148076 2.629133374803842
Cr 6.056591805162653 8.546312197101704 8.152873880078197
Cr 8.687346002446732 8.070480120284698 8.276627292962061
Cr 7.373148279311286 6.8171466942220045 6.606502315096938
Cr 6.015704507298486 3.627496863231171 4.87680189424513
Cr 10.663399516687702 3.558862033849274 6.069698341961867
Cr 9.853021020666437 6.247878041827155 9.378955949851912
Cr 9.904392741600725 6.1588350764088196 6.872206966174781
Cr 6.498009229979981 5.065051350292033 10.724613570820539
Cr 8.153085076980016 4.558447394599013 5.742979350928512
Cr 8.033675613762425 5.0510882157414585 3.3295900671790055
Cr 5.363298521208605 6.02523007277754 8.672547774557854
Cr 5.1900866205594 10.469025880347713 9.448888293369327
Cr 10.476873362586415 5.374719439410342 4.711212105984721
Cr 4.96702514708443 7.7712505715356155 10.417913338736293
Cr 7.336174476698144 9.822074470049357 10.162557499992113
Cr 9.622871433159638 8.514027166497002 6.201013198736879
Cr 4.938446157520824 8.905537156704142 4.346530664553405
Cr 7.833431651089901 5.377829060433314 8.495570332392349
