39
Energy = -308.02283768 eV
Cr 8.310081027372874 5.209977965017843 8.331001692365575
Cr 8.888115777894185 6.9823570763060285 6.875932672551489
Cr 6.12331660785843 6.147908683658197 9.4855054455224
Cr 7.1366093118553975 7.804466101144123 8.303191421162929
Cr 9.860454897201278 4.180923684245245 6.662241817186541
Cr 5.106522367698788 8.777762893400233 9.513547075435781
Cr 6.719945210607124 3.512864456293023 8.489104975241936
Cr 3.6740935422959615 6.9119944484037505 10.06929500023594
Cr 8.850859574436184 2.269870020758035 7.873929355352662
Cr 7.08224553176267 7.570952764041203 5.370033303681926
Cr 8.465634944339401 5.535523021506502 4.603837105666731
Cr 4.5730426272649005 4.8342962494634465 8.570500941584047
Cr 6.293463098101208 5.644004674273833 6.7412068244226875
Cr 5.9265992561741045 9.27980115230252 6.746792153205427
Cr 9.676940121534074 3.5683547284308395 4.139087702786137
Cr 2.4114914797321467 8.340406505351188 8.902566270047346
Cr 4.507912044049702 7.387477364085967 7.450861849485874
Cr 9.451693455777272 1.6513166566939712 5.663730321924806
Cr 3.7865803332288936 10.022358542365204 7.989209032504468
Cr 5.079540803861282 2.8946096091719933 6.925385044775575
Cr 7.563972760989873 3.626887923564316 5.934515027760295
Cr 6.8010059269527 1.4960955599723804 6.5347704124355985
Cr 2.693712717357045 5.890521194668499 7.440216625945708
Cr 4.152692913551792 9.96973775868139 5.239358548257733
Cr 4.770008468435386 7.3119286346418955 4.9523809629634545
Cr 2.641848306244243 8.436135619529761 6.216617936326153
Cr 5.7954933806865325 9.42815643279488 3.7236175825650673
Cr 7.5307458771438 2.603195375488083 3.842998779026413
Cr 4.190446436101443 5.115134874322753 5.826383914472815
Cr 6.963586450391718 7.186751761048619 2.8475084040038325
Cr 7.6928743766172465 4.585940645582308 2.082350036403091
Cr 6.26598454419294 5.165304309700283 4.0235367480697
Cr 5.029511227151702 2.9669245111186644 4.724572018902655
Cr 2.456436950177947 6.761899936660243 4.580461921886121
Cr 2.9450451073487254 8.953437176657033 3.563873572409183
Cr 4.493477176997287 7.587274799396518 2.594813494973443
Cr 5.616827614424644 3.0996373260887977 2.3609473264512233
Cr 5.860029237604809 5.6400212844777124 1.3091452837209547
Cr 4.059913330939754 5.132190021100154 3.131031163818847
