30
Energy = -229.58278818 eV
Cr 9.390101085764664 5.135419557414269 4.646162644711384
Cr 7.297759184302886 5.883635585095484 3.8909181764004077
Cr 5.75805261302243 7.4138222284855715 2.2870408416551307
Cr 9.176440725024444 7.220573430852885 5.281626878828005
Cr 6.325169701531171 3.4000560094701195 3.2148210234703414
Cr 7.5912906067820085 8.217568860064388 3.730891565974439
Cr 9.531356754462935 5.257356611302787 6.890364954338836
Cr 4.909522965729425 5.304018311038321 2.9831395489399424
Cr 4.200862215490373 2.8362093215579365 3.3011588879062432
Cr 7.63121355142263 3.7559196213176085 5.75590159362326
Cr 5.610615200604515 9.32494996643196 4.152044470696281
Cr 7.4806861737893655 5.871101093453016 6.251468128588468
Cr 3.337115193740641 6.9472635037432395 3.765990716355854
Cr 6.099002156513516 1.8963598855292336 5.134855509971899
Cr 5.409257748933663 7.263908320288822 4.784516246952438
Cr 5.9150721944053215 3.81372135804595 7.214832867550615
Cr 6.837710862733391 8.379791041931387 6.246427595036772
Cr 2.977872891655958 4.2626978214483096 4.4489733198749954
Cr 5.185156996107349 4.605406860203503 5.108122662886494
Cr 3.78986076717176 2.388985684277438 5.958581284292284
Cr 7.866818388526055 7.291445344003766 8.362479137285893
Cr 5.28505512451321 6.358898778141278 7.286276284392017
Cr 7.356979317823767 5.071629974121153 8.525195560488687
Cr 3.9643312681542966 8.4140160018911 6.223953224565842
Cr 3.1988366123353447 6.2102186205281455 6.124666029315516
Cr 4.855645687982812 5.291926549479507 9.306166028032223
Cr 3.477521098017649 4.391370955485235 7.354677090068578
Cr 5.237282658494471 8.56008123312244 8.150343840091649
Cr 5.938619983183315 7.10321508958068 9.796124053926933
Cr 3.4223560057368965 7.004345351269007 8.554357033198789
