31
Energy = -242.56009908 eV
Cr 8.020312711776956 4.658042933446352 7.7169168782352635
Cr 8.780553026522913 3.077945655191818 5.733075400752334
Cr 6.459603738487917 2.299804958361031 7.507207621253694
Cr 6.360934467260861 4.473297963544445 8.859102007076844
Cr 8.937887768110777 7.101530927978509 7.212777530270447
Cr 7.018341856303958 6.774202724971329 9.242131119956335
Cr 8.49401550196173 5.639191961916833 5.390200221534728
Cr 6.884584045497091 2.120883924347026 4.947568007265641
Cr 6.483988465750262 4.303154475376629 5.986373565458054
Cr 7.628153534568287 4.267336591193999 3.626685993013691
Cr 4.332559949446894 3.961447700269125 7.2868101581676115
Cr 6.233722012224763 6.569051688970154 7.010818107810414
Cr 7.421033002167754 8.921205193689664 7.027481991119425
Cr 4.344374107781648 6.056056860105473 8.401487304838092
Cr 4.413358681402579 2.6589600851660933 5.270550385689108
Cr 5.146668262348715 8.692404321509663 8.197339069661165
Cr 2.0885385800797356 5.616116888220434 7.2215636451527985
Cr 8.223090728194826 6.643549816123488 2.5910844828649533
Cr 6.076341900733671 6.378855843625562 4.231687888838422
Cr 4.21978242428858 5.6351228809975344 5.60459715096109
Cr 2.1266322305893417 3.804188738793093 6.14693626315699
Cr 7.980133859663888 7.8626711800303895 4.755172930638557
Cr 5.3211124965337175 3.993379715012572 3.423048498462885
Cr 3.594247199043978 7.684002644890706 6.711707724762852
Cr 2.6414922591775527 4.339595744137584 3.9403234758328693
Cr 5.447269653960675 8.306819680851532 5.485696914449542
Cr 6.307070054067911 5.529980859012268 1.682976487723481
Cr 1.8259245635303019 6.397163675670699 4.9185476605335765
Cr 5.909226270239738 8.144439188115813 2.7171564967554365
Cr 3.552549795681461 7.986793595956313 3.968199585195769
Cr 3.917455202785439 6.050834680278943 2.89940025075994
