33
Energy = -254.25756844 eV
Cr 3.4797285010090384 7.957593090034126 7.007006110639642
Cr 5.1977364001792115 9.145117864235484 8.07847538951832
Cr 10.42815864603771 8.629811267361283 7.605453149401128
Cr 4.5605503403941015 6.5748091801245385 8.660800177333403
Cr 5.41012362025203 6.334976198626777 6.693686821543999
Cr 2.4135736108047348 5.263233076416283 9.191617276742813
Cr 10.869972130370398 7.224989408116609 5.696510529483031
Cr 7.178704918588918 5.444142317307991 5.553758055967689
Cr 9.12819356886113 6.016797066285885 7.863082701142325
Cr 9.6977559898464 9.289803130036658 5.005806951773016
Cr 7.661005823279761 6.63133502272585 1.9890168783403945
Cr 5.0921623777430405 10.523499492415223 6.21631295030691
Cr 3.1044076894350625 3.615323757354711 5.090652961433048
Cr 4.2630794150723545 1.9852268905554855 5.72633165405367
Cr 8.354468115177692 7.73376108945939 6.509468971628337
Cr 4.652487479607663 3.962461092377343 9.059820135371488
Cr 8.505094810180866 7.439713080292855 3.9777662423154703
Cr 6.143606456230883 8.148411970968299 5.515934666904896
Cr 6.834045978671997 7.60661289328227 8.315248588420058
Cr 9.664238586957923 5.511402536171393 5.137376784103081
Cr 7.786840598171455 9.933987090192868 7.1987262168712824
Cr 7.849121136194339 4.844782614575912 3.487564585874415
Cr 8.945106202594836 8.39843649062974 9.105069050433116
Cr 3.203909456416705 5.213574126768785 6.91160313858284
Cr 3.0515787652896154 2.9562190730990463 7.656337950372884
Cr 6.727768636429495 4.989306941923161 8.18221083108017
Cr 7.949752159811539 3.758617202942686 6.686754962036953
Cr 3.838023587567163 6.282199684916802 4.676263047830835
Cr 7.586456481092709 6.064064843302298 9.907899111221306
Cr 5.914756112226695 6.709622029375884 3.7569104379160656
Cr 5.388057201288945 3.727342987290771 6.661045605996579
Cr 7.36373179071455 9.877831273335227 4.767731829528521
Cr 5.255537318255264 4.4032010502638155 4.517238459246566
