30
Energy = -229.15288339 eV
Cr 3.2248266378483197 4.8522882146892075 3.340439130413541
Cr 5.090086800689546 6.709804112015999 3.451783624529226
Cr 7.364936280069004 7.805295867196153 3.5186368923271276
Cr 7.712245519495593 5.88851074364345 3.5795657783025105
Cr 2.375701458394563 6.535154368242488 3.7903252851957827
Cr 5.707808298359328 4.709838501369378 4.534842053871498
Cr 8.9043246547165 6.821004155192685 5.488583148955355
Cr 10.18274371799585 5.027120419770866 4.947819716177368
Cr 5.5040849426289835 9.168627079479503 4.665095466138975
Cr 6.345134445415304 6.908266876003688 5.731163643279514
Cr 3.930063314645808 7.935761715978592 5.256426898922372
Cr 4.048574077922636 5.59720379410717 5.727743095465788
Cr 7.778708754271983 9.296676182622026 5.664948615000557
Cr 7.745965968689866 4.63490333752088 5.9117208200496005
Cr 5.500867745933114 4.395419943362133 7.243966719239443
Cr 7.132742704265297 2.6741209766465284 6.193681539077524
Cr 9.671181501282952 3.6481964283318176 6.990080106524079
Cr 3.9691972741050985 10.3787325490574 6.374131834247097
Cr 5.802310127773494 8.66337136374437 7.131160294767843
Cr 3.2148651812232827 9.027844039742519 7.62633408549401
Cr 8.298026011585618 8.4027495989746 7.386654172571912
Cr 9.616405189407763 5.857129303324869 7.534155785910366
Cr 4.602532251050626 6.844593483467757 7.612517926489588
Cr 7.312163712152844 6.216170077980828 7.783229814684814
Cr 5.553296849018879 5.173962111299252 9.063294346368862
Cr 7.691620641152375 3.719140249732462 8.33052197808415
Cr 4.818225739985976 8.809257362005866 9.624112286924356
Cr 6.484717877188658 7.734752722959555 9.46309139997664
Cr 8.351184384704222 5.800172450179695 10.007410768304416
Cr 9.754486107205354 4.4529601405366375 9.715590941883589
