39
Energy = -305.7333375 eV
Cr 7.774536410867347 3.412338897364887 9.538706105325303
Cr 9.344549895123269 4.816676270606154 8.4283744080018
Cr 10.659956071542537 5.8677358443563294 6.177813584380261
Cr 8.510656880181632 6.753200910146474 7.771408793674136
Cr 6.957206294191049 5.387373400921672 9.641768807865144
Cr 6.849599246209417 8.560783703359103 8.146310450317019
Cr 5.362932109197084 6.60950930680421 7.932247075379019
Cr 8.558586374566124 4.9589104993276845 5.725308670712923
Cr 8.06721183715729 2.982543477722174 7.188247692499829
Cr 5.685275331279669 3.0101138975772366 8.78192631465903
Cr 8.695014371866373 7.463148643337135 4.918063128110545
Cr 9.46625215382929 5.033809168819057 3.5355007268649405
Cr 6.710739519873282 4.693116219666329 7.591561558878778
Cr 4.630370186445221 8.634303151520557 6.491652706373216
Cr 4.199410435472669 4.894593939651306 8.868603555989775
Cr 8.323879171502309 8.99723847261507 6.738762813324328
Cr 6.189485909858678 10.27992756530862 6.09303794775057
Cr 8.129829299697006 2.6314211464427917 4.580303067400946
Cr 6.700420743456621 6.910500983588928 6.114132497221083
Cr 4.0651759487197925 9.78284670183645 4.52848044711954
Cr 4.771128271335586 6.994958495442824 4.741513961060642
Cr 5.766709386882268 2.557763042359932 6.319192685397975
Cr 2.464456374941117 7.897846077673633 4.8467425466606
Cr 1.8097530121151857 5.226552997428796 7.213606249653119
Cr 6.270446572728963 8.719796922325482 4.198467629437275
Cr 3.453881936229113 3.2520755745103505 7.324385851003739
Cr 6.350371396847916 4.535972695551668 5.018764958063329
Cr 2.959016664664323 6.907966663545878 7.2062160489820295
Cr 7.243309980195638 6.215238281772336 3.631662799327195
Cr 4.389505237880815 4.976559151987223 6.273188992737386
Cr 6.976090562615121 4.404369612604626 2.281476637387186
Cr 3.7672588345799585 8.473300408373518 2.5515652153712636
Cr 6.223665309056924 2.334830352689783 3.5616347446452994
Cr 5.656723893573323 6.893391115027298 2.054028195771622
Cr 4.118301136861197 2.9351819171597198 4.614080035882102
Cr 0.6032841462018782 7.149558796399154 5.621555133742874
Cr 4.724578356209014 4.903428916842369 3.359169206098562
Cr 2.8581474526899213 6.571147351094084 2.687464235735987
Cr 2.5118999576385868 5.193577680716538 4.811248063948131
