33
Energy = -255.93000127 eV
Cr 1.9144109125406532 7.063820417670838 6.090872831772879
Cr 8.544272644862952 4.793498666441858 8.886460395708282
Cr 7.145375124552861 6.819252641364183 1.9374139360110296
Cr 7.650065884844921 4.27085601053876 6.391654375705266
Cr 4.096293504166725 8.864559680701944 5.429089193226282
Cr 7.668387816518149 6.970205305384636 9.343557474178958
Cr 4.504909497038469 7.259636884077941 6.962253651489122
Cr 3.5843617125459915 5.050756346011612 7.736565941950274
Cr 6.083772212706963 8.29487480443488 4.040840409602871
Cr 6.563735255722439 9.201467687592915 9.984889260389448
Cr 8.521121119446809 9.283748557335429 8.438218007621204
Cr 4.780159863840152 9.86521875835802 8.000048689178547
Cr 8.18957557637955 9.020435556680662 5.706946738988133
Cr 6.5074601155240295 8.493639165968919 7.403678711334262
Cr 6.125709951265932 5.812094767790468 8.006036640561454
Cr 5.613176783339545 5.910657897933941 3.2391207696677577
Cr 10.399240848704533 7.081775563936721 5.33563745013315
Cr 2.7361049178447803 3.8747182659902695 5.884329653238921
Cr 8.787920157727537 2.515331773950306 7.8484967951034665
Cr 10.369249909630314 6.804866614007835 8.406259899280508
Cr 6.455154716545338 6.659114672223143 5.54613276937819
Cr 8.411481734872469 7.632053369885835 3.8611255800993565
Cr 6.228198972902448 3.5447118770817334 8.286203928491581
Cr 3.7283711254755207 6.1206467382929635 5.126972015992889
Cr 8.07068877502971 5.3931488677163655 4.365724849927144
Cr 2.8804974998679893 8.186000576297156 8.274474554668842
Cr 5.370964036887776 4.504148711736458 5.635838826114654
Cr 9.885620315771302 4.678596072230669 6.6350380767704795
Cr 8.551394900529614 6.8329448627155 6.946680895021379
Cr 3.4622599553243636 7.600196985095431 3.4019123909508697
Cr 10.352177358763116 8.864198338319317 6.8829738497382085
Cr 4.981764630981271 7.436952548460257 9.549865980251777
Cr 10.876026917891995 3.453203281425897 8.538694262916502
