32
Energy = -246.57965113 eV
Cr 8.568129323318567 10.92425980020352 10.11659419112875
Cr 7.263528024678611 8.387592689566915 9.422000366467968
Cr 5.956834071217329 10.386895925439124 10.522793203575215
Cr 9.604980757075094 8.832404142797044 9.165774355782206
Cr 6.5954746010362095 6.4524041797028415 10.684484122631698
Cr 9.494800467664078 6.445017339369217 9.436655870699408
Cr 7.492592934660031 10.179190904697187 8.123602461071895
Cr 7.3937324023252495 5.683758009270758 8.565229428378176
Cr 5.437903745908245 7.053981976678603 8.156411651880909
Cr 10.601170106755962 7.501773722022579 7.365953611802569
Cr 8.753439005297205 4.049794109470893 8.900359809061221
Cr 4.851559329685635 9.731561107810641 8.709362770456814
Cr 10.913054919814215 5.314775465693485 8.051103076194373
Cr 4.6363539573145145 7.696354438101405 10.386452942221881
Cr 9.806291236235651 10.117486351580958 7.6950099961906755
Cr 4.958454713028463 5.00890159880986 9.629062952448317
Cr 3.11272894192596 6.260399892779484 9.141324830911428
Cr 3.3227515989265104 8.123974627484513 7.78563317417233
Cr 5.954416295192007 8.81138041051679 6.765278505436548
Cr 8.197512410480304 7.789948664913405 7.236345839700279
Cr 8.276202218154848 9.777750222410372 5.5054116890766425
Cr 11.022976458773863 6.219853036672851 5.371890825338169
Cr 10.344604456243468 8.96035133204816 5.554935033157481
Cr 9.21393238991927 5.320273083326397 6.957470641964543
Cr 6.1309761923889905 4.389110199083462 7.433656812698803
Cr 4.020384494555073 5.582203234427326 7.019775544515394
Cr 4.541799625257359 7.383738954373872 5.73574469307081
Cr 10.888948032532754 7.782452971884887 3.2494136248750936
Cr 6.5086214513544585 6.239180907787557 6.083216735736355
Cr 6.855306050824522 8.183663795126241 4.602754598263641
Cr 9.0394059660847 8.88346593418087 3.1280298434884477
Cr 8.973574875947795 7.095932285132563 5.013826361582808
