31
Energy = -235.06981337 eV
Cr 5.592051273123064 3.6012824896668203 10.275173498221351
Cr 4.078167148145141 5.13046788980948 10.114941067545608
Cr 7.431353192284953 3.102800407539556 8.657677918716768
Cr 5.83306696492137 5.459491735190334 8.442632258054168
Cr 9.47740557352351 3.687463576429464 7.430483205113499
Cr 7.129730627523364 7.87902313745094 8.06680384498247
Cr 2.8851892771332035 7.289354608002845 8.595986983672457
Cr 4.740739576111466 3.2398346943650007 8.101821412353518
Cr 8.154255923427337 5.722464964635438 8.074919913923697
Cr 6.825794954863351 3.633876302185841 6.706892284522546
Cr 8.318195848187186 2.249779518290447 5.4720054486157075
Cr 8.74352899198465 8.034667910671976 6.457648929017343
Cr 5.31435501668219 7.434018123507693 9.431626974016854
Cr 2.942730250010363 5.737710384994547 7.67035538483955
Cr 8.974906861157827 4.868468392777836 5.593593537926492
Cr 4.79691290110458 5.2097337021390056 6.14909702448373
Cr 5.437949588461053 9.56368664859243 7.708420412769033
Cr 7.031770472259118 6.168344928300962 5.977731874468058
Cr 4.807782041493707 7.399953712092264 6.945142612673982
Cr 6.449149891620082 4.055322231335488 4.391564493259282
Cr 8.471037461519852 7.314207412594889 4.048768149650232
Cr 8.686930123683782 3.1403936619322956 3.8658699212254426
Cr 6.57165270875254 8.715618713995402 5.571535598160014
Cr 7.929370450576138 5.732180992291293 3.3324514022505016
Cr 5.683673313518035 6.879223539988928 4.228927312543648
Cr 4.231010600566822 8.907887618419432 5.24002710146123
Cr 8.714835301059948 9.811083367995568 4.463298977391281
Cr 3.4907192188044873 6.51261256734326 4.790387121647421
Cr 6.593523346436169 11.196760393624544 5.709278800471038
Cr 7.006625860101702 12.05932307826821 4.217690466752201
Cr 6.95502112406134 9.562399178665792 3.566681952368519
