38
Energy = -297.52050704 eV
Cr 4.982057038109386 8.533578194086916 9.816198134530875
Cr 7.53909619618504 8.790372888749731 9.519630613207642
Cr 5.720993507186883 6.305905815325624 10.114220408083458
Cr 7.956716154182615 6.663411943634971 9.978551154709288
Cr 5.935395675013971 10.341620449961763 8.068964316861017
Cr 3.5115623994399607 6.887649138876264 8.827179568601494
Cr 4.07194865870436 9.364651706231065 7.78656937341416
Cr 8.719457302911259 6.8598597216868304 7.756133989644298
Cr 7.097729487018234 5.151096205277036 8.06057353381495
Cr 4.611560477099947 4.438502842816603 9.285612643307521
Cr 5.931259712076802 7.642727886994608 8.121219255688557
Cr 7.839985474967202 8.889566694891284 6.806304512375152
Cr 7.167364328706523 4.060778097859603 10.186067387795363
Cr 8.463695534310823 3.623292034620773 7.381252730410925
Cr 5.92347992370308 9.202646388485315 5.7839372442984684
Cr 2.66366307381195 5.215280010900531 6.68509821662693
Cr 4.884387493650637 5.3038048773936435 7.3409153224411385
Cr 4.2316943545056676 7.404408331515643 6.372473812046707
Cr 5.945937513205314 2.9060758247257072 7.848385651098103
Cr 2.4736451884112416 7.10396521643445 5.032977591501963
Cr 6.661884392191423 6.6014823223955466 5.820645974086489
Cr 6.471378259513988 3.989409505999339 5.823734486943861
Cr 4.464984454478507 5.312997702158417 4.836440510682533
Cr 8.766351737462298 5.110899292553039 5.948721177825966
Cr 5.139041323752535 7.631404308214664 4.037419700325111
Cr 4.487688991645075 3.1319279683793457 5.38451795778894
Cr 2.287363025977549 4.69842548583956 4.100839985655145
Cr 7.051357742362252 5.474981354264866 3.795252269243681
Cr 8.762258423626713 7.254088130562277 4.874085422130559
Cr 8.374001225659338 3.4617482233683967 4.511547508665574
Cr 6.3082551875518025 2.7909491493614196 3.498591174557073
Cr 7.296223614739749 8.225269331875241 3.80849484911324
Cr 3.4319838252203883 6.762702828859959 2.661442433663443
Cr 5.012745210265994 4.347794054629863 2.817335589356241
Cr 9.543537202721213 5.301853539652169 3.3740071488953793
Cr 6.171150892473568 6.677638473317473 1.843038313709711
Cr 7.644121464340603 4.105041464112046 1.9210997730234083
Cr 8.664579899734676 6.653510302873165 2.39676453060537
