38
Energy = -300.56199765 eV
Cr 5.353197988971598 4.6369891700093 2.3914017070527844
Cr 3.1604651244846593 6.31717624971056 2.4429101526428694
Cr 3.638586138148489 3.4235363699434482 3.140209749670328
Cr 7.4023211695916125 8.925371904324177 2.3740880159224833
Cr 7.589312255605007 6.117799130472838 2.447838075406047
Cr 5.473151044522122 7.420398652106413 2.507071405118252
Cr 8.61870354523072 7.677714077493938 4.17878231085541
Cr 2.0837793710803916 4.569511216728736 4.52841194070464
Cr 7.385690286895674 3.406033743643824 3.607901738240895
Cr 5.4215997827841615 3.157858733752332 4.892767083269754
Cr 4.377132025079046 5.580956243150715 4.525477083215505
Cr 4.931931288338909 9.919479598495297 3.5732916056360953
Cr 3.6587666405677983 8.00462036205071 4.5473743270930855
Cr 6.277001561791393 7.8881954905366785 4.679017157236902
Cr 9.143638484398952 5.351887344341769 4.799436830253686
Cr 7.243754791063336 10.162751643843357 4.335645914218435
Cr 6.723921390315643 5.632905299685795 4.524079956042692
Cr 1.7227235609430847 6.69905113252802 4.967597267370497
Cr 3.5324792321451373 3.298739941962107 6.172484604784312
Cr 7.804046392350258 3.762793880568003 6.134471442471249
Cr 5.266570598096056 9.58026263018645 6.344069231102569
Cr 7.942972378237894 6.494938313379293 6.66918441447417
Cr 5.319172470098376 7.083200829702948 6.631133117717698
Cr 9.424467764453032 4.779611733140965 7.421685805226352
Cr 7.659146701758666 8.862083836379718 6.7887629427562475
Cr 3.1529272050742687 8.161818312709237 6.948627479814512
Cr 5.648957381852844 4.948716028206725 6.674040830172971
Cr 6.4019595145384365 7.78618632283668 8.88237413245735
Cr 3.013648490638152 5.635457753489585 6.906434905746652
Cr 8.383797556302392 2.6286680042488215 8.627953523774709
Cr 7.050887285896453 4.999268002271504 8.68846742984222
Cr 8.59786511133812 7.064937949731715 8.781405827587914
Cr 6.137098491886594 2.480007082111702 7.406975325836387
Cr 4.3615517485462165 6.314569662826777 8.800716348423121
Cr 8.80207339863023 4.518534882957085 10.123644773091064
Cr 4.53549252683873 3.8109000198221596 8.731580671525556
Cr 6.427019558996643 2.8806961771806114 10.216724397547726
Cr 6.304728658862158 5.838123782488725 10.591260602615847
