34
Energy = -263.66360446 eV
Cr 8.470932734245194 4.9104582956207725 5.727400651881345
Cr 3.871169319901105 7.758183261397023 4.8458710300822165
Cr 6.737687896696583 6.0771899464179215 11.766321823015282
Cr 4.839029590726215 9.655992718982246 3.940871210180551
Cr 4.5385993552123995 6.475477887427984 2.877159269792417
Cr 5.849031078515692 6.130357427484766 5.453615703093138
Cr 4.301887045506243 6.799124999011967 7.20825387185518
Cr 6.517522305268331 3.4907858893746324 5.5043628963146185
Cr 4.320388894445515 4.677257425403048 6.919257887555027
Cr 7.1817031797446695 5.4172486748226385 3.6316375572228927
Cr 7.474954494639861 7.436954658810137 10.127262787734585
Cr 6.442898759394706 4.11793472303185 10.985129481511702
Cr 2.484552906484166 6.014267043734629 5.509410749143261
Cr 8.961187477909357 7.066843330818652 3.70197949825855
Cr 5.754280841474945 3.0436517384255426 8.529702863366458
Cr 10.185332198940795 4.363186154573241 7.824213957843341
Cr 5.89129391537396 8.916355166821443 6.126701057875424
Cr 6.291203899028681 7.84901633063016 3.7796155888794067
Cr 4.446901987727078 4.668508256206269 4.199711329145869
Cr 5.193032254832669 8.576682536320677 8.646610979680421
Cr 7.884741950849104 7.21863605931731 5.625375620381789
Cr 7.946110559680277 9.36574091411283 7.427806216170623
Cr 7.9569137544465045 5.052671090982584 9.382953072955997
Cr 6.928202429583096 7.337706284913807 7.891594324166436
Cr 6.068626800782917 3.2482054528135142 3.210322330795927
Cr 1.9165115005888878 7.556213057908153 6.7461433385445515
Cr 8.470041908562454 3.287153098838818 7.761776580007888
Cr 6.713429178051365 5.135799153149298 7.434861310566624
Cr 9.13960589591218 6.396999331731916 7.8426457671410486
Cr 5.358870669536946 5.63830390630897 9.433803103241912
Cr 7.857879903077861 9.60583030475362 4.497052333812699
Cr 7.00210242093651 6.724533424263233 1.710808293278313
Cr 3.5128153152900565 9.262339704144813 6.506070279856379
Cr 5.395953573468019 4.962077573406884 1.6268347699340997
