37
Energy = -288.79595255 eV
Cr 5.416211218615539 8.726202474044088 9.158773967720991
Cr 5.196301399403167 7.396333209578381 4.702035536215726
Cr 4.8241364248076435 9.530233919974837 5.406039692310844
Cr 6.152335648953299 7.7598654153836675 6.757425482690208
Cr 5.4319086806324135 9.323885305041678 2.8239954032373396
Cr 3.244376144034185 8.322596117139412 3.0749566971649354
Cr 3.65875132646818 4.186565176964026 5.543301337082668
Cr 7.258142628189388 9.335098884094172 4.9365751244783045
Cr 7.155142451981951 3.148305784757474 7.091010161214801
Cr 7.924190046403415 7.0086392598150296 5.316131714645644
Cr 7.8271237271446195 5.184470179027589 3.305061692584817
Cr 5.3647740183569095 6.645269605062846 2.1143583027779846
Cr 7.677655245002898 5.454669139832966 8.081739716908952
Cr 8.656980226246697 4.964274051725375 5.719544142589938
Cr 7.351876441545494 3.23124416767039 4.374900806449138
Cr 3.1187893886501374 6.069028181335436 3.7513199735579406
Cr 9.322312032873235 2.6597675994481333 6.086715411041932
Cr 4.181876867769894 8.482672989158953 7.539955231569688
Cr 6.859899836146819 6.741596999653764 10.382913197482264
Cr 8.71784859401182 4.901362940442829 10.610279436782374
Cr 9.579011930190456 6.521091202012111 9.727903299519728
Cr 6.176497713967964 5.308079231358973 6.068047575776042
Cr 8.433978843138576 2.972257857986762 8.893573026508564
Cr 5.308396274477972 2.818680007279923 5.402202712675036
Cr 7.161400338227682 7.257672417228554 3.1536756095892553
Cr 9.563305677291192 7.078232574413364 7.180210869512998
Cr 6.505022500453934 4.086911573592875 9.643566949468545
Cr 2.661484812802832 8.477735536143753 5.355819956721364
Cr 3.842128277915218 6.412693290647625 6.347443827408059
Cr 7.816900124600371 7.90962142085645 8.655070561094275
Cr 5.097344956407833 4.26008835157456 7.662805592918662
Cr 5.519054905824116 5.047589656991081 3.8991350586631
Cr 6.375221445283406 10.013744556000116 7.544081891970726
Cr 9.703176135732548 4.401027059081814 8.147327309527576
Cr 5.257018468765456 6.387758673577375 8.37252885342357
Cr 8.465771223892403 9.261408256998184 6.55406953534842
Cr 1.39741094374694 6.917083854061706 4.819261261324334
