34
Energy = -265.1909852 eV
Cr 8.081600594497054 4.617370195994329 3.141217712085417
Cr 6.686033999115943 6.703597440426861 9.888222038443287
Cr 7.405106087064627 8.937595333991053 5.5538983951382725
Cr 8.484287012014212 7.459452369011561 3.772180767623932
Cr 3.336633039501367 3.664211897387853 5.999899498413858
Cr 9.865885611188748 9.311472123905572 5.273448520122912
Cr 5.554213396716987 3.1787732816915732 7.088078116128813
Cr 9.188434446050593 7.148227028790326 6.240487732092423
Cr 10.104353411348415 4.841115687954911 7.748302239414938
Cr 4.805189179597097 8.94400831251512 10.348545913635965
Cr 7.061412167078428 6.194764197122781 5.098236842601542
Cr 5.8332649514276715 9.620146257621697 7.548500672197373
Cr 3.0617606660206698 4.126308442611928 8.513187521312346
Cr 5.561385135894554 5.100950542600168 8.994768191140091
Cr 5.289283954277042 5.391607622842894 6.726339835043603
Cr 5.0934106716769225 7.662589135116584 5.233156415186352
Cr 6.139149164827288 8.493375720937891 3.17000558188767
Cr 11.215171416782981 6.8298692595452435 7.081782930043412
Cr 4.9081511960395074 2.2324840662212773 4.6040410166713
Cr 4.623502855477306 7.646100174136162 8.264002715402947
Cr 7.151824933541823 8.956956061981094 9.509892839623769
Cr 7.8367967117121315 5.127901687772949 7.653032328798415
Cr 3.6543469171629406 6.200933507393002 10.05850227579185
Cr 9.37948280246374 4.969513045757182 5.358170588508377
Cr 3.736516817708534 9.37494364612508 6.247743854514396
Cr 6.854141920562933 7.198782541439688 7.498736190385166
Cr 4.695825016149909 5.025147405661018 4.347001036022532
Cr 6.835853520361732 3.727196971640033 5.214471679156127
Cr 9.118608397444074 6.984661867526424 8.976432939680704
Cr 6.201588213746746 6.1638383041362435 2.80934161962879
Cr 8.736156102337533 8.98483835301722 7.842818650202371
Cr 3.038963242989697 6.205594323622436 7.32748169483403
Cr 5.68979739632996 3.4608616053204018 2.7738341500379255
Cr 5.54175197111691 10.284694508408458 4.8641204184557925
