36
Energy = -283.78041358 eV
Cr 10.056386818811836 9.021808941908647 7.628990817006655
Cr 10.02325539883349 7.623821098891647 5.615374088206139
Cr 8.208519514754123 9.061821440073702 5.583441408087601
Cr 8.332533391806736 6.746790696212439 3.920507490837743
Cr 7.628790997806999 9.215123661261906 7.8209741992310065
Cr 9.214453396601163 7.04734613792014 8.337061054372473
Cr 5.5989810903359984 8.80589612517577 6.537552167102548
Cr 6.464971778552582 8.359838383232043 4.060833599664539
Cr 9.362732731240392 5.5465740248237525 6.431472113250946
Cr 5.161637335284852 8.968854893114703 8.995101007355823
Cr 7.378246516746681 6.8935073567150935 6.181577526921913
Cr 3.2203028443947894 8.931582040470053 6.803031704972695
Cr 3.9504691922176876 8.428422615296038 4.380177718283849
Cr 7.813833042080356 4.5453084881393195 4.794101836105005
Cr 7.697825703431098 4.841794407873142 8.154664927858153
Cr 6.460439263369206 6.916147895941864 8.347400480134226
Cr 3.6575351548947035 7.085133771274161 8.394417786332992
Cr 4.556672644639529 6.600021416523725 6.309810737813516
Cr 4.926760073070767 4.899103378203223 8.53558474370178
Cr 8.336174125123533 3.0227631240691157 6.805375195109894
Cr 2.00742222841528 7.110084204198029 5.990099648298633
Cr 4.837998977564005 7.751406258715653 2.0865233490410064
Cr 5.589872656985123 6.132937207409756 4.225917207815762
Cr 2.335977959512725 5.235643023299445 7.53485214808126
Cr 5.988208154345205 4.414875257487365 6.368910709162617
Cr 6.832629772771001 5.616115193243756 2.315185669937734
Cr 6.174806536777005 2.4639625325709154 7.854586601568242
Cr 6.017138052327702 3.4880207906724863 3.605425679614336
Cr 3.0837936877074186 6.454604594497724 3.841336176805971
Cr 7.162195927206242 1.814910680289551 5.3123128617926785
Cr 3.3745532009362735 4.705991795959719 5.497247052913002
Cr 3.7689345737878095 3.0163177293959094 7.651980488892771
Cr 4.379202721906348 5.56261401803848 1.8197154858029654
Cr 3.6936682048349505 3.839666081032888 3.306343466035016
Cr 4.619130242705307 2.6223518156227517 5.515820755667047
Cr 5.387003726343999 0.6549802450656981 6.695208346282613
