31
Energy = -239.75314817 eV
Cr 10.73688356695598 6.879350299379474 8.165024421417481
Cr 6.217100372424543 4.901062839021018 6.02310441266305
Cr 9.390916143645674 7.46627395422737 10.645861656290323
Cr 10.544453859318313 4.324999741878381 8.11127971411837
Cr 10.283872290725016 9.170539624899707 7.036826656293331
Cr 3.6897691208597982 9.5525901265997 4.65519479849515
Cr 6.819805972522212 11.108198677967382 4.857079536192938
Cr 8.666715772089903 8.238186449766498 8.255656960805425
Cr 8.545939143291417 5.7505100811649426 9.101575573628498
Cr 7.056520016152843 6.968093597913746 4.707512068845824
Cr 6.822155475751898 7.1766091457803105 7.472772304412229
Cr 6.297030644620551 9.392809458657934 8.417539968967349
Cr 6.196242248176865 4.861642661919228 8.109998748569904
Cr 7.491364145486982 3.6118265482787724 9.921660980071684
Cr 4.550362047877248 11.53088710016783 3.7731201780765
Cr 6.125835299261283 9.270801500171144 3.650043707630996
Cr 4.829525512539677 6.970870978234378 4.502944949272547
Cr 11.058663687316969 5.666800466383519 10.29654498854219
Cr 9.776436752950687 3.2405817212058223 9.941662449297855
Cr 5.199580248000181 11.175005680299233 6.549180772003271
Cr 11.048731644576181 8.517192233511505 9.686647231823436
Cr 8.49076240277089 5.819580707746008 6.759563264411847
Cr 6.830788974783241 7.1557601294501545 9.815852739609003
Cr 7.8661673210506775 10.66409648233416 7.39413013900451
Cr 8.034031856266814 3.4534773235659513 7.774986280696441
Cr 9.982959233835759 10.502196070748038 8.683170857137542
Cr 9.242199308151987 5.053689738290299 11.524290646994347
Cr 5.749981866698522 8.961851376171262 6.084965949138623
Cr 8.325625888516525 9.511410251947769 10.008465106463653
Cr 4.775824005811384 6.483382024273868 6.515544918254471
Cr 8.003592589205292 8.855203024578227 5.9125525204869325
