38
Energy = -298.13886736 eV
Cr 10.339077963666318 9.4940827157868 5.674619197805831
Cr 9.169160315283468 7.820246889155592 4.0758924145727
Cr 9.692690377271363 7.4196370375927865 6.6082742966416115
Cr 8.665338027558516 5.407272147093704 4.837520964587232
Cr 7.742937731432412 6.19847739791004 2.5442070927856477
Cr 8.390229041885467 8.836693502978829 7.513582418242874
Cr 7.765770065220397 9.153642805548948 5.45539363543719
Cr 9.082424823931726 5.0199027937300755 7.306427872911068
Cr 5.972275856706428 4.7505262626066385 1.770357490359676
Cr 7.298021712198465 3.6779725774011376 3.277162650421501
Cr 6.804080518066855 8.036956543966882 3.277408448252679
Cr 7.270520332284519 6.9382109412628905 5.995860919297547
Cr 7.8520679533458555 6.522368271891423 8.440172841652325
Cr 8.25378058286742 3.0408955584485917 5.635493048698194
Cr 8.405337564893236 2.8121793256087044 7.87902782580349
Cr 4.4214588541668 3.9201425101999123 3.441268995423407
Cr 5.019851748491636 6.732827352291705 2.6547306143468337
Cr 6.232423937492894 10.277692032737415 6.749831222317648
Cr 5.2641937004260315 8.269472550321284 5.2613531061902234
Cr 6.67832702761591 4.701753489112159 6.806074867017361
Cr 3.7584638197747733 8.911996924275066 3.746294331545371
Cr 5.973171445309488 5.545808270147331 4.3913201074079184
Cr 6.175961416042741 2.2936309159203505 7.277880266464672
Cr 5.9290013237384755 8.230832974156066 7.88975003518106
Cr 6.019322377742405 2.8373370027069167 4.955358935569746
Cr 4.72611542739613 6.402770539892659 6.635698736091392
Cr 7.018838005738715 4.2923393453178305 9.08800188357483
Cr 3.398356081578582 6.31844896851443 4.567803863072839
Cr 5.226443802455662 6.278167152680405 9.078017068229208
Cr 3.8662640452451518 9.10143779617786 6.959958776582085
Cr 4.1154981700589515 4.31883993902715 5.850730962291335
Cr 4.482787923416125 4.109976542423712 8.003986366638376
Cr 2.5225034986593498 7.71977106465664 5.700428616276522
Cr 3.2206654823083594 7.324510694278264 8.380363268553223
Cr 2.2899030241392926 5.610565122332027 7.021181087527783
Cr 3.8708031387354422 1.8544106909349345 6.597849076482734
Cr 2.7906341241854156 4.8370505676149245 9.296037568169048
Cr 2.261370490521302 2.9472245151493746 7.320750859428383
