37
Energy = -290.17240015 eV
Cr 8.11174787999502 7.8946882139646055 1.5806170772638477
Cr 8.818533000053456 7.556339508901208 3.9510807973425384
Cr 9.196653700628621 5.010144408511844 4.63283328408375
Cr 8.159071592979469 5.5091094949016615 2.3708895422033396
Cr 7.788289261011445 3.280769009111669 2.955346652432027
Cr 9.57513552174221 4.495946522479631 6.9558263322083755
Cr 9.500851591934977 7.293318688361973 6.245796288633358
Cr 7.71810652635171 3.2073535976255925 5.383340898091396
Cr 9.412508875999004 6.762680246954089 8.559552549827561
Cr 7.715790898646445 2.4512466366154126 7.6123649557715165
Cr 7.149188060606606 9.46603794541746 2.926081683639253
Cr 6.135298731454531 4.970919319342189 1.3282787464831616
Cr 7.003023982552404 8.489445966111909 5.256874008833582
Cr 6.287578374101816 6.877793837908357 3.311079626500835
Cr 7.786734878091201 5.060804977767739 8.350887114767838
Cr 5.995608923984074 4.677236628251172 3.8903807080588617
Cr 7.534971653991096 6.015094430207001 5.989464395101674
Cr 7.173529282778421 7.742371597665062 7.802715296416303
Cr 7.40254516734189 6.662105452046009 10.35847471065239
Cr 6.603186037265274 4.833417576390729 10.76641758373701
Cr 5.8422609322298795 4.373010716575461 6.380147099127717
Cr 5.744865997211533 3.525541582158843 8.744630131856894
Cr 5.626988006997514 6.149083354625285 8.473207989274899
Cr 5.970010930653548 8.733709760432026 9.341769007042329
Cr 5.413662028189065 9.411406597474505 6.739988730567865
Cr 4.79931462257967 8.702973635377834 4.003430867245041
Cr 4.369287005806733 5.912094335078471 2.083409587690995
Cr 5.0386346759064695 6.739302590538231 5.882850817892512
Cr 3.683123683222709 4.429188604144638 5.2474723364304845
Cr 3.5099200325465105 5.09484035502412 7.597006426305087
Cr 4.010753179706695 4.966926985529641 10.260438845521957
Cr 4.7405688481474675 6.781794289923164 10.733758867573783
Cr 4.133093506351918 7.790290224531479 8.08992183169183
Cr 3.5340259368159987 6.536381173266459 4.281540890691025
Cr 3.348876456002948 8.8407734182308 5.7174283476626195
Cr 2.3341524442062793 6.782445886273728 6.478812531107401
Cr 2.391805943779646 6.53311060414535 9.275581612133491
