35
Energy = -273.59740753 eV
Cr 9.593539065578089 6.326576774790269 4.219925590449279
Cr 10.19052879487492 7.931428078274562 6.470477319946337
Cr 3.8448639227431496 8.29407093106856 6.563184050530497
Cr 8.00299283749789 6.679210525845787 9.579646602945392
Cr 9.694254352291676 8.201723917772346 9.548178412702391
Cr 11.624000939600501 6.966072390942283 8.639518981213545
Cr 10.30476059677862 9.011632479146718 4.262383600813099
Cr 3.182209828668539 5.120343439930861 9.517825342195358
Cr 10.911985470182715 5.2971605943599265 5.976024149091648
Cr 5.96668342568218 9.228081615168788 6.1320796425283275
Cr 5.518574971238749 7.644217722210084 8.488571316261957
Cr 9.302216892689016 10.030551336654858 8.004974077416383
Cr 7.960031631304285 8.012793621822306 7.462775143772189
Cr 3.9925008921783443 9.916150286745168 8.185180492521821
Cr 4.352600955089155 5.581634747744111 7.522457581881524
Cr 6.30291625088263 4.126492306714553 5.951379120321013
Cr 3.1045292832183824 7.56883386387882 9.042099474191692
Cr 6.568461117251294 7.673775724035514 11.56301881266416
Cr 12.536340498274928 6.983882612253028 6.374977358376761
Cr 6.9668076580041705 5.621602028674353 7.9233423967842045
Cr 6.129355798540483 6.9263951394167504 5.824195025673635
Cr 8.249911511155783 10.16275973406987 5.879709688708234
Cr 9.696866464765344 5.8734717582462075 7.975016872979981
Cr 12.490626629741634 9.35293952246992 5.802797529827783
Cr 6.568734848958611 10.249066081772453 8.158227158715027
Cr 5.489442020295631 3.766998444691104 8.362385112665303
Cr 10.871401678869693 10.822095825570077 6.218554033961735
Cr 8.223422458328136 5.860609234110488 6.0892266567090525
Cr 11.69538157113651 7.3013337528005895 4.142087107647373
Cr 7.48065966264827 9.290163611853904 9.75827780200422
Cr 5.538367133960942 5.823278507008217 10.079759087700939
Cr 11.764166138051973 9.174882304303974 8.110088968308096
Cr 8.037234709878247 8.17234276912246 4.732536580899491
Cr 5.065257404951842 9.324154502962548 10.36804614604774
Cr 3.9504153263446105 7.31472251401314 11.01157692081284
