37
Energy = -290.68703837 eV
Cr 7.226554205097508 3.6191368725701936 3.016778378608538
Cr 5.046942047589958 3.6799716588601155 3.4526350970682285
Cr 8.602507207751907 5.901315222558632 2.339084635984915
Cr 5.731775254475106 1.8414522051060978 4.549169739107244
Cr 5.762927929109633 5.481293106202764 1.6078208541189258
Cr 8.496178146130148 2.2599358644791567 5.228325114527388
Cr 8.823209346481967 4.536549330797863 4.333441335769431
Cr 4.239923391984711 5.235663026787076 5.037025282282905
Cr 7.170917514313792 7.5252519215458085 1.8126110365626118
Cr 6.635537043041375 4.162256293886702 5.617611403657454
Cr 8.596234308072178 7.328422883361783 4.283343438094537
Cr 4.8687222132354595 7.832914273542688 2.7157865104119914
Cr 3.8381559372460576 6.028011195175144 2.857636520932444
Cr 6.752591599838566 1.693007515405484 6.561729782885097
Cr 4.338390440522216 3.0577435233875483 6.100181560409755
Cr 8.427495998042442 3.7247346333255713 7.156016782615398
Cr 6.344917522988481 5.937940008494969 3.850049662360066
Cr 8.780584835201099 5.852128511573402 6.198819894150215
Cr 4.509785395113987 7.646195629529803 5.2238352183805
Cr 6.920720657150469 8.613061851282371 4.12169527710423
Cr 5.63045545806767 3.2257672182100596 8.063399920381704
Cr 6.470809418134719 6.866033558156938 6.0854295732369295
Cr 4.733866179932849 5.52175268152421 7.287460503105551
Cr 7.062316284234863 5.410009958601672 8.097310980612315
Cr 2.967495533096971 4.292384064279275 7.944640856434462
Cr 8.385974296753577 7.0094559511161 8.365893848747097
Cr 2.6586866600203347 6.828461430948697 6.622646838769306
Cr 5.675757740656734 9.568811560649317 6.2859608078717715
Cr 7.6919380330185065 8.829482987703416 6.48368546965922
Cr 5.505442781551468 7.807108970793548 8.078951397541092
Cr 5.330523562828718 5.740530604388432 9.892951077652349
Cr 6.838060846129583 6.994712647574816 10.17336540454859
Cr 3.018099792905529 7.037537499396075 8.915400577348024
Cr 7.10440079875833 9.476118091708612 8.785349104624668
Cr 3.4038676178086527 9.192684438556997 7.653713713534359
Cr 4.9474460949708945 10.495751525634315 8.536440317852632
Cr 4.467874411710788 8.504007312125477 10.164117687935455
