35
Energy = -272.49966483 eV
Cr 7.057572143839905 9.843084989305993 7.3601360731542975
Cr 3.694525881526832 6.694522564656233 8.383527684629161
Cr 6.781279964659193 8.95511200179918 10.09018158536228
Cr 4.551457583703975 9.651127592131138 9.053815285248595
Cr 5.953292596380247 7.673532039380444 8.100296080701805
Cr 6.3161476567748736 5.604867952055787 12.02498965507482
Cr 8.816710864473814 7.912350939092619 3.9214899899534235
Cr 10.410941888293122 6.8840561682879855 7.256046779640391
Cr 6.211931058637085 3.702057296676338 2.1865176877768078
Cr 7.708371474973043 7.077114783215826 6.813598783262527
Cr 7.027805228977487 8.283342097651685 2.8973206835961998
Cr 6.1700333272222245 5.372580289209256 8.453348676457958
Cr 7.374206869592845 6.4266676926525985 10.169117874570354
Cr 5.791979546748287 2.7813041382991144 5.000775647893251
Cr 4.692126956875586 7.62687089287294 4.270491085114547
Cr 8.956936067199964 3.718058232547471 6.166325678242418
Cr 8.967650403939983 7.5040395737457395 11.19468788263772
Cr 4.861332141262964 7.150469411626145 10.447772508695287
Cr 6.4819894890994805 8.653490843338824 5.312332211437991
Cr 8.777488234273827 5.367127497223872 8.085063690169267
Cr 5.23965353489041 6.515904527968144 6.200129069524179
Cr 4.847618917885135 4.726283303392652 4.425348113040952
Cr 6.887702379064335 4.621743844782584 6.321910336349382
Cr 4.251171427403839 8.928866318505163 6.797325564320884
Cr 8.458142334429247 5.712994976778941 2.5049256915159965
Cr 5.540252251530891 5.8544865449067265 2.284645993031318
Cr 7.804810406228445 10.31917566294843 4.642336803526253
Cr 6.898628216875633 6.2510662995387865 4.33081670802383
Cr 7.591021612676386 4.10056073772249 4.215128883060153
Cr 2.8440654843885467 6.619526359731008 5.999833195534908
Cr 6.631982386602515 8.128993368441762 12.43973325095635
Cr 9.188047813427161 5.801729837844244 5.345788599010534
Cr 4.377557729037108 4.421669197537461 6.88152884731425
Cr 8.962184927257386 9.136074098519847 6.344620430450465
Cr 8.882869887631374 8.152797511388345 8.684833545913635
