37
Energy = -291.18324095 eV
Cr 5.610034306347413 3.9840974207701243 1.3575852258105905
Cr 3.287551801499016 2.974552691127762 0.81766132090835
Cr 3.781638632566121 5.627057901461975 0.7120130119441955
Cr 0.9142760723120793 1.857764314828207 1.2627541568818696
Cr 5.6816639652387115 1.568498219210861 0.8124375430349141
Cr 4.046886620341119 8.04451272225125 1.4882827799555522
Cr 6.286450113297716 6.3795900938697025 0.5040029194131849
Cr 7.226450340067013 5.243985786519604 2.6266726892820698
Cr 2.3588385148006754 6.71539615877406 2.6658189736679465
Cr 3.43089140658743 4.40007922522257 2.826337950505539
Cr 3.0841131982083145 0.37903612980253004 1.8668271490562816
Cr 1.2609639984409784 4.580488292298899 1.6947903742077508
Cr 6.921901810642865 2.455136344939143 3.1469800302354463
Cr 5.228800725209175 6.268688399835045 2.8146001946091435
Cr 0.6567745543333895 0.3712058293864486 3.382713151414286
Cr 7.968664788660819 3.0321811810381964 3.2317540682897947
Cr 1.9030406090637035 2.3336915840553756 3.0787623427271082
Cr 4.554984580176196 2.0012702040544155 2.976445357539905
Cr 5.680171542565499 0.004287460662453981 3.5058971781983153
Cr 1.2687318154619036 4.665323541809612 4.2136924975948045
Cr 5.556945790718762 4.199823182653239 4.04931706704379
Cr 3.9795880527270153 8.072786154893842 4.2675312698804015
Cr 3.6268356743085755 5.7792509195933075 4.953664490591987
Cr 3.314741403106802 0.7926206755110006 4.653167054935104
Cr 3.3801255668646433 3.28413278153379 4.920691271254311
Cr 1.5375092436575268 7.019486811195176 5.0177516151306465
Cr 1.1552055179882106 2.4168969111008423 5.475190013776312
Cr 6.089057133775333 6.328163063629126 5.13608977958386
Cr 5.642380901936272 1.8770427984673625 5.4286373623788435
Cr 7.346514444770016 3.751857655927564 5.576675918144707
Cr 5.0700409366782395 4.3451094073126715 6.795884918863826
Cr 2.2583368923352984 4.705938481496815 6.586834845965042
Cr 4.113204020502186 6.75603887649194 7.043633581324703
Cr 3.629513722659573 2.1526920517039634 7.036897048575426
Cr 6.775802659053951 5.479613966774661 7.930521065212676
Cr 6.318499376918961 2.4394686254460534 7.872996911046869
Cr 4.119498692426159 4.363306871673447 8.919559608337654
