30
Energy = -228.41795268 eV
Cr 5.610919556040288 6.87098270353685 2.8086976128163816
Cr 5.838579237267749 4.707872419449549 4.235855653164515
Cr 4.881539737227496 8.330130954454434 3.5718006629361323
Cr 8.99672001936692 8.114543433045007 4.385527722735802
Cr 7.265040973449269 9.836284251591833 4.0177648862483
Cr 8.404874777969551 5.2306743015886825 4.485794722566701
Cr 7.054112682303029 2.8334332259948654 4.868081427859447
Cr 7.022525859335975 7.210312875896983 4.793964508189734
Cr 4.808722697256162 6.469683892219889 5.536641842861106
Cr 6.44238757336383 11.05146366034138 6.83765544270402
Cr 4.8257436957068585 3.697098903345601 6.171766175905121
Cr 9.22363198434017 4.1688789631066285 5.727034878343878
Cr 6.86701383338364 4.999604104070515 6.584350195810385
Cr 3.2183886831677593 8.505438139490822 5.609048777300799
Cr 5.857221401630135 9.134371028017474 5.745581804070893
Cr 6.000122473886221 1.6692279854477274 6.406150620236744
Cr 8.271080171883773 9.081455625247049 6.450463818815465
Cr 7.0277176547171365 9.447216017733574 8.40550019888179
Cr 7.750874688247506 2.9502102291123973 7.381424783317055
Cr 2.804023985822409 7.490691038121399 7.017958024741512
Cr 4.426851500440526 5.605861827973049 7.6283487475824385
Cr 4.528816446968433 9.300592933874709 7.925155454832687
Cr 8.774401841700884 6.687950665578689 6.630851926356527
Cr 6.3889023603217066 7.372532882071356 7.375402591553384
Cr 6.476982457327651 5.850783408472616 8.976108260044212
Cr 5.851230665908796 3.444083786923233 8.433578595931259
Cr 8.599525555241621 4.899315913423525 8.38664867393302
Cr 4.610248791995003 7.840604724689251 9.02854576177702
Cr 8.53289339983774 7.249711727179023 8.492635396741576
Cr 7.384886846094132 3.694969930204264 9.827642383945138
