32
Energy = -244.12109432 eV
Cr 8.681256251669831 5.915149439662187 2.84811292053557
Cr 6.53889084660645 4.689006939991345 1.649670381775736
Cr 9.287577201871976 7.768302268818697 4.202284423450659
Cr 6.855693866408314 6.862598155658518 1.8644970382960588
Cr 6.928002463436226 7.4817623581607355 4.214726426537562
Cr 6.747354982315196 5.1390265157868225 4.009176153156712
Cr 8.893136768883865 7.6652440230981504 6.952308467511777
Cr 8.058381803936207 9.468424913744125 5.637281452514257
Cr 8.737083471615733 5.8630595047826075 5.533104122069463
Cr 9.892254263527715 7.05928727821355 9.233658888973274
Cr 8.96843018093868 9.456108018969568 8.338779879942104
Cr 4.857252475585281 6.295785357842096 2.997066983703918
Cr 10.161839512392365 5.301151900411858 7.2588324009906575
Cr 4.8965082791809 8.398713897525012 3.440189731933592
Cr 6.535633122088908 6.745306063703285 6.384519901937329
Cr 5.18598686596804 8.945623412081908 5.958074420031569
Cr 8.160850771870606 5.555977709365847 8.116233946365206
Cr 9.378845985664027 8.211788131263008 10.691978173390499
Cr 6.728704983772403 9.291879066476483 7.46004827966032
Cr 7.5368660675991315 10.120790164653272 9.983080262924526
Cr 6.614902646444159 4.309774284048977 6.488727667360682
Cr 7.102916365469474 7.433400071748727 9.183139234565322
Cr 4.527230178879649 5.0623063136046325 5.36391994028635
Cr 7.97002420308472 5.866180499336569 10.774406665179463
Cr 3.9249693154219254 6.917609780049475 5.433074944604025
Cr 4.572663768112507 7.559490170464183 7.985110851744451
Cr 6.462444498758423 4.700105595707238 9.540639631725242
Cr 4.850489922757504 5.652158523864796 7.885851350250332
Cr 7.016503858589004 8.274997699718881 11.496856928942208
Cr 5.441390272755928 9.400422595127575 9.389893583834322
Cr 5.308579849304495 6.559718287780593 10.361915354119885
Cr 6.2864033415214715 5.928396612197255 12.27478057329046
