38
Energy = -297.70104411 eV
Cr 8.714482095452155 6.2190700106664 4.534038158600001
Cr 9.671970156445427 8.140998387079419 6.183341095802154
Cr 8.532661890419977 5.502076033707801 6.712718789988629
Cr 8.912149132453312 3.699329974274697 5.0728912249349225
Cr 9.459771902133486 3.2695593452798013 7.472721901172337
Cr 8.167779573880567 8.774422833910453 4.119697341213289
Cr 7.26666627410713 4.553457468843492 3.0687683814550675
Cr 6.582583161147697 6.823536185157223 3.556931292986513
Cr 7.531450148232801 2.8721865021263207 6.714944650283853
Cr 7.235075469163529 7.49069127430479 5.844558940662415
Cr 7.144847860899167 2.5621161437406332 4.172852533171859
Cr 8.146153296665355 7.401997206129997 8.189908866781774
Cr 8.160189811954345 9.732557075168291 6.763234432082681
Cr 5.480864347050615 5.075368239284746 1.620938774290258
Cr 6.262455721880563 9.175970823303736 2.932279895466033
Cr 5.031194964317005 3.074674349783167 2.6342060043090862
Cr 7.778750254485193 4.931485799449755 8.821048882983753
Cr 5.866242246047176 9.558532043872356 5.224049212991685
Cr 7.158882103942361 2.4994027554089278 9.015839332069742
Cr 4.600512630768606 7.0854532139748425 3.0067414085617274
Cr 6.761831894975338 4.9358094675094 5.526380193166999
Cr 3.830948432580949 9.22465598052991 4.316080695295491
Cr 4.5810234988095 5.075522426831833 3.8528313644363745
Cr 6.034138820698693 5.988982263212034 7.693040745822321
Cr 5.817791138864916 8.778307221221395 7.635850776300335
Cr 4.9415459717792105 7.1255833786956995 5.425001279145225
Cr 6.518388440682957 7.284352244761773 9.828276225950889
Cr 5.056536834099139 3.21572409181093 5.4435664813953
Cr 5.83417614432031 4.564474803466113 10.161815574975021
Cr 5.435112628962162 3.731309643151232 7.874445567843694
Cr 4.479105894588724 6.194335618268998 10.498937722268728
Cr 2.6377805437110684 6.94063779916853 4.37393617455306
Cr 2.4000790343758274 4.415018645936523 4.743938292873914
Cr 3.97759542373642 5.139903850702699 6.285895724046405
Cr 3.395761027604642 9.09632546353383 6.324585720967849
Cr 3.5142940369495417 4.945651639238254 8.73285749439184
Cr 4.096934209194252 7.3072939128621535 8.179025394087233
Cr 2.2661701196555093 6.877123020665549 6.725720589704744
