38
Energy = -300.29998172 eV
Cr 5.317687229054054 7.876512451373469 9.05372638397897
Cr 8.140866644140942 7.288576527613141 9.158145360731849
Cr 4.875685745135495 9.302224340952478 6.702375294214965
Cr 6.198497511826585 5.743427306623972 10.140673086896527
Cr 6.865752451345374 7.966536363389138 7.2078231460772155
Cr 2.999826758337563 9.536994989104322 5.566109578676458
Cr 5.440340582480349 10.337295721238515 4.316209256601623
Cr 3.0756956329527125 7.595572732225877 7.738925564802729
Cr 3.8739333597326335 5.507387597182798 9.137522865826108
Cr 9.257067568713262 8.04114163326184 6.619417864120815
Cr 8.790262893393924 5.769996791939172 7.355522335510988
Cr 7.236074605508966 9.27184557541853 5.2580786930328145
Cr 8.344850228248117 4.551170834772323 9.387480455122125
Cr 4.778789640274461 6.480267466275073 6.6140077125033265
Cr 6.406873631264795 5.558350578528757 7.766597002691662
Cr 5.822863378220581 3.3533296635016625 9.341485905414102
Cr 5.0351088086670766 7.8083639730143855 4.718154027433264
Cr 3.718829067310484 9.244952189843195 3.3139984589018496
Cr 7.278626515083313 6.507754518093491 5.334867363000502
Cr 8.831563389345186 7.9329141536894605 3.940028733217703
Cr 7.363234860761488 3.338386721464155 7.399533266067092
Cr 2.5928105081132835 7.337754452083616 5.1745942733570685
Cr 4.467124315433033 3.881606937717329 7.395287756982387
Cr 9.822799583884382 6.61505127124025 5.131616458784196
Cr 2.363712563129448 5.11003588054628 6.861134174582998
Cr 6.495592123516922 7.975057648825499 2.933591108808487
Cr 4.070059729267352 6.467580809051253 2.8368014232468504
Cr 8.473068625159042 5.7658456329837895 3.0080840020655475
Cr 5.945986306267012 4.120253271588208 5.499847571829153
Cr 8.29199690596545 4.3980291162534595 5.008684919082029
Cr 3.806078255385644 5.131412852645242 4.843148971908372
Cr 5.585573436177752 1.725889190042136 7.039708300986897
Cr 6.130579622703505 5.487186367168792 3.4290567562318475
Cr 3.375704830636267 2.805026342376046 5.493158215930051
Cr 7.841951632889318 1.99880002770307 5.382412623952084
Cr 7.284345040591134 3.367689014024396 3.0515396148194713
Cr 4.54209639957877 3.7014399614564173 2.9698568503283522
Cr 5.577422081711478 1.9126856241714114 4.450643734514446
