37
Energy = -288.8066344 eV
Cr 6.592045458668179 6.075963621100035 1.4496020232144202
Cr 3.713512371546121 6.2067024845812755 0.9011936684489905
Cr 4.9071034973882535 8.809266052060897 1.7974696321632908
Cr 2.737572713663632 3.5022386290001566 1.3281452122416502
Cr 5.047955784521633 4.335973737219031 2.0295652446983947
Cr 5.028121604012222 1.85505961069264 2.035270597037068
Cr 7.068493385249639 8.014317556221208 3.4122405941649823
Cr 0.0647921891669895 0.9148798609085346 3.8918320662427432
Cr 1.4230968425983255 5.791472028645696 1.7648359789539123
Cr 7.106568131995685 5.340994838416712 3.6549095674796472
Cr 2.464756640396426 0.9969109845737965 2.8195065025193946
Cr 4.985209167583408 6.865438147177998 2.8987667349247626
Cr 7.42818732414071 3.5465502404237017 2.1353280899509195
Cr 2.6469617351448473 7.7943860038315 3.0445439409337998
Cr 2.9790573329895396 5.287719351344013 3.1863493400453926
Cr 7.483081511850663 1.0338739494982683 3.4058424802603042
Cr 3.5019007696596005 3.0076169990190973 3.708554772812051
Cr 1.0412124159950056 3.2725822491676637 3.2122622687595275
Cr 4.8725921586859275 9.107222221945879 4.106891516430139
Cr 1.8423957427204523 9.107222221945879 4.585986182247762
Cr 4.37047764885855 0.682815168786955 4.224035255883785
Cr 6.0293393527521575 2.785981687123434 3.947898687683354
Cr 2.0217794692656486 1.7804978135620502 5.2571367664498885
Cr 4.767130562380391 4.9005509658736655 4.676912190316013
Cr 0.16932563958398028 3.2809141850302015 5.426555808066219
Cr 3.143449179079876 7.011950268170344 5.034515408287866
Cr 2.2520208036134655 4.407971654124321 5.481806585754448
Cr 8.503103339298253 2.872941577887154 4.453529634763968
Cr 5.629850422691279 6.9358009227711745 5.328233376500623
Cr 0.785566606092401 0.3514465761009602 6.509723742752831
Cr 4.363673483591938 2.756621342710453 6.141440384190982
Cr 6.23872386268886 1.295600747080279 5.865747987724064
Cr 0.7602873555087818 5.828314202963467 4.170732987184202
Cr 6.606913615028976 4.116584880854322 5.842462284975223
Cr 3.627771808674044 0.42280447919709024 6.448101338702521
Cr 3.964138897154749 5.094348056059119 6.927306471524985
Cr 2.2820493451846295 2.8528702507801467 7.344982845133462
