34
Energy = -264.87552144 eV
Cr 7.256332233264921 5.834630624644018 3.781522588287615
Cr 5.434883615438769 9.163276873163676 8.534453089295075
Cr 6.6948045488097225 5.164413786124745 9.926248573474963
Cr 6.198729874281584 7.898369944687341 4.440901800722648
Cr 11.520626428027391 7.207043112805051 7.784543874078198
Cr 8.070951753643508 9.21263665023425 9.070312119722603
Cr 6.7520125264884046 10.297171648570604 12.660226404601914
Cr 9.208540849116497 7.097738553301337 7.716178039798131
Cr 8.786032733067763 10.800129020422613 7.3418993695031345
Cr 6.034832570404664 4.706358799921428 7.574577156570778
Cr 10.244686776474381 5.410562621907562 9.560538408650393
Cr 10.949522223438166 4.890040288061004 7.4512411592011
Cr 8.55773543566496 9.238313879616125 11.442342361641794
Cr 9.838950680083325 10.764255773881432 10.237026130697227
Cr 6.3762135997816864 11.007553174899398 7.62034289662697
Cr 8.347120363907834 4.988684833174861 8.284491496908673
Cr 10.283207213211387 8.065155296838483 10.151310344051904
Cr 6.249124714553837 10.437838434432573 10.357067875190436
Cr 7.09341047577952 5.997824841176504 6.25360012709284
Cr 7.377060318031999 8.68756376645821 6.679463008948455
Cr 6.705366475102493 7.0726390952538205 8.56628326060604
Cr 5.191975553461103 7.079077994108689 6.780105025908935
Cr 8.536534864365574 6.775367965482812 10.326135691891698
Cr 6.480467555622913 8.026507859209415 10.900808035891535
Cr 5.172054998635349 9.768763273646472 5.8149752059665145
Cr 10.550131694461529 9.379747320528054 8.245111284592529
Cr 7.7458177553607905 10.127432227496248 4.949121061582978
Cr 10.342878110039196 11.984730855763143 8.31314425375617
Cr 8.192141543375513 11.940319578214801 11.781179203444296
Cr 10.789615451770977 6.923544979178515 5.588937228469074
Cr 8.685471058212528 7.503706539632868 5.165452093848441
Cr 7.984387290903957 11.806822993284563 9.381099773018999
Cr 9.262591564515656 4.991563883388547 5.944359948720891
Cr 10.164350707325157 9.201839751993912 6.1014686277754295
