33
Energy = -257.17845063 eV
Cr 12.306881729687897 11.349296867366666 4.840486936968544
Cr 5.186727328732908 4.989951109827054 10.367430491220277
Cr 5.06791824659903 10.723654235578408 7.808265360907871
Cr 10.159737028265107 8.0812664101857 4.7680654529590525
Cr 7.242196776003061 11.079631403187344 9.335849717811785
Cr 7.96439387864005 4.7713478894008965 9.914491561068068
Cr 10.165313977405622 10.691996318323534 4.4168676095093335
Cr 9.429428309684715 6.954141193946683 10.29127414421602
Cr 7.065613267039507 4.734881772712208 6.241602083202193
Cr 11.672670511129555 7.480740193186606 6.668658240671635
Cr 4.181062415302352 8.685113339010357 7.167458094896554
Cr 4.935658046455565 5.252643917955412 7.796278950690136
Cr 5.533812215124369 9.383436414449617 9.92076127969215
Cr 10.297874819590238 5.705651499299367 8.598080725858972
Cr 11.03970647082596 8.609384655148148 9.14245727357809
Cr 9.215061670984333 10.189085463319339 8.66639996694575
Cr 8.868857938086112 4.03052084814158 7.579539732904211
Cr 5.588599278669953 7.025797774476421 6.251775253025365
Cr 6.241386714774645 3.8568467441851113 8.459351690126688
Cr 7.352128396758955 6.239179506952817 8.168916413953959
Cr 7.297310757355995 11.408665073425619 6.69014168684263
Cr 8.683988894968827 9.5167528011043 6.246039735026166
Cr 12.425340990321788 9.061613365846954 4.5336360873201125
Cr 9.48893925183023 5.9052039482181184 5.970103359841368
Cr 11.097927415376104 9.779063520695166 6.747531182174957
Cr 7.647752637720179 7.294406651597041 5.556021979364927
Cr 9.460812089304262 7.704673460175707 7.608855702905679
Cr 7.741129405045301 8.372386151713686 9.543914098580224
Cr 9.320013133416733 9.686186535261193 11.04814903093032
Cr 6.62669635000434 6.691527257639187 10.839117228704572
Cr 6.014442921047329 9.554027006885587 5.325025967479652
Cr 6.807062922035972 8.917128799143063 7.582080361499534
Cr 5.3244428007456 7.22376587137928 8.926202114009318
