34
Energy = -265.1408187 eV
Cr 11.02569536234193 3.2098732206022746 7.77430550994042
Cr 4.707849018774745 10.805700981250101 7.633928751462893
Cr 4.715170618298439 5.984627400724301 9.063219626099839
Cr 9.164479855307023 9.091003856816627 10.131067744576344
Cr 7.1587672959975315 9.614804490655745 8.301177560446325
Cr 8.833932152235768 3.5029726721511745 6.828533563236268
Cr 6.77760136256629 6.899666487017345 9.64241584329244
Cr 11.530810929190183 9.40797085213254 9.403887329520723
Cr 4.8628621616196375 8.479353009041589 8.248151807161241
Cr 9.180313559995772 11.256864935265131 9.156261666884577
Cr 6.436876601339544 11.75701293215643 5.479583948599338
Cr 4.587721833516484 8.195877094523217 10.592028232387946
Cr 8.683240677896984 5.320441459813782 8.715604485483452
Cr 10.014005364945584 9.652172746721602 7.602339581551906
Cr 10.66865320556275 4.2663218820620505 9.866057793741394
Cr 10.324846223810136 7.0445708556807185 4.724594594664951
Cr 6.057252357042854 9.439053960794283 6.041123722870409
Cr 6.709722474983406 4.655597641971237 7.747676943089731
Cr 8.575541446137317 7.64155107132727 8.210508027097134
Cr 8.646156039835486 3.014869235190132 9.241509711559377
Cr 8.671496882488663 5.992303988393349 6.134297231559484
Cr 8.915304112596077 6.583346472600308 10.848613472562556
Cr 6.580916515451855 11.999602662863229 8.130447842106458
Cr 7.68026635565185 10.076878208388498 3.948397514332218
Cr 8.345886876447018 8.554103118395467 5.8060950333204335
Cr 8.447936328846847 10.958241676246587 6.440700802106326
Cr 6.445037953016139 6.978222425049516 6.969373707938742
Cr 10.612422128897855 7.070545012166746 9.314421813751732
Cr 7.313299861442493 11.23893936273583 10.495589636919156
Cr 11.013083526026056 7.629261942413892 6.9605058099088195
Cr 6.938705271135879 8.830404008987895 10.970301972717166
Cr 10.703139358755863 5.453460319137701 7.285903389708599
Cr 10.368395451045856 9.456847416171954 5.014911307246493
Cr 5.10620215936651 10.58145888717047 9.966476530253537
