38
Energy = -298.28608096 eV
Cr 3.533562773099591 8.571116083265697 6.569198824743658
Cr 6.6362328391239505 6.478711350725494 2.5831106131526123
Cr 3.3835537363517934 6.062700738609334 8.125436599122505
Cr 3.4465270716641125 3.0461250703538183 8.322994614176363
Cr 5.9487782900415 2.2284555080056503 7.346446381932418
Cr 4.636841259030129 8.140619172232363 2.0311590922067686
Cr 1.4237454574550312 1.7227878117136604 6.651748869756348
Cr 5.781885563221277 6.988001029645487 6.921540593620746
Cr 1.800387045878929 2.7318558256196015 4.267902156848638
Cr 2.337027408907599 6.7056784272939165 2.0691352512260335
Cr 3.7796925935460863 2.312099154304742 5.964742488028305
Cr 7.624908435073816 7.131601429932495 4.635213569883082
Cr 1.8293581922873228 5.426926295950279 3.8177772545469133
Cr 5.447229927232729 4.1272846957683695 2.921399718959033
Cr 1.504594155831068 6.767797894520533 6.012239570139634
Cr 3.1301675583402435 4.129418414189632 2.1572278865651193
Cr 5.324292419071029 8.161705183028001 4.619901682018426
Cr 2.6223926456120004 8.19482870312493 3.996335847531235
Cr 3.605772549654253 6.454950323026653 5.691661896266888
Cr 4.285617312131546 1.9472982098091967 3.385803076926768
Cr 2.165324843480068 4.340089635816056 6.331864461122356
Cr 4.8628515352767945 4.496652170929584 7.118790427587115
Cr 4.756930427322284 2.643042486070178 0.967425051327675
Cr 7.740623720777698 1.9953345545991157 5.19768241015193
Cr 5.518478386910879 0.5976520008686166 5.085870249299642
Cr 2.779400126754147 0.5274915285334663 4.522890711038994
Cr 6.6666938986410385 8.796654818732772 2.695973846990024
Cr 6.962448939847773 3.8943076485290677 1.414103412280948
Cr 6.040713351354624 5.614212898383446 4.9718251297715526
Cr 3.8284533192106744 0.4350026709600661 7.181296012196773
Cr 4.817764849496545 5.604265817100635 0.8023678800432859
Cr 4.265861651509568 6.358840546442195 3.2674192415532843
Cr 7.909559735629236 4.371534370584683 3.7089102919043127
Cr 3.8314183999747207 4.22526346176569 4.635758519079497
Cr 6.7394723942409325 1.853819933744117 2.8992988881273853
Cr 2.2744693361599477 1.9009556265037812 2.115231082919952
Cr 7.334148580147804 4.572838083266795 6.527853008267087
Cr 6.027634826782811 3.04689598312179 5.0692789457586285
