35
Energy = -275.27811042 eV
Cr 8.565731822684635 8.118314078375573 6.103834125017081
Cr 8.009315028362247 6.190386374324427 7.77514110270774
Cr 9.083434752679853 5.912997735458867 5.226125570618156
Cr 6.529224545037482 8.106019707591566 8.00507636527901
Cr 7.740240341561456 8.027670069853475 4.060345728446184
Cr 5.8302947743963065 8.705825832400874 5.899833146292608
Cr 6.176190123310239 5.680217751788448 9.18457689448926
Cr 8.237553519144294 4.039645233289372 6.4417027357055465
Cr 4.716913918278242 7.801584177753511 9.58966636295304
Cr 6.56260033151761 6.309671820515581 5.795946720960643
Cr 5.933695317933774 4.307499756305063 7.164059192204199
Cr 7.871969478545179 5.744101973056554 3.119772887799081
Cr 9.38470822098688 3.5602394932402817 3.9085147621141934
Cr 3.9658026261006833 9.002142844167759 7.491185623098653
Cr 5.576344058804811 6.41169101051131 3.6160416519536254
Cr 4.434492388372179 6.526073518582491 7.292447201987339
Cr 2.515275826011602 7.037585365095749 8.850162565726366
Cr 8.155286633830254 1.816687458538514 4.607396301777951
Cr 3.893417952519829 4.390293198288461 8.66550477304956
Cr 6.876755457622497 4.100194664072467 4.530921436284224
Cr 7.686384254288696 3.137114574673244 2.2039709596604116
Cr 5.644500433294591 2.5114923676938044 5.620383560692835
Cr 4.028635900718936 7.398994778584966 5.10429447855718
Cr 6.264488465992517 5.128138552360336 1.2418700154014592
Cr 2.0142592302724456 7.816163772113518 6.413170626917167
Cr 4.249847242277521 4.8534523110140375 5.038148733404243
Cr 3.482921781006774 3.3637022491382145 6.577156931893143
Cr 2.3437148800072816 5.4978295725488655 6.664160400560001
Cr 6.065217779735959 1.689898866771835 3.3171571323752036
Cr 4.009792702405156 6.2225549272921965 2.0274559458430366
Cr 5.158888397808927 3.8901541480467463 2.8686686560157644
Cr 2.042690243226852 6.035334457714416 4.046587925664739
Cr 3.1655238663416356 2.5591121650518422 4.286464082872155
Cr 1.4057812252166493 4.097167693818267 5.018264610318332
Cr 2.813165454211752 4.2185347271606135 2.644964071741496
