31
Energy = -236.78633787 eV
Cr 9.856946326091034 5.56507552820054 10.217010939249223
Cr 10.398922315746319 7.800469565021693 9.4448837951787
Cr 8.98055761435014 9.322962671395452 7.803753668215393
Cr 9.860463434756664 6.381491557532347 7.704366935183574
Cr 8.16307313035707 10.353607818698453 5.402515884843006
Cr 9.844201618602945 4.192140340319659 8.35975384844706
Cr 8.990611385036207 7.845669923266699 5.876999872251844
Cr 8.198904751147076 5.089862130292042 6.35217861982119
Cr 8.084107454180309 7.666036427779874 9.907985927062446
Cr 6.613232863056644 10.094393754405212 6.459457154524604
Cr 7.414683919218725 3.4934025396433555 7.889025976363868
Cr 8.374251899865657 6.013106720544141 4.174257547291518
Cr 7.737684117985428 5.668372915548905 9.046599227181975
Cr 7.362151970015273 7.3043691857259185 7.2185343402130515
Cr 6.209874521321174 4.741506623035381 3.4506331812259208
Cr 5.372428313098541 6.89817389826241 9.043784325612009
Cr 7.123243048852077 3.5620774344026263 5.077793258738199
Cr 6.756632342806708 9.067538979806189 8.773304795346313
Cr 5.658898481081644 5.224780892146186 7.359886837817175
Cr 6.0055858958842885 6.001059182044789 5.272645048147543
Cr 6.7411650485807 8.241780268799161 4.675287206976445
Cr 5.190276646470323 7.959473547471747 6.833095277593742
Cr 3.710890948953656 6.2540340758830455 6.69293289885048
Cr 6.35429293432215 7.289267996657901 3.0257008818625803
Cr 5.103387179660733 2.691825115656724 6.609788822245249
Cr 4.374680471574899 3.943303115362668 5.393519651678068
Cr 4.049487289604164 7.687998175229038 4.5010504468136485
Cr 3.88145093045841 5.9414442711007105 3.7493363915963367
Cr 3.2949373277142353 9.035904215508971 6.5018696421796
Cr 1.6174909055349953 6.85247441402784 5.108475395625978
Cr 1.8832314555127436 5.024143258071912 5.281318743704191
