38
Energy = -301.59644583 eV
Cr 4.329076420028131 4.015911431443873 0.10240942597424528
Cr 3.0246314867129707 6.4956019993608445 0.1142603371806838
Cr 1.744650739054975 4.441323654192141 0.3509089468133583
Cr 5.784217754851827 5.931622469929723 1.6685469909128368
Cr 5.039870631279225 1.4874404925966107 1.3805393569556892
Cr 2.724550793646823 2.885671073811425 2.017102243346787
Cr 3.493918318856216 5.451487056324514 2.140198950130651
Cr 1.2373036749018973 6.399446899144048 2.3301906513039503
Cr 5.348554208161224 3.6426575213657633 2.2924581165118423
Cr 3.8482859548037767 7.65134306168252 3.0239534367057215
Cr 2.727852190551754 0.23001356508395307 2.731584031366085
Cr 1.2158846829340817 4.27616212370395 3.233128995602326
Cr 7.460363581600326 4.975178943205521 3.5143662031859897
Cr 6.970584632098463 2.2532882717397347 3.278583274147862
Cr 6.51345449713812 7.297745334119673 4.0161251141584255
Cr 4.432435154986718 1.6905922607535646 3.7889190488022
Cr 5.599754411109478 8.027116019757724 3.511106848477699
Cr 5.036888463027144 5.644083756339511 4.042009975982606
Cr 3.5275831027680247 3.855409873519391 4.235199885874724
Cr 6.6830734408154155 5.706157035452038 6.104352160537468
Cr 0.24962024835042487 5.88964611006796 4.872007342014102
Cr 1.9305176173239422 1.8844960300526665 4.327357600941532
Cr 3.3727078449155226 0.18504180194836287 5.426641266923555
Cr 2.558081998939396 6.3103868863012424 4.468589833423031
Cr 6.894086499453906 8.027116019757724 6.641037581616743
Cr 8.010842785723863 3.64301259030662 5.54542337538933
Cr 3.799154255954339 2.370500377929115 6.337001853192661
Cr 4.66861560382476 7.585751926643243 5.658128156691019
Cr 8.803330522399802 6.2580361016096155 5.1123725595492395
Cr 4.1433487688083215 5.048978743415791 6.2852978243477535
Cr 5.856022175636462 3.456539642016534 4.995553792919982
Cr 1.6764602561480537 4.148648080680448 5.957413125690326
Cr 5.941620912498228 1.2203057310733039 5.81618104438474
Cr 5.007866001140762 6.4229390039613765 7.882682743598366
Cr 1.496369517562484 1.8391774309142463 6.785286978727915
Cr 2.3224045903289157 6.52930457900259 6.755121084114705
Cr 2.936740820296932 3.9484781520592898 8.0191336806585
Cr 5.755807026009049 3.65142836131778 7.405357746485856
