32
Energy = -247.5669134 eV
Cr 10.384169166279044 9.959134675347427 5.67584352410676
Cr 7.6568778090143805 10.85753602530477 5.842778393327577
Cr 6.230636571438159 9.777134748013909 10.287912401002716
Cr 6.043175261234059 6.894172225884627 7.06057927659486
Cr 8.509178614889189 10.609709927080406 4.016844600397642
Cr 7.333674165682267 7.507481624574995 11.86104510327703
Cr 6.911314503998328 8.606806758872205 3.5882292767026986
Cr 6.167492607552936 6.641321894008979 4.599705485632458
Cr 8.706594500343646 6.7071585545364805 3.517288522154541
Cr 4.866953516679155 8.824381011261831 8.25204812892435
Cr 6.384128450340738 4.490372523788874 6.271873376720639
Cr 5.528175639159545 9.039945566238764 5.7455906447661835
Cr 7.1023855222871175 9.202700361569986 7.818357836201677
Cr 5.303904357155834 5.128948939090957 8.697410823458641
Cr 8.228484969858865 5.876325404105395 5.7861186178725985
Cr 8.394098179553978 7.197034464216193 7.773061328505865
Cr 10.303653488830374 7.23569230876616 8.808501821434792
Cr 10.467592981724868 7.362585016158986 6.182459985125212
Cr 8.1620240200219 8.363078574752068 5.448760752753752
Cr 5.015184961849326 5.972427635374659 11.293651773229753
Cr 8.804006550389468 6.070748278145503 9.96491171951558
Cr 9.897637418602343 5.142655408635168 7.479031538205937
Cr 9.532512597499679 9.545150449010448 7.584214244473093
Cr 4.831089534737063 8.527489632804356 11.061576724168388
Cr 7.598721788304797 5.017054909183492 8.321868821576558
Cr 9.798487154179046 8.332370483469784 3.805912412385328
Cr 6.658258207586078 7.218799971125841 9.634288035092245
Cr 8.624315005503618 8.793381064531811 9.75854082850396
Cr 10.74012341852344 5.870925137258463 4.7653319138357615
Cr 4.0341525799463795 6.940323640368292 9.021998409711584
Cr 6.704936936847049 4.9345135332444245 10.977260517628444
Cr 3.9571477656857574 6.635724268709918 6.458578366497897
