33
Energy = -254.87792429 eV
Cr 3.1170692729444918 7.181611600003814 8.83223052924225
Cr 4.599613601513863 6.0460968867831255 4.568433054590953
Cr 6.638417380306311 9.872454008748374 7.442746448665492
Cr 7.327374439994025 6.301638853550254 8.602975988139015
Cr 7.773977359889451 7.79466798968669 6.768451515261677
Cr 10.588193641630557 5.176070413519492 7.416558462337106
Cr 9.695267225191524 7.015177995414852 8.288089697989875
Cr 6.856034033321025 5.015193013575524 10.579495491926076
Cr 9.257505150777352 6.369913892116667 10.47360272977551
Cr 5.264318303140346 7.883754541126268 7.7283182903076275
Cr 9.839651596764575 8.46464593510395 3.41351217623626
Cr 7.560980813506678 8.636234386478746 9.226584037685924
Cr 9.6719323679475 8.549331363462173 10.259811540422742
Cr 3.755938271762488 6.0285866795925305 7.014712755328194
Cr 6.34306630725026 10.505150456860923 4.795981973018167
Cr 5.8273612745846854 7.3667731441175635 3.4187279360955833
Cr 6.030341161052255 5.9682993963919975 6.3652210457219365
Cr 7.904148078738702 6.891653156777421 4.426757552430059
Cr 6.695155190428272 4.146162069794009 7.166677866173329
Cr 8.351356535459571 9.555680048577472 5.378997607827777
Cr 8.572237869981342 4.38563419085508 8.829565191574819
Cr 6.962217844370622 5.123341894638469 4.23206239498876
Cr 10.112895691572072 7.614897593326171 5.761486354162217
Cr 9.264808960093779 9.33740014473583 7.9438651225892665
Cr 7.691944177138357 9.01949322764092 2.9173204553974013
Cr 5.194513844006556 5.339699511571494 8.890079898667551
Cr 8.596747112989052 5.417497739938991 6.353140213140414
Cr 6.371931892105478 2.8644090679225855 9.34371794382685
Cr 3.6527128442891654 7.618200316211715 5.686195660075892
Cr 5.43103455808301 7.466361264951286 10.006900207397168
Cr 8.342594468775328 11.218127624956606 6.820909252242983
Cr 7.448144132043367 7.050645694353508 11.222508104050728
Cr 5.947429101890513 8.260083721494174 5.268635683392064
