38
Energy = -300.61035268 eV
Cr 4.492649282487585 3.597617475999823 8.153592307469246
Cr 5.4735169907272665 1.6399539962854588 1.0612248823300625
Cr 6.67236439353095 4.198671112144805 0.9571337591873519
Cr 2.569370275288843 1.8414743376647895 1.089328078727839
Cr 4.58749543621624 5.975429153654239 0.6397472877313877
Cr 2.1333289098536072 4.608963798128221 0.6464778034421489
Cr 4.19204156251452 3.6554856252119676 1.7808347437432164
Cr 6.792072978309375 6.787811206600502 1.8677132991400736
Cr 2.4053921329786725 6.990270116881206 1.097757026515675
Cr 0.21471526445115405 3.201399766501684 2.0634583150754096
Cr 6.2507888182756925 2.9012679344925836 3.1459025614844998
Cr 3.923199115240736 1.6055408076700655 3.403104897466141
Cr 7.983132883032003 4.673922433814916 3.43462114964612
Cr 5.568775050807928 5.373449614225218 2.9726227024225733
Cr 2.1514209477448474 3.437000277809799 2.988864769093282
Cr 3.110503123797438 5.755098622484044 2.86475618618331
Cr 1.1793173770019443 1.1234514284132058 3.6739475489739224
Cr 4.583922829941473 7.726149709194833 2.874742710076292
Cr 0.6552484566787182 5.5940269745944065 2.812269046024729
Cr 4.173040397110063 3.996509923603973 4.371418865335714
Cr 0.11614782711141516 3.6292213202404757 4.600514274954725
Cr 6.640301683738002 6.97833492797523 4.641243184989517
Cr 2.032846668241029 5.095800159933343 5.058246195655639
Cr 4.347413151249551 6.38421777871012 5.100431616562428
Cr 2.4316512292996704 2.4600897885796855 5.367483918403143
Cr 7.587304128925808 2.3998887835109293 5.112819425603007
Cr 6.357787962741863 4.547261441668979 5.368981462676603
Cr 3.345356352397767 8.518162094304262 5.004271368762167
Cr 5.166924191892048 2.082356036333904 5.466092426592057
Cr 8.329985423279107 5.08772733978712 6.392106074719307
Cr 8.329985423279105 1.7577767144206615 5.742911006686158
Cr 3.97940266264786 4.198858538515027 6.802530689060059
Cr 2.793985022732 6.257573945888986 7.1004850293641635
Cr 1.4538587418042166 3.637120471218039 7.089545367048589
Cr 5.593207000671416 6.036715921154657 7.206266735791421
Cr 6.169274636666681 3.19832802952294 7.42032354028728
Cr 3.8120534128692234 1.7511925788645086 7.358049484283627
Cr 1.5659378583766446 0.46159941790734504 6.433899862402509
