30
Energy = -231.75373187 eV
Cr 7.217182546026749 7.832600829903868 2.5392988156414042
Cr 5.72757376018953 6.223917828085792 3.3267861392835196
Cr 6.206547974054786 3.9363927367686404 2.554956868834505
Cr 8.227626397977877 5.6149652950022695 2.904111776981409
Cr 3.526417697509196 4.994368633098914 3.3949479853023465
Cr 3.7646450714102726 7.832784899586625 3.3239199258323113
Cr 7.817907238471641 7.673418416544191 4.760861043130245
Cr 5.0301203050894925 3.977541274347155 4.698187117152313
Cr 4.150181797152864 6.582328223409445 5.22774013751443
Cr 6.801560804994629 5.476204957210778 5.401970135221681
Cr 6.171700611554572 1.8665919365931098 5.11711788364903
Cr 5.44074186865326 8.738551045161515 4.23453288410735
Cr 7.7167238307131 3.6113396890287763 4.500294175672598
Cr 10.287864115691699 3.9928705651341048 4.366334399495142
Cr 9.454431963806584 5.850983827134287 5.0845059519237
Cr 5.912618410176338 7.604410355284543 6.36944438196017
Cr 2.615974959222592 4.443057219566814 5.842352789943716
Cr 8.427304421829147 6.66832524519559 7.194980913088318
Cr 2.254135588651781 6.729705380690336 6.438665155887404
Cr 4.586378967177369 5.1298502188316 7.108037845205221
Cr 3.941260866927264 2.518988226711875 6.7023529365167835
Cr 8.5773626704552 3.917372051321408 6.697208678067085
Cr 6.445900596321831 3.361253494658389 6.954586554493859
Cr 2.513546561704307 5.356619881450824 8.570457853574835
Cr 5.143656021807588 9.77081979299636 6.81907411884352
Cr 1.7873939885036272 3.5279000310009447 7.980431075954002
Cr 6.690609032796547 5.623712584156139 8.086728331452717
Cr 4.084865859418054 7.328206216582674 7.8479339992432235
Cr 3.547592371917972 8.998576754653138 5.8738702068391655
Cr 4.384552544616258 3.2707212347126493 8.53268876401106
