30
Energy = -231.96617319 eV
Cr 4.91034612707624 7.711254279739971 2.4494329395538923
Cr 6.531404162972241 5.423286395069801 2.8621295371794098
Cr 5.260994117989838 3.8709663536330843 3.6775198199087002
Cr 4.351398003367278 6.48655741358905 4.001486423478611
Cr 6.14639419563998 9.696346361031768 3.7884336561582357
Cr 8.858307372323887 5.685822697577879 4.26062043987931
Cr 8.144414734466256 3.7142211509617438 4.239624052199048
Cr 4.398254752069273 9.051460542307208 4.628474970224721
Cr 6.7200570618045345 7.449822976372931 4.198812577002165
Cr 8.68151424004194 9.043665329986778 5.337280462239912
Cr 6.622225133699041 5.141409777189948 5.469740338825115
Cr 7.804850333580178 6.9000820403058984 6.25773403866743
Cr 3.9485670411849116 5.0126643383817635 6.051206175248291
Cr 5.156311048642319 3.057452433544589 6.096244923856683
Cr 5.202498996424474 7.217669455477708 6.452040320275595
Cr 6.210037424857291 9.118293296214215 6.31890408841481
Cr 10.274811755041126 6.958631890130031 6.409400663664932
Cr 3.699232028129775 8.851522913657023 7.159805947867073
Cr 8.78515824350516 4.584665158147513 6.781814865494998
Cr 8.576277627904236 9.18150259971783 7.365838711343515
Cr 6.223805365900629 5.077296438935182 7.937575869395464
Cr 3.65931576067153 4.0798506595637996 8.373010697986365
Cr 9.499679670372432 6.769438778434865 8.412671603115005
Cr 7.472320708993137 3.0681883412203526 6.7722140732515275
Cr 4.263199684205324 6.499176965580236 8.501738949789067
Cr 5.487839973023287 2.8033600189060857 8.48087386376516
Cr 7.045888064924347 7.404226957122347 8.370223545627292
Cr 5.158340564307779 8.838909904330308 8.604478148561396
Cr 5.034113966175804 4.7183755942783945 10.411133287523908
Cr 5.88053820119353 6.591975299079629 10.337631369989381
