32
Energy = -177.5109227 eV
Cr 3.6968866960715983 9.049623588612711 5.355756030230779
Cr 5.0686725974068825 5.740227768712711 9.363653543620456
Cr 7.10493765998135 2.619105275087715 8.002479853299821
Cr 5.103216715929888 3.400670284280509 7.713796850231659
Cr 7.308218406365655 9.519588916842642 5.20652645096732
Cr 8.955702136487687 5.439137562592486 8.978303432800766
Cr 8.691841940799417 2.7543817570963736 5.828859301343046
Cr 6.777846106343836 6.100122894957892 5.7728855463078155
Cr 3.03396929515134 5.800539097224495 3.653989616438788
Cr 8.364692481662805 5.089903482318627 4.503490451354709
Cr 6.7704758619827405 3.6201332441682217 5.947536762612871
Cr 4.730792856185293 6.872938185635722 4.431621287790237
Cr 4.606205705948525 7.809245541438412 7.995876572757133
Cr 6.902127914204107 7.123140051104931 8.20690591259531
Cr 5.767571584345811 8.366907197352782 6.208161321275432
Cr 7.265371139048978 7.174227235760372 3.959074934908163
Cr 4.306601453798746 4.442308220464571 5.308837426529427
Cr 3.210995160194522 7.028031744015564 5.948688919854414
Cr 9.162490563646163 7.516628082901176 8.027151026009482
Cr 8.944167370955755 5.098991382078585 6.792194862717005
Cr 7.178813515700321 9.362548300185237 7.628963389744437
Cr 7.368648680802293 2.9554721872447076 3.988092459312467
Cr 9.037151460741251 9.659977860390056 6.869110888029372
Cr 6.092318042094859 3.7089362407927586 10.008095773731288
Cr 5.412261617222685 10.63283477630834 5.92835214054868
Cr 4.862394957029163 5.787785680496871 7.2261952707789225
Cr 5.485498380741754 8.92216218431329 3.8596394399772067
Cr 6.011035034895533 4.960030871905453 3.907748019664903
Cr 5.2024314764364386 2.3936352120213162 5.654797548226361
Cr 8.46295989245795 7.645990658510541 5.922174662179551
Cr 6.990271512113685 4.804775801654829 8.316823898312329
Cr 2.8489504380122646 8.147193868241882 3.5796372704992763
