31
Energy = -236.49309293 eV
Cr 3.4783667864154615 7.143579932047769 7.021567658959519
Cr 7.77258124906848 6.145086987017672 9.294819770558313
Cr 4.577380087214087 10.797677221061484 6.501525450569565
Cr 7.605932810892642 8.232614095450328 5.094308349682352
Cr 3.8839756325002197 9.631167549809911 8.00239903601349
Cr 9.687408872397194 4.8365984342458335 7.346690744227956
Cr 8.426304356279974 8.752541731368462 9.950306554882502
Cr 6.044322308375639 5.83272493746616 7.441296803843416
Cr 11.77716449473467 7.206324665913035 7.34188439366171
Cr 3.848487778393707 7.002929392208684 4.308428743997489
Cr 2.9451905846608355 8.76835352062334 5.631374780370001
Cr 12.573996921923495 7.72176343054805 10.092787578152365
Cr 4.898599662510634 9.488499928365881 4.433837767129761
Cr 6.533395194694522 10.178823633802907 8.135414839812269
Cr 9.269354338337878 8.847900185110417 6.830405477605331
Cr 9.620965365683098 6.97342300571247 8.445658356909869
Cr 5.578525004344521 7.603930750753281 9.145550278973257
Cr 7.920178538659665 6.316806688101629 6.490882783894557
Cr 7.54626625820515 3.8844940446991956 8.122314446002052
Cr 10.13746713084536 6.844842030221465 10.654369821836964
Cr 11.809973705152977 5.5548971173595465 8.95122778160975
Cr 9.541974606671415 4.593104676177022 9.447971368860147
Cr 7.2312339332319056 8.237648691463946 7.822448556586969
Cr 5.343391695881699 7.85907890687933 6.232779960769077
Cr 4.558228559011842 5.304085187875087 5.872966550510159
Cr 6.160097127438255 5.907185420615508 4.806039913486793
Cr 6.857189377843257 10.171105818012075 6.18089477220351
Cr 5.701600045629337 7.608673015684496 3.44884885524984
Cr 7.11751568705653 3.8969014236231305 5.960536364623406
Cr 10.40918962949674 9.011300432780406 11.110175647370914
Cr 10.906512016974098 8.933589729905679 9.24458639490663
