33
Energy = -258.52276098 eV
Cr 7.2375986868941125 6.739868353457448 9.880201001045158
Cr 4.673877589343277 6.645755597268014 10.362748858311019
Cr 6.52772869680381 4.512377059555287 9.680882675577676
Cr 3.589288359083215 8.225953017822714 8.680616878791078
Cr 5.4821752664624706 8.82605464152631 10.614382649795699
Cr 8.602578677949131 7.599066615126995 7.850200866625129
Cr 10.151451850969742 8.860743005007528 5.81336299733328
Cr 5.09435494646032 5.828367474362673 8.197058390865275
Cr 8.906200578452111 6.8139773947402515 5.544739939603979
Cr 3.9727776686004583 7.256000830756693 6.499755169050619
Cr 7.721297428362477 9.49440573363428 6.49712661643401
Cr 5.826136509939208 3.164821387931842 7.86073973315026
Cr 6.308832381068695 7.188523627259218 5.952968646965275
Cr 9.837393956047956 4.594323369279116 6.255835147236676
Cr 9.351239369899895 5.431436461842158 9.252640703968293
Cr 8.323773874502447 3.0874935920888964 8.086555348372103
Cr 10.763780313926262 6.631016195895008 7.506820125024273
Cr 7.769799314378219 3.1805410526519204 5.8185031317572475
Cr 6.016012448756243 7.999178920831509 8.264704135156439
Cr 5.447715592451361 4.740489932721564 6.170797810859767
Cr 7.8588018485191835 7.840761326804684 3.987152085959784
Cr 8.394252486431094 10.563940079222405 4.350601829788767
Cr 6.477567521271622 11.558956183352109 6.232515982888511
Cr 7.64920021313575 5.291926354779608 7.507605655758235
Cr 5.7670601133387 10.60214764157383 8.870952514672283
Cr 10.190233182807411 9.395074876299573 8.001840703148298
Cr 10.7434722981345 3.754931989577619 8.27650638980106
Cr 9.560800658548972 11.42108454603987 5.986801109891288
Cr 8.540402038984817 11.202616351141497 8.153955393275115
Cr 4.940028226781488 9.618097769282322 6.7458336019712855
Cr 5.727572205109039 9.212792655530446 4.718522187065427
Cr 7.554601971251313 5.159951266097797 4.703464753349552
Cr 7.846420174419615 9.422912233698321 9.370212342858318
