33
Energy = -258.60438166 eV
Cr 2.4214900221230877 5.232116426768571 5.538437389467815
Cr 3.4499722190200557 3.1594533963634888 4.832092550072363
Cr 2.9243749370172107 4.863147659824668 2.8537394316589944
Cr 3.002348640758805 3.2277512567716693 7.270158040963455
Cr 2.1381890670476706 6.923800727530305 3.805809289699041
Cr 3.4443710218448818 5.938470566935086 7.989530397888347
Cr 3.6517804426607605 7.873522649920068 2.090004132178526
Cr 2.5844636377093817 8.033458304607521 5.874804168375878
Cr 4.873348289959489 3.5219471499898596 8.45266161552073
Cr 4.872852875943981 5.662656867378454 2.0633532156751593
Cr 4.7751629964426545 5.046379898823387 6.241189925474886
Cr 5.373888241368904 4.172397250845408 4.002798679274579
Cr 5.598936761615071 2.6634195205458377 6.349408111221318
Cr 4.5254522380196605 6.7316974249433095 4.396824782356709
Cr 5.420693490920494 6.172614907262282 8.780346936769433
Cr 3.8532015110173523 9.16146740485125 4.310730964386236
Cr 7.546965302295372 2.7758229780639447 7.932294131724272
Cr 6.720695999619232 4.146283694595706 9.967020417961168
Cr 4.685003336923479 7.700486694884583 6.627744637575428
Cr 7.398026301509741 3.976628645852801 5.177639540433908
Cr 6.014457242208442 7.983393031273252 2.964009020271109
Cr 6.90503488378067 6.6238283205649156 5.350263344994309
Cr 6.219166344677471 8.923854224033377 5.0882422052633665
Cr 6.9560732671888905 4.955667981299668 7.345038533916651
Cr 7.1736293890002205 5.951327621301456 3.05949566203011
Cr 8.595197325984445 8.03560794167051 3.7891270076790375
Cr 6.946494174893827 7.706666534168614 7.634067287695783
Cr 8.020722786905642 6.213175257431308 9.360060913772191
Cr 9.182533750612228 4.212568548274357 8.781769042238043
Cr 9.527697476118863 4.145291953269617 6.763572655578566
Cr 8.878857770300385 8.353142544015588 5.75672749170831
Cr 9.249499641740732 5.839827330674981 4.714549150845073
Cr 9.043907235326486 6.135892606838259 6.982953191772575
