33
Energy = -257.53585417 eV
Cr 9.953493167249814 3.7651900535957896 5.8554568578655335
Cr 8.31814154677938 2.377626558343707 7.7225724323421945
Cr 7.99917566910986 9.678499641833069 8.15943639071012
Cr 10.108298560870981 3.6434436669156045 8.43142739684277
Cr 8.6599477039249 5.936237815558588 11.091477937194432
Cr 5.030898182981229 7.317026489260347 10.52037352846782
Cr 9.820370132591032 10.259323338052633 6.948813420774685
Cr 4.804693310267932 9.878610947647099 5.060195188474842
Cr 6.619488957342007 3.467878894502745 8.969877415423138
Cr 7.71519886045587 7.575215963993901 9.744984999547095
Cr 5.772857089617492 8.672819103164034 8.469266418038194
Cr 6.606203056547318 9.989360006753747 3.31016522934244
Cr 6.652722120197659 7.795975591740537 12.095368475573906
Cr 8.86062132887835 10.91124369128647 4.864158447400205
Cr 4.855084625690093 7.895946656186934 6.579987261110943
Cr 5.7719215316321115 5.669895442689801 6.031861774347567
Cr 8.390675069696094 3.2325517221059665 10.387149947049421
Cr 7.729408911448243 4.517069797098086 6.629002985664129
Cr 6.471398584451606 9.736525830765746 10.480568763270206
Cr 9.410322614949353 7.7747735363367925 8.467828019934199
Cr 8.506832370341057 6.083724022933579 4.929745071762558
Cr 6.118845069459231 6.114127459866197 8.36012248118482
Cr 5.360919022344347 10.740876192132966 7.507344411433361
Cr 10.068472936799353 5.8891714623027545 6.823800663896391
Cr 6.465732081152137 5.311498582056759 10.67099597179121
Cr 8.55398227981873 8.722588319426515 3.6141008976236146
Cr 7.595892740492251 11.943190423314345 7.101378586205057
Cr 6.687120064165367 7.558436343679134 4.609034677230474
Cr 9.38517532915523 8.309712447386996 5.764892826313766
Cr 7.188786745823816 9.503161796748902 5.947858225290455
Cr 7.664443160733412 7.257999529616789 7.121310737510382
Cr 6.276955343294121 11.948937282656203 5.255581963060368
Cr 8.507326561270185 5.315403441553593 8.751250761996648
