36
Energy = -282.31409707 eV
Cr 8.587724313552705 8.211899224794676 7.034785833130864
Cr 8.889792021128494 7.452370049931173 11.156749968323437
Cr 2.7481666108114244 6.007507428767659 6.313333472058649
Cr 7.035234297534199 10.888044668588357 5.383806286262773
Cr 6.204371852286616 3.830164078277338 7.943611414630489
Cr 7.408991320149195 4.598841270943005 5.133882510999011
Cr 10.02817404445339 4.2205958456548665 6.3166797921959255
Cr 7.193227723580088 5.1441816386985835 9.946934431700997
Cr 9.779938820255321 4.68956804116797 9.02266568232042
Cr 5.618198347654509 10.179678881660996 8.609729581124101
Cr 5.927103150219735 7.341917661564921 8.448435706450718
Cr 5.4395250531590635 6.023754916783336 6.599216602759395
Cr 4.286243480524221 7.576997587413765 5.2844357476490975
Cr 10.800106302205851 8.723026011925251 6.400682417849434
Cr 7.841458847419208 5.476692281359445 7.242319694126132
Cr 4.4721717686006945 10.215834597364907 6.003771851972103
Cr 3.228013038005555 6.7067743831913225 8.73240386431047
Cr 10.075862403790179 8.976548367045268 9.194737817886107
Cr 7.617960067648954 9.29962782150893 9.348053327092716
Cr 4.577048492359422 3.853467657338782 5.480670334680189
Cr 8.376244866326882 10.527267136369721 7.4015145962700855
Cr 6.359603132611051 8.864382703556272 6.634570614517889
Cr 4.8357171808098025 5.462084374500142 9.648385780927988
Cr 6.323322195699235 7.644151585430602 10.810228963526304
Cr 3.797364734220731 8.406525027670204 7.478689106682507
Cr 5.858983153838205 9.024629836418228 3.9776617724473073
Cr 5.258881280904269 6.111972611399995 3.7624810977358187
Cr 9.459076382176157 6.447608956485866 5.620919625131465
Cr 8.309279652162433 6.937435724024656 9.045002383936534
Cr 8.535407150610176 9.123022339464718 4.832709470758896
Cr 3.8725347333201015 4.3082693398685485 7.561822996716873
Cr 10.54461697751168 6.587771825187847 7.87519988621623
Cr 7.084321810737302 7.075490221342482 5.032259053090388
Cr 10.505063754231056 7.934091400028765 3.959467072947124
Cr 8.666033556807852 2.9611694019190447 7.220878334151108
Cr 8.302212692195212 6.875221864365357 3.1511126944306787
