39
Energy = -301.25018868 eV
Cr 9.181565130878248 6.265467039718116 3.796019578055068
Cr 7.11002766510427 4.272636302774431 3.9993545203792755
Cr 6.628947510566074 6.357025153040344 3.1090873914869963
Cr 10.782940430044786 8.424678641857907 4.323042687917159
Cr 4.977367480340253 4.404542674082141 2.688392702128713
Cr 8.90242389451173 4.336753265451526 5.659040717952101
Cr 5.0381399509242915 3.133457880725585 5.083056184287036
Cr 9.440203343686793 7.259764156028266 6.206117912853499
Cr 7.2541007107634545 2.559903290337357 6.031696482577852
Cr 8.656152641476115 5.36627195244167 7.798003742457513
Cr 8.528326532088917 8.1188534918234 3.7189078855668316
Cr 7.881894871457846 3.183737343518364 8.13952527178398
Cr 4.092366528215693 6.949812852164112 3.0097347566994914
Cr 7.428341712672246 6.482022398002279 5.462309730794356
Cr 4.776160666155082 5.459118596470905 4.819176716406831
Cr 5.349927240522434 6.041895889740165 1.2505061326082132
Cr 5.52002238250533 7.985505469452954 4.350592911968397
Cr 9.349712285646978 9.479139855633035 6.05206422369932
Cr 6.514264713467383 4.644579507669869 6.599865221468249
Cr 4.1227413755457825 4.438156935629035 10.297154907523675
Cr 7.273517861430412 8.754740839299158 5.716744422595711
Cr 7.356466074051229 7.39522515955491 8.008670965545589
Cr 9.310872771478518 8.326726007178229 8.405601658802102
Cr 8.164053895707317 4.533571560839957 10.425796605146276
Cr 2.7051677415921573 5.192087889047241 4.446796610891299
Cr 9.08513547374419 10.496053986864888 8.17703177721973
Cr 6.324789783301184 5.321618938247862 9.077218068480281
Cr 5.124922589149989 7.03014905031749 6.952750716291469
Cr 3.063398729614076 7.424825608815802 5.209590499319167
Cr 8.723242066708085 6.469996568901183 10.118491365469392
Cr 4.709510159778917 4.2454667378479245 7.5171211708187595
Cr 4.539214893189348 9.121436754795978 6.294332754305396
Cr 7.708515314484091 8.93451989326092 10.01934127082004
Cr 3.066496853404713 5.979699030443915 6.922919863039072
Cr 6.9712316802735605 9.594957899628563 7.8310504539867285
Cr 6.331595270609403 6.973476448489839 10.449115907490217
Cr 5.096880014177864 8.471560599876419 8.987514814511949
Cr 3.0371880799265445 8.131511266959212 7.798829575844978
Cr 3.8734728640124967 6.440352246275672 9.248731004014257
