33
Energy = -257.7179865 eV
Cr 5.774831310396915 4.142937502719635 11.070392541474284
Cr 9.147583661184472 9.498542573153953 9.32679064637685
Cr 8.812595328343555 7.103227699529277 4.711396239190393
Cr 7.138107935469744 7.938306358509229 10.83115701802077
Cr 6.966267664438652 9.423360590973726 8.861631588980693
Cr 5.512629269784447 8.516766028860571 6.856744257443305
Cr 7.583249720899322 5.522312777018189 10.548009062096057
Cr 5.870623480333583 4.477373256263088 8.663141295120756
Cr 6.767384512130672 8.270688070852279 4.970653456108259
Cr 6.873560732953021 10.54999652583307 6.380865934375928
Cr 3.538099881383167 4.69693952859647 9.217104464615911
Cr 11.457193975350561 10.789449654977124 7.088369284467304
Cr 6.763778901408647 3.356714201438419 6.383987835725379
Cr 5.5021327930588395 4.700870712217682 4.298451680686929
Cr 9.192362977413374 10.326365951569935 7.17296284918149
Cr 8.09181159005968 4.437675368110023 5.126746662336933
Cr 4.5970131987998135 4.327729006334036 6.573915639484147
Cr 8.17103043340393 4.740765903373771 7.984484699166942
Cr 9.511457862304713 6.098142783263439 6.488708099384487
Cr 6.674320835689581 6.042156009097178 6.34311490182325
Cr 8.977949897614959 12.30927860949736 5.871270177889085
Cr 4.54497532934495 8.540108995713547 9.091415373629093
Cr 8.863194722788709 7.160538494227805 8.954290308656136
Cr 10.490867085933303 8.586332614019975 5.755730700253781
Cr 8.178026626927089 8.177787054663154 6.958212014696853
Cr 4.538048221638378 6.877911274341637 5.310566745866672
Cr 10.77640452189063 8.07522414026407 7.678567170658007
Cr 10.647396908263358 11.125098969866233 4.933637188254011
Cr 8.336119977116804 9.801621959175511 4.790751336251074
Cr 4.233394168201369 6.39192865702389 7.681168329422632
Cr 6.641067737268857 6.256075100916544 3.5850884754549166
Cr 4.965864835881362 6.411051333709337 10.404164967026537
Cr 6.459070095512209 6.815045352823908 8.555983052162839
