31
Energy = -230.27550752 eV
Cr 3.5771598981669617 4.249514285561955 6.1681410248847195
Cr 4.666995161197977 3.9620715460274814 3.712195234074044
Cr 7.5035369151210105 6.732810958419915 8.047834679476782
Cr 8.143101765495063 6.879148854723618 4.029422987288089
Cr 9.78873459179694 9.946032241534263 9.520288840397008
Cr 8.066781753128124 6.450518239652005 10.645943457854047
Cr 6.7510408818555 9.204856332099146 4.066123089215949
Cr 7.499308291969091 8.411681382202069 9.832156277046135
Cr 8.4385609731696 4.787612751440059 8.550635033470392
Cr 5.7496968453594155 6.292156007310857 9.370705053791497
Cr 8.592433730904562 9.088388647904475 7.42761083452185
Cr 4.639948611315175 8.369174696265613 5.644803331476007
Cr 6.487618920030908 3.937900733343538 9.94661198943692
Cr 5.761886270099041 6.214424061260566 4.36994509113684
Cr 5.83401055627056 8.701299726876643 7.935912254586388
Cr 7.214250061824848 7.623770333657855 6.006074884094993
Cr 6.704900561488835 10.107211982451721 5.636795259236529
Cr 5.918581457168446 3.506643336133142 4.903577058569964
Cr 7.223470012388215 10.743293874094356 8.264513000830917
Cr 9.661570568764866 8.957523272850704 10.996944305759229
Cr 9.312827686706573 8.978457324320166 4.953446590345659
Cr 10.342702490085497 6.098721447751719 4.9957686915122
Cr 2.586122481730395 6.815597990082671 6.053193182783395
Cr 7.577072292818169 5.036967970376971 5.970373268606381
Cr 9.646460877158557 6.858482415871326 6.476351036721902
Cr 9.845971005195223 7.179183334387344 9.026617519852861
Cr 5.102078341129823 6.1150290427944345 7.010292466197461
Cr 5.943325888519942 4.127480796961286 7.665318075390291
Cr 8.24227645972856 4.542979155013364 3.895619521295325
Cr 3.851276561768817 7.869931205520915 8.056086884358459
Cr 3.3523252460094572 6.2648513314697585 4.5087185916214105
