32
Energy = -245.83157742 eV
Cr 6.8369680785936096 3.477654936953793 10.80017936900033
Cr 6.2408041667443355 8.460662859113468 8.811902921120149
Cr 6.783854559696448 6.889508673950232 6.830869991786553
Cr 8.4310761882226 5.468159227741786 11.220196966178435
Cr 6.123231543012183 4.502612101305851 6.992390927871224
Cr 5.145192045504489 9.37510940398279 4.766780933683509
Cr 4.877766092997916 8.17543400156382 6.597696820539924
Cr 5.191016802772616 3.609989826521433 8.976355344829102
Cr 8.293770546399525 11.501215576255941 6.248576414043554
Cr 9.66482488525471 10.082322498645985 5.113546944351105
Cr 10.927773709460446 9.296384787077399 9.657489238138602
Cr 7.420465102776732 5.718251530921553 9.337557785239134
Cr 5.045454440374375 6.400364450153145 8.710007041672036
Cr 8.587813106565015 5.5371608655428695 6.8042640271135175
Cr 6.996146874996748 7.593067342863744 10.721694072658616
Cr 5.6426698673245825 5.255977989199814 11.083696418037446
Cr 10.37462438879232 6.643994853891571 6.885475141436301
Cr 8.870471873343389 7.929859058125028 8.214039638183857
Cr 9.557928511461451 10.058465493887494 7.761733999972565
Cr 11.65532588843368 7.472648540924019 9.110348967981404
Cr 6.497693451290758 11.526123065581084 5.192294328052811
Cr 6.496063468828831 7.525408520982769 4.550864068502445
Cr 9.842276919962075 5.661905193930977 9.113778042369447
Cr 5.4666070015608845 10.641862157933973 7.044239799078726
Cr 8.036891847664352 3.5425443580263414 8.678136217289696
Cr 8.905880578244394 7.902926523871829 5.578140946100804
Cr 7.523084628316006 10.104881074941867 4.264052132048498
Cr 11.057545081282521 8.773279414834187 6.94944199352239
Cr 7.362968873800863 10.736756309502127 8.58090186470684
Cr 7.314421970989421 9.393079757959297 6.350463380188833
Cr 9.379490421103453 7.237138752098227 10.512031496264898
Cr 8.404453275693676 9.60741649403004 10.305511738109216
