39
Energy = -304.90242017 eV
Cr 7.7265271571834955 2.5339665832423597 2.4268240440678155
Cr 6.374555214681323 3.0985138525216764 0.9438072371834595
Cr 9.177830032659042 1.7783553390998044 4.355601340297424
Cr 7.207097983640279 2.1401122066149103 5.1525091851075215
Cr 4.2754714446369935 4.418599478405982 1.6402428821886526
Cr 5.620767489945253 3.3421317666664225 3.663598504628663
Cr 8.41167124231128 4.45813476089139 4.149715307823049
Cr 6.867792785397815 5.098156069379547 2.5460485792290815
Cr 9.048553454719045 3.5923956404533826 6.39478372226061
Cr 6.132003078473929 7.8491819270448335 2.7905728135945767
Cr 8.324297997025003 5.917658269344646 6.490288406273446
Cr 6.771673677587663 3.722330670433349 7.334009335153948
Cr 4.953646079465794 2.680604100724731 5.930555307134559
Cr 2.4849024003858156 6.266876847878465 2.8191603226741933
Cr 3.562953558388615 4.347012511044799 4.449368709362505
Cr 8.068070764738621 6.83965539623073 4.356202710807402
Cr 8.42450871125449 4.847269129641558 8.663005958324463
Cr 6.281117467039043 4.7942541605415805 5.081291524463184
Cr 4.887470333202122 6.165707785559208 3.6222421443567705
Cr 6.024313134377504 7.288613853911514 5.4064007920070045
Cr 4.2036136302989195 5.393778405491821 6.645056268245878
Cr 7.308190478663152 9.323500045616624 4.522776155742472
Cr 2.7501549364763838 3.113782499134297 6.380156006790204
Cr 7.868191936921661 8.328711318344784 6.81507804887196
Cr 6.213159680815917 6.091320923533316 7.580440136318972
Cr 1.3963262178397613 5.126556822048715 5.608364525432294
Cr 4.741163878538846 3.7968238266480747 8.370633814545318
Cr 7.720150484282751 7.3536545441789904 9.369597577085202
Cr 2.622161926910746 6.662873146237849 5.087275847066301
Cr 6.297072460854286 5.132722472122667 9.70683396765009
Cr 3.945604997521173 8.471847075725313 4.0328001481379
Cr 4.987039603841772 10.020293190132326 3.081063319315485
Cr 4.047181646852113 7.7442836073997565 6.6315579758536725
Cr 5.742616670751162 9.623513931693392 5.5499402158981255
Cr 2.111623374391812 6.820343443433363 7.541767333843331
Cr 2.208491049767661 4.835836897712175 8.119044199635843
Cr 5.8652496685037825 8.467475445866036 8.068018986742464
Cr 4.272907583145219 6.651242236154906 9.163765094312984
Cr 5.987449303673502 7.68921654999274 10.63135991402683
