31
Energy = -238.7931545 eV
Cr 9.43909550669075 6.247310902813516 11.4886461977124
Cr 11.323767906493867 8.37418977168958 5.878548864713556
Cr 8.151714956881554 5.733751969645786 7.566992912100573
Cr 7.161109582325588 7.951156633120732 7.325909598720305
Cr 9.090414434268771 8.323669194761685 11.935854621695405
Cr 7.246598495285096 6.781249354561401 12.539434465621877
Cr 7.153170320005555 9.010881850410463 10.859555234445404
Cr 4.628052437063634 7.35955938281572 6.878006481956261
Cr 9.72141716526543 7.7986524051417945 7.81569235558397
Cr 9.941963254614105 5.433456128987759 8.992523672471433
Cr 7.968201288622976 9.766208605832814 8.657051268091815
Cr 10.866046782581893 7.1743078055486285 10.033143971290661
Cr 9.795457986252835 9.411617602535683 9.883645174566785
Cr 10.815724348700076 5.930537381773 6.671279008996523
Cr 8.607803864588869 6.857127873952255 5.387295000337612
Cr 5.709265241237801 8.129400032697664 9.020417587022084
Cr 7.726252865129444 4.8577799070377035 10.328192841840755
Cr 6.09210537259695 6.010752659778573 5.925188023408396
Cr 8.137472534235133 7.2814469435591045 9.779968031481529
Cr 3.914507914450223 9.226338967753506 5.438457844088133
Cr 11.610515344713468 9.183817000711425 8.161551392571955
Cr 7.300098139200548 10.684867462940359 6.24526733915773
Cr 5.344110066780852 10.258876261629425 4.587961976378379
Cr 5.462222636539998 10.06605119277128 7.316124930808586
Cr 8.997177674148608 9.040327238068068 5.766279398857061
Cr 12.10231267527743 6.686736980797405 7.922255289507048
Cr 6.464599038502192 8.43184825555833 4.903977781099786
Cr 5.573839614060412 6.6484391528452935 11.0084545949025
Cr 6.2686721338350235 5.944862310194889 8.643814184914849
Cr 4.67395904311273 7.715599004225014 4.302303453938164
Cr 9.85458645186784 10.459211296334862 7.351007986617366
