36
Energy = -278.29363127 eV
Cr 4.6687582661985765 3.651514034050301 9.38631585497967
Cr 5.646210184119908 5.95052684874586 9.443665368928913
Cr 3.156092100690324 5.251548273875644 8.304151136303359
Cr 4.325978844849149 7.25342151882153 7.680093407075041
Cr 7.169810345293073 3.698266987926527 9.14521542437533
Cr 6.340446801392907 8.152280474600493 9.227030797466888
Cr 5.241136064942381 2.2998461714202025 7.679399925208202
Cr 8.19832832250852 6.962939893185998 9.04577191892673
Cr 3.3044943361595944 3.552743210749498 6.870643806682895
Cr 8.19368062916595 5.24009839393543 7.646971270404275
Cr 2.224562493910184 7.096477850557282 6.113725651766502
Cr 4.17792939511929 5.811394606873885 5.9200202616265996
Cr 1.7186530384185752 4.902999766393455 5.950953634767275
Cr 6.500427406401411 6.8891616367893675 7.185792165779831
Cr 7.510930600876934 3.0130681203588643 6.809107325341795
Cr 5.954990083698251 9.390033758503781 6.853787962279215
Cr 5.654016747501769 4.618200362862461 7.335564047858807
Cr 7.998304036857839 8.837190639164637 7.255269265829582
Cr 8.303981250159557 9.406262768402451 5.037111612376383
Cr 2.549957964053636 6.430305602012102 3.8773352898326894
Cr 8.860699756455205 6.9246843131599976 6.263901198241944
Cr 6.523699880608497 7.538097977659454 4.792591534711689
Cr 8.621604607202691 6.940502248465599 3.9904126605131847
Cr 6.962363434043936 5.1556377446605826 5.237083714064642
Cr 9.463174095903499 4.50236015317088 5.412576725928839
Cr 3.094111939020633 4.235197272133969 4.159335013149312
Cr 5.973523321248289 9.672967348416938 4.203105896856273
Cr 5.065294136207562 3.3622108432796387 5.148587211027784
Cr 4.905706410699257 6.170803152965237 3.656863942689774
Cr 4.04319707354618 8.330842717395944 5.169708342912869
Cr 7.568706493245107 2.358100918788752 4.717665527739074
Cr 7.0225054183528774 5.932951061719486 2.643897992460627
Cr 7.52823989750017 8.656397113594435 2.6237011953749074
Cr 8.707970273829556 4.286320671841893 3.4208879386282938
Cr 4.938159787670085 8.018074042618881 2.6995750145253354
Cr 6.014308954093904 3.7315940850859386 3.3288467656263894
