37
Energy = -288.89881785 eV
Cr 2.3891340919445354 7.50146150291142 8.651304481986001
Cr 1.9928255203986585 5.034879428685399 7.6518444441609015
Cr 2.427148744955991 7.244978355487372 6.173785286105334
Cr 4.0377107692557885 8.928550089522467 7.185953223996267
Cr 3.900948424842094 9.172288465201333 5.052145519625534
Cr 3.046212322791289 5.177294023881519 9.43379680669137
Cr 2.89839843713598 4.615113681627992 5.243392045020701
Cr 4.269827271548797 7.525616357857175 9.424077870207851
Cr 6.4219469588572204 9.881737734567578 6.2875103874967335
Cr 3.855409514030905 6.768792761483862 4.545041405771956
Cr 4.228951933858074 6.457106425234397 7.147422080672249
Cr 6.161802438362337 10.138400192632108 4.442040369330401
Cr 4.342395570160221 4.158919758507919 7.337545092424823
Cr 5.643172242878996 8.162676349935905 3.120129789291556
Cr 4.015633282545281 4.327130547377539 3.7257458231008673
Cr 6.321162274677625 8.027391736401203 8.040419713662482
Cr 5.801996660738204 7.740780037286199 5.571475799349803
Cr 5.338693747544611 5.315225640803663 8.995896959042291
Cr 6.986432792241596 5.702569353464764 7.336106547878428
Cr 7.891560157999626 8.67111141656145 4.428364895572297
Cr 5.758858705959628 6.16588258710519 3.1526232772461644
Cr 5.536500502993881 4.93989183953386 5.49769335953727
Cr 6.5887415719971 3.256887587138156 7.609429490548866
Cr 8.083654554581253 6.869749944427153 2.973754109769976
Cr 8.223984358195505 7.9837432489407885 6.461500655796342
Cr 7.666737451161944 4.567916557344306 9.69844612774907
Cr 7.659705407995621 6.15630949276522 4.864819444303807
Cr 6.774324845476153 7.072098238937069 9.96432347300052
Cr 6.844254146192884 4.004652644707811 3.372005143297999
Cr 8.90072152866429 6.81572327635999 8.515706043835946
Cr 9.063594866614501 4.186063676622443 8.233100559735453
Cr 7.821664302553107 3.7943369422270297 5.693621545890264
Cr 10.113732090438868 6.975426632747339 4.728261618447873
Cr 9.382813028411581 4.566022528799177 3.852465312094248
Cr 9.594126812012416 5.667472667468875 6.470054700724971
Cr 10.113672910680892 3.1150442283167252 5.964573157233262
Cr 11.345725768030379 4.7549300558549445 4.59779944812831
