32
Energy = -243.69763337 eV
Cr 10.188346502509685 6.85814450927829 12.202778120093418
Cr 6.263278860537423 6.995086627725589 10.344964020895802
Cr 8.349918654053045 9.26818394618669 7.5111944690553605
Cr 8.328943045135025 8.659901480019832 11.545488085374267
Cr 8.359868618218526 6.146557137860649 5.602892440760573
Cr 8.752666057041983 7.477743320604935 9.69596245192662
Cr 7.951715823788456 5.112988481631239 9.733136671251433
Cr 10.283270042108299 5.351485766022037 10.493246947369562
Cr 3.7231392900718014 5.7873476194384015 4.620709654810762
Cr 5.243092948960255 7.989517974132057 8.123064798384515
Cr 5.826086731926897 10.179789664721309 4.150612309379652
Cr 6.909218444379783 9.157563744415903 9.220795160685404
Cr 7.492704284938468 8.006093826450345 3.6505403537038945
Cr 9.259577464168187 8.608090828597755 5.525315530705203
Cr 10.203686712307885 7.239913218674068 7.28387868837687
Cr 6.492053826202976 5.658937369401866 4.312566048365837
Cr 5.192312959997264 7.719933567887064 3.61295818268874
Cr 9.558511884074303 5.294322726468904 7.974125055594259
Cr 6.0789628075568585 10.066626891177156 6.900762701485818
Cr 10.403729593900566 9.287122278221869 8.617835248768024
Cr 10.621610489064677 11.212896835420148 10.603442352942235
Cr 6.667533767280382 8.122252493521648 5.689543665834589
Cr 7.814803282784337 10.458350601751517 4.819999389583096
Cr 8.914911829836516 10.550173652522869 9.913101082520509
Cr 5.930753046288017 5.272627369436113 8.765886237531372
Cr 4.431496032489868 8.241901477725971 5.593169414059911
Cr 5.448633350526427 5.997178460673679 6.153871763644452
Cr 7.9355734210128785 6.26766390405033 11.878556168598312
Cr 10.554339568077557 8.806565773866366 11.084153300965141
Cr 7.263814975155161 4.433400538049831 6.928773064937844
Cr 11.215341058520258 6.8460528587872735 9.743047582140896
Cr 7.297327129202468 6.897845508287742 7.74213017004961
