34
Energy = -266.7476264 eV
Cr 4.8715659992852105 10.421420564684547 9.020910982182198
Cr 7.112080549843305 8.997896861201685 8.758462940643508
Cr 4.866919133362406 9.564355577232456 7.003400975878618
Cr 10.28885930085528 7.12852969187874 11.523065000567117
Cr 9.164752758367616 9.05735527123669 7.122869544813388
Cr 5.875555294099253 10.204583312697125 4.636369279506583
Cr 7.552286706547971 4.061494883571231 8.20792233363256
Cr 6.081017651605447 5.768454037704461 6.983225049030678
Cr 5.030181942460358 8.43177577160799 10.425622175200218
Cr 11.06379651288545 9.895898499028513 8.080422128221421
Cr 9.21804451705007 11.75071991561247 7.217842127307199
Cr 6.55590366761025 10.317859436227693 11.040955949846827
Cr 4.581678620967871 7.526214790481881 8.072313750718898
Cr 8.543372308588115 5.602264923468054 9.930492163814874
Cr 6.736113427563896 8.180152673463978 6.42081078889431
Cr 8.907465460958687 7.3360753661346 5.2714672429713945
Cr 4.9987724979460495 7.521290837318307 5.06037383376467
Cr 6.933357026965258 11.794503909468098 9.107046198412592
Cr 10.7810351926969 7.1243145690041025 7.758353113592527
Cr 7.002680697201797 10.811061063611142 6.924291483668888
Cr 9.354972697251952 7.926077091677041 9.543589316267292
Cr 12.036512650913455 8.20537055269971 9.646222419115382
Cr 8.530366850184585 9.359391827959618 11.443985730657703
Cr 9.986504996759555 4.404896823561777 7.957637868993846
Cr 9.009704755698378 10.622361268003717 9.406385315156479
Cr 7.159621567312317 8.526512010727899 3.7851362243626037
Cr 8.306045534412833 4.397198199514032 5.830777512853252
Cr 6.928642714759136 5.968730690185874 4.797228977513824
Cr 6.799681143747122 6.800504665184902 9.181352590530818
Cr 10.936484149855652 5.664397292625257 9.772499197630152
Cr 8.568564050090087 6.396545957013489 7.370233843075074
Cr 7.122824187640596 7.532567546457625 11.25142511036249
Cr 8.557465183742169 10.074257262844975 5.109094959546866
Cr 11.050583589142068 9.72641355049654 10.775619189325452
