35
Energy = -274.80205646 eV
Cr 3.3055973034688595 7.136491579634141 7.006969559359756
Cr 7.061026338301907 9.769562225351809 7.1975965958872985
Cr 6.326755152851339 9.07483274126628 9.135317694852313
Cr 8.758174725768013 5.927244300912276 3.6631462218002193
Cr 4.115632204641783 2.6128054110885115 4.859270967098295
Cr 2.0557336436836566 5.069640122319869 6.817378378272453
Cr 3.286910330636553 3.3859116515554533 7.207434944587331
Cr 6.18863101321154 6.551989461928503 4.534788161560364
Cr 4.411755196940025 5.262276667916583 8.073861127024347
Cr 8.194753839826857 7.3731726931783195 5.682733269619749
Cr 4.41680346603139 9.613196647146378 7.1038369885170685
Cr 5.736424591584991 7.440168020569363 7.062156521371764
Cr 7.49336851846726 4.585319600896167 5.077388865001343
Cr 4.469630019170387 5.258141071704083 5.5750913501271775
Cr 4.000241614361685 6.173719405705281 3.15904476367561
Cr 9.412792125004254 3.1946338496445814 4.355561405674912
Cr 6.802607272280221 2.1813555786141956 4.570074764713912
Cr 4.25683795875657 8.087541670836211 4.902197348672107
Cr 5.976691342853164 3.6688307183671154 9.01667963195342
Cr 8.02773066186921 3.043032795221337 7.110182031911342
Cr 5.625118747502442 3.1748034166530363 6.618818828900478
Cr 2.702149764439741 4.4223954661792355 4.55308550453412
Cr 8.189493230605542 7.479275838317353 7.981093445871797
Cr 7.476419496168415 8.22737047815744 3.215806231010028
Cr 5.949609960754166 6.387340486510262 9.408716019955419
Cr 7.792716596423718 3.505747589194734 2.66213759306712
Cr 6.714938845992239 5.38932157335265 7.039504590800341
Cr 5.243204115238764 3.91149096392687 3.6341092540912427
Cr 4.090209774050124 8.020008155275345 9.056373976439252
Cr 9.36569666447079 5.448473823468628 6.477080390286882
Cr 6.34359430690042 5.8359753580379925 2.2712511482791107
Cr 5.579421050904843 8.308024328463507 2.7003946062414257
Cr 2.3734359586698868 6.590868562951468 4.638712907255336
Cr 8.271079186701023 5.060583182902002 8.77398125169215
Cr 6.160906030925554 9.04932721412511 5.140138121641942
