30
Energy = -169.98446988 eV
Cr 8.977010732943729 5.486747804988784 7.432080950483584
Cr 9.578266978048553 4.70325943998832 5.119156439806356
Cr 8.307310643329485 7.832092917082458 7.561938605223696
Cr 8.59513233592706 6.709130186008459 5.526607095799947
Cr 7.9943557229143 8.880538315709787 5.290856857909843
Cr 8.611770405659573 3.2220490467548335 6.482387430919555
Cr 6.865901930773457 6.117286058747269 8.312759967612818
Cr 6.7102818502642165 9.832100687805587 6.9289947851754174
Cr 7.402488561000039 3.798279840006178 8.32863029545781
Cr 7.744431190887507 2.8116599847581267 4.451267997378831
Cr 7.607708539813691 5.127100918185669 3.968327375310561
Cr 6.716821098626619 7.3140845156530085 4.046318632210475
Cr 6.988985097126644 4.949331638527002 6.2235817810635865
Cr 6.14883831530876 8.374343323387981 8.551684445945991
Cr 6.299164892688238 7.396522900377225 6.356031871553788
Cr 4.476404222803092 8.898882746536849 6.7807049240878206
Cr 5.869462798275611 9.595471509160532 4.774459718460725
Cr 5.674969931884625 3.7915099591962407 4.4211121270800815
Cr 5.081022209727801 5.862574342575584 3.4135273433332807
Cr 5.2052022245910505 4.412966067456558 7.700141683768075
Cr 6.231052699858703 2.670753498444206 6.392474331568498
Cr 4.430924635466337 7.836400140389462 4.694359965252693
Cr 4.53828399302106 6.760134850614307 7.861159616722277
Cr 4.585429039264383 5.651109023091099 5.725503874747077
Cr 3.5001001715302107 3.9942046375981537 3.721250486653893
Cr 3.9832295111215874 3.3641706050661107 5.983573884385798
Cr 2.9539823960916705 5.047422700357349 7.3663527501141814
Cr 2.8357549835367877 6.423676594028233 3.9383759061283596
Cr 2.8512462344553526 7.208671107633032 6.289569726198146
Cr 2.0604935938578715 4.8166929963133684 5.270472551491894
