35
Energy = -272.83259518 eV
Cr 6.791209793516568 10.51416804518382 7.082187874008926
Cr 4.723767793782344 8.838601853949852 5.883033939811337
Cr 6.351582439747817 7.009294347124771 9.216333749849717
Cr 9.040058023549566 9.37298883438814 7.61863137449697
Cr 3.78832303390272 7.891262931186021 9.358045768187399
Cr 4.145657702698175 4.930808312648619 4.311708546197763
Cr 10.975919352494397 8.017477044957566 7.660871491454718
Cr 6.567451927857616 5.061065245485766 3.3578879905370878
Cr 10.392802066248873 5.485744408456032 6.520781701452692
Cr 10.019747898804258 7.82551815395833 9.648105322369553
Cr 8.75699416752308 6.737680827487072 7.785289182713068
Cr 6.303874206995238 4.190129704053993 9.446812698473694
Cr 7.832025254137019 8.927356195655028 9.248464541780887
Cr 6.405617838951757 2.779531311095022 7.437163458307481
Cr 4.078453943179507 10.689596298714804 7.200255515499382
Cr 4.454486630820234 6.867702908628727 7.551548651194504
Cr 6.119593631205709 7.148414782478178 3.300329047787273
Cr 2.6867052244601104 9.82336355158706 8.60457868953179
Cr 2.7043557388469592 8.352358820454015 6.967631471705754
Cr 8.27703628251078 5.710971179519708 9.587322013069615
Cr 5.187550908807463 9.120143415367382 8.512393530453833
Cr 8.518479095924626 3.0596185588708207 9.405817898795737
Cr 10.54773090999614 6.191024011725358 4.312873735860413
Cr 7.201586942233408 8.889503055677917 5.0606981198863865
Cr 6.4810427373225465 3.9625068908066368 5.459839209625864
Cr 9.397087891213177 7.969688432446059 5.598705891348339
Cr 8.558338909393227 4.125553912185211 7.241535947386148
Cr 4.435358881299045 4.675395171203282 6.796670907566144
Cr 8.5639051527598 7.036508380458094 3.1787579787835996
Cr 5.7733176327430495 6.567270432482239 5.436870795565317
Cr 6.531897755297199 5.4260427409451095 7.498136850700757
Cr 8.86868454941547 4.043853484108175 4.670456537360887
Cr 8.022115194745338 6.146163854462941 5.299848723668479
Cr 3.202557139542791 6.591242857620167 5.36134328498343
Cr 6.872935019059903 8.040188565355384 7.049427107515891
