32
Energy = -235.15794983 eV
Cr 8.117970032429094 5.1870372524513675 2.8838588646920194
Cr 10.005120348839132 4.01081619358244 5.2338029218672055
Cr 6.002435571599684 6.4628721885548925 2.578398138016395
Cr 6.977668327734562 4.09625987784474 4.473322065414116
Cr 9.035913443656746 5.814083250434338 4.893560994333595
Cr 4.2518764076224365 7.735547724692112 3.979956828649235
Cr 9.815106839272069 4.226042273291659 7.816057351962213
Cr 4.50255742739613 5.451319792534695 4.752719030374551
Cr 7.859349931734932 4.5631927953243885 6.657437973294586
Cr 6.7270831680517915 6.631197051617856 4.767535723986884
Cr 5.370339540565763 5.398900754653719 6.909536290642711
Cr 9.86787107204284 6.4302564115974015 7.042805837210577
Cr 7.127034332541626 4.595299605346347 8.934531457673273
Cr 9.149909590408276 8.399401313415652 5.61575141347423
Cr 2.952512158355351 6.499209456652147 6.2673729422563245
Cr 4.6750416541863205 4.341255830852209 9.288914364014836
Cr 4.890247167268264 7.769411110064575 6.161019429161641
Cr 6.273329912796692 8.903315915907813 4.018354252490295
Cr 5.052674671062895 5.2318988486563685 10.812071377910923
Cr 7.392994903380093 6.788076287965408 7.123127138787206
Cr 8.764002075967198 8.80072448120725 7.959086001205847
Cr 3.9884379372068763 6.600049383892321 8.446353014368865
Cr 6.8816567548703205 9.116592079805823 6.194096999145337
Cr 6.241383482638669 6.72265422209515 9.158885317636432
Cr 7.694535203048238 5.686651101875776 11.104519612906467
Cr 8.893192942161681 6.828245810465688 9.403038979407976
Cr 8.433568183960185 10.898646598819733 6.673243503574251
Cr 6.109089089593424 8.826323883992199 8.496602827850968
Cr 9.290254275029977 10.241328266240199 9.614763073760894
Cr 7.647632242308529 8.712320794784471 10.362825102874497
Cr 7.144472750311172 10.83793707875541 8.434861608786662
Cr 5.389145097672471 10.717538898339301 6.465996097981751
