39
Energy = -300.98314361 eV
Cr 6.093677647062997 3.616112979160391 9.408030453797053
Cr 4.655224104074218 3.3495402498129168 8.04047521860576
Cr 3.1821344067631325 3.972108561272506 6.084111238200819
Cr 5.349367203168351 5.2742496858197505 11.393900535132257
Cr 4.234183199232442 5.493487448513631 9.725466718481073
Cr 6.853438172122575 2.2921740406357127 7.112776951154485
Cr 3.26404753172012 5.440671153560503 7.40711010789565
Cr 5.679970308544273 3.7908028854090006 5.580208846538302
Cr 8.227831669438942 3.915820836680963 8.249532863974895
Cr 7.256015595500318 2.457784720537206 4.3284564200630715
Cr 9.089384243054074 2.1489368604447683 5.9984391265072485
Cr 2.0327918823522526 5.15544686432246 4.138723552058342
Cr 6.930641298736279 6.17548546074583 9.499554040240776
Cr 6.048779717027219 5.421659388336451 7.410038832538062
Cr 4.3243711489777965 6.289019091257731 5.520783066172204
Cr 4.365169708960807 4.671069348225364 3.6188108741022798
Cr 1.6012534386910537 6.2702049970109845 5.667287027049858
Cr 5.234272378147158 7.84669986536912 10.214330202280193
Cr 4.824096175743302 7.474726444612862 8.113300936593934
Cr 6.350726798552606 4.263797168309046 2.903649138994682
Cr 5.4392477159539965 5.677156601945259 1.2874466584711841
Cr 6.816447977440105 5.742472609467224 4.728288114977135
Cr 8.251093127952787 4.234590367549508 6.071634161726714
Cr 7.993822817608643 5.029400925264104 0.972402062236274
Cr 3.298173472526752 8.120166274734016 6.050273905426876
Cr 3.0657800830553956 7.345101103187597 3.4737596882510453
Cr 8.234786111633078 6.4796202475287465 6.958034074158874
Cr 5.408791387904894 6.815342623314515 3.224642466836429
Cr 7.077968870101496 8.123553915843784 8.30885882235887
Cr 6.168415095052313 7.8568675359112845 5.999055904251054
Cr 7.886959320472704 6.457659963002173 2.4075695796989436
Cr 8.791092047418168 4.359521087430343 3.808132912453031
Cr 4.8779976983087145 9.665988372572238 7.259074394026922
Cr 4.716041405241661 8.823290074647327 4.639319735816288
Cr 9.335764402675695 6.406403008750571 4.738316437304222
Cr 7.539835336698777 8.152872083965766 4.20804544376638
Cr 8.650762861672082 8.57971699762403 5.99983786835539
Cr 7.2836441535838174 10.20491732670237 7.044033837040669
Cr 6.723626546071684 10.305558231781356 5.227171112654138
