36
Energy = -284.30453728 eV
Cr 3.6826187733692306 5.517790948047164 9.695740528996991
Cr 3.1649638112550806 7.238415629258514 8.066185828813682
Cr 6.881222656121118 6.436946160869863 5.501779657171701
Cr 2.238900242533158 4.446955037475719 4.346183192362931
Cr 5.31563422141193 9.240548341891081 4.579656042499942
Cr 6.383644536745648 4.901682192717147 3.5215770683895786
Cr 5.264655663257489 5.432176004387083 7.39367822783978
Cr 4.1250053461444445 5.227509484553612 2.1693212276967615
Cr 3.208215491344038 7.37032881537711 3.678532638394143
Cr 8.484526342086909 2.409980157871119 6.0550372381071575
Cr 9.114409853556717 6.99744847701856 6.006731494367721
Cr 8.122696308453559 6.864990522783375 3.3376148904336818
Cr 7.810416876796888 4.765076962778102 7.132260859153891
Cr 2.0594727810454043 6.763417192560028 5.517840308144385
Cr 8.751161398496302 4.525343592610036 4.749573319355452
Cr 4.569155739956884 7.205561327660944 6.037395976480357
Cr 8.450842841088804 4.49560120748373 2.4162815181698125
Cr 7.775044090683555 8.769556950310715 4.483976960979533
Cr 4.156262283435015 3.0065000983166708 6.253269055940333
Cr 2.6360130416290835 9.061119999197683 6.1687101805780715
Cr 6.363577758357656 3.8154581170962514 5.502849900735007
Cr 6.685581446059566 5.931410975717319 1.1091872244277008
Cr 2.789030687362964 5.141320764481554 7.100377219823722
Cr 5.582806778606569 7.158257977264534 3.2245719625350997
Cr 4.619051542385734 2.8477534894311525 3.632183257151192
Cr 5.729682889832172 1.288947890822585 5.3711595421051905
Cr 6.33856467528426 4.697556134012137 9.371093870834997
Cr 5.838742575629454 3.499048223729304 1.673498823827975
Cr 7.347576753747829 2.3598124612286493 3.763692804646484
Cr 6.481956456584947 2.527160236661339 7.556634879380885
Cr 7.674609631619743 6.704156388923158 8.203134105213595
Cr 5.437572048522761 7.422959032995986 8.672980064018944
Cr 4.190929159219595 3.3408167938465865 8.661350674756722
Cr 4.837495107562059 9.335754925171276 7.066264541156881
Cr 4.226901544067094 5.176037119551406 4.755542859066137
Cr 7.030911515770315 8.556842888790989 6.714987520354554
