37
Energy = -288.56219245 eV
Cr 6.996981107297977 6.1755603126330225 10.02929801308109
Cr 2.9843502293098427 4.5831529232666615 8.761802782082503
Cr 4.265819361075435 6.811833086645044 9.314785733157361
Cr 7.32496319187347 3.815369101316175 9.56235218295989
Cr 4.480697157969758 2.918261835820702 7.222005092937082
Cr 8.878356585653005 7.957523573426879 8.677681409628088
Cr 2.2017085568666652 6.2351375904060005 7.55279682103716
Cr 2.966701359104035 2.179646025078517 5.140325711157742
Cr 7.712772205802655 8.987525350296387 6.344452814041221
Cr 6.868448966709956 2.900592523730676 7.1337735743476625
Cr 8.33549232825989 5.218826062591119 7.804738485454014
Cr 4.439922415376151 6.8003406407283045 6.795620566407921
Cr 5.376317688831467 4.780549271337371 8.321079594005973
Cr 5.431324212482656 9.050848965977874 7.823906219802019
Cr 1.7762935744035209 3.0300329706584175 6.777815596220115
Cr 6.848768791182486 7.116852835523599 7.75619910293168
Cr 5.889437480628243 7.8592568617599685 5.260562915061094
Cr 9.47218529087302 7.32829316522416 6.412063456306008
Cr 7.490626014072176 4.296851627125857 4.066336427425519
Cr 3.576159776136655 4.576802404760291 6.128656548351674
Cr 7.749868769035505 6.312209763093096 5.247266499855602
Cr 9.561129277463035 6.142318065474301 3.667646944278739
Cr 3.7866240062674468 8.991878973798073 5.343915015023136
Cr 3.1313831376700367 6.5597879276036855 5.146985108093093
Cr 5.083587616775014 5.74822210216213 4.393945070158165
Cr 5.6527078445744605 10.422250907256428 5.782031850221072
Cr 6.6231045512222915 2.014890284433491 2.98093875731153
Cr 5.317051083340801 3.138456899921071 4.899045921320351
Cr 4.689024099832281 1.9170320588954353 2.6926296846264535
Cr 4.2996103638538195 7.731359492183725 3.13071543512997
Cr 3.7541266235266586 4.208720188316381 3.885538903209699
Cr 5.958642304573132 4.353328450971875 2.4488416386178695
Cr 8.387547380548687 8.338349342018752 3.7228351554819596
Cr 8.534932143171924 5.138689388406817 1.888895642729961
Cr 6.928032700679217 6.811519556198051 2.8720847797029894
Cr 5.762442450167695 9.334428389838926 3.335749681269044
Cr 6.179812321862131 4.930254049594979 6.391633835048789
