33
Energy = -257.5611294 eV
Cr 2.465832090177431 9.262251047092786 5.810833354668468
Cr 7.851557436505038 5.319988092396748 5.1934916069206265
Cr 6.948549998829338 10.845994818723922 7.964005405273546
Cr 9.05157158149609 8.01606947376528 9.071972222378223
Cr 10.147694113815659 5.339289231879633 5.01715823190332
Cr 5.083555286124596 10.242687349962404 9.486077165362676
Cr 4.422969368157346 9.61989083729598 4.357324483177354
Cr 4.820599049596609 10.480698578060471 6.710330972966483
Cr 9.540804965390235 10.638673895274747 8.912401188948431
Cr 5.307711790400033 7.923145868814812 9.91282496680439
Cr 9.320191486939233 9.63811122026513 11.280332754113736
Cr 9.710766473916285 7.67117977238824 5.1206928145818855
Cr 4.875044366620022 7.800530942784502 5.715404669533383
Cr 3.8791532002545566 8.78391823619973 7.799753035373587
Cr 8.922642902374278 6.5153584842499415 7.14997492778301
Cr 6.1721689858034585 6.084533113054227 6.903017466831199
Cr 7.234800953703953 7.705657167899956 5.119753865234616
Cr 7.536799171208519 4.329159112050167 7.852355636227929
Cr 7.652615340130081 7.449487371455053 11.3306545812045
Cr 10.224396225596019 4.630248803194839 7.108406469781905
Cr 6.613951611652854 8.455777307073376 7.5959473668708055
Cr 10.085769203807791 7.221543528540098 11.440580123975453
Cr 4.23486196401147 6.459869326940189 8.203157110958188
Cr 7.023739077956641 9.947737800142779 5.224941491466796
Cr 11.838528765714294 6.697689627302002 6.6425108811069205
Cr 8.778225640697276 9.21430838848546 6.871323841123939
Cr 10.970660915472443 8.818238061808566 7.28969234131442
Cr 2.767757585752645 6.929690853863748 6.055072594844515
Cr 6.937687520146591 6.50963795566812 9.326106313880485
Cr 7.407975462770716 9.291097773024266 9.810710948519276
Cr 11.109143449265513 6.4320037838769295 8.872810548911955
Cr 9.096737971132875 5.486980452795106 9.70434387033959
Cr 11.315355513133213 8.727337106037286 9.579509097796665
