35
Energy = -268.74609464 eV
Cr 3.6381826667986594 6.083334751598799 6.659526459404396
Cr 4.558158705405558 10.024101371218112 5.042310137351911
Cr 2.4570291089206244 7.987794189080403 5.631800640995516
Cr 4.5861431133725095 7.552671742722585 4.46655634173087
Cr 8.757909813264648 8.37452485873587 4.324316956765092
Cr 8.128351652645598 5.928430832434242 8.279681403181035
Cr 6.818527921653658 10.711055743877385 4.785849696491756
Cr 8.557583903516122 8.195622360128615 6.884518846640465
Cr 7.032693978305584 0.5515482368832003 8.241637123569548
Cr 5.905223264172591 6.425844199942742 6.615278561123522
Cr 6.252349964555042 1.8733995641884147 5.884370136241977
Cr 6.289570876329265 10.086604700318814 7.207287025104887
Cr 8.609259708639167 7.374366137082832 2.45206183853529
Cr 6.3332480012739865 9.059230833239184 3.246661409072534
Cr 2.0364673807821254 7.790830376795029 7.731821138156072
Cr 3.9914303253656134 5.336771652866843 4.420404063706654
Cr 6.744919848666569 8.480196889095403 5.636534793516491
Cr 7.054661521578642 4.029166655820891 6.979378379672911
Cr 9.510535154096122 4.281144535227465 7.106138552327422
Cr 9.947519198137627 5.771674683099433 4.506474779991825
Cr 6.679749957504682 7.849811648517399 8.285243428071787
Cr 8.185261175244674 6.0752064357463755 5.7151647153646525
Cr 6.618345360812673 6.520003178872057 3.9282779879144294
Cr 1.6532367220478505 5.338938177399844 6.416630193554826
Cr 4.420790623869094 3.920395327257205 6.792528011392951
Cr 8.21780956676847 1.8158158223702174 7.037432825188013
Cr 4.251788880512551 7.254959345281537 8.748016541616868
Cr 3.045557100566478 9.96166497875287 7.769474138303861
Cr 5.832436968008476 5.133404532789469 8.507262869343815
Cr 5.801319378123789 2.358613018759173 8.178253689934172
Cr 6.184644062869546 4.2620883763971795 4.911592071740268
Cr 8.526300123604493 3.417866612191647 4.903148264750285
Cr 4.457759945280101 8.63297385442591 6.925511094991724
Cr 7.912093660003384 3.1053105095825 9.041192984679546
Cr 8.284752868981242 4.906167798610538 3.2867675664446985
