35
Energy = -269.19508274 eV
Cr 9.890661076428106 3.6955353699753566 11.659874172096986
Cr 7.4448934038331 9.919033679817149 4.420376863508512
Cr 9.119238049141432 11.345570751842919 7.654745008957664
Cr 7.339466098392097 9.775808383298278 6.754538062114633
Cr 7.58198873381568 5.385037496502057 5.8798420636951665
Cr 5.167750903436171 10.411128743911888 5.162948195560441
Cr 10.79886066483429 2.6457967456124782 9.798404200347566
Cr 9.796223322816456 10.40528931010909 5.64314046566517
Cr 8.804741925615286 7.733376143198597 5.260598942778394
Cr 10.035314576749347 5.2625948952826045 9.439763242521773
Cr 9.722417079378788 6.576394016136759 11.577034455838207
Cr 7.368852119834382 12.141926873467808 5.930652111779319
Cr 9.338915984524906 5.911968235805568 6.849508913495582
Cr 9.661794034498687 8.594189343037243 7.18809436556304
Cr 5.944574243008801 9.318281032175971 8.968973697485463
Cr 8.085904005648809 3.134991315838939 9.690322140610315
Cr 11.26979639164545 7.070724337578066 8.15590528419123
Cr 8.475115076370322 9.587029549061915 9.171602333846993
Cr 5.252995148063266 5.981325605519532 7.056547018858882
Cr 11.112323765304023 10.073794182121857 8.36889770829006
Cr 7.211752904240862 5.036996374960093 8.172099222647924
Cr 4.788949478974631 8.503232075594024 6.841105649500031
Cr 9.276645368538164 3.691883714562036 7.791141116557858
Cr 10.3435779103103 8.357834820942651 9.97979816877545
Cr 7.3858738095565 10.60449816689159 10.692973821623022
Cr 9.542827375699668 11.496904625776375 10.177358294709403
Cr 6.018114963140209 6.709187400068071 9.368676016585638
Cr 7.7957471451235 4.94313608677773 10.636403027216732
Cr 7.524160417676787 7.832220463115751 10.788917718652646
Cr 8.639472648543126 6.858827652694821 8.9707275427397
Cr 7.125109463647805 7.434792530238484 7.154193792732844
Cr 9.194484655248214 9.383373757637623 11.784693154922257
Cr 5.441811028179715 11.169106951882704 7.345936088429781
Cr 6.098716713685442 7.795468844178136 5.219122613205416
Cr 7.289273741412288 11.859099697818676 8.781460131328808
