35
Energy = -274.02284628 eV
Cr 6.65928991887325 10.27167640717818 11.114078181287832
Cr 6.962469782425989 4.325626862065984 8.718582080910783
Cr 8.383115413364797 5.198508059779611 7.383547209129898
Cr 5.820078088075719 5.880732111028506 6.670929493762339
Cr 5.9931072128261915 6.024336477312635 3.8886126764153692
Cr 6.41703407121523 8.771356908463579 7.144206250489611
Cr 7.975269426656771 7.2592942016005075 5.762432393792414
Cr 7.007903349291432 7.827616754611488 2.963281205976915
Cr 5.643282201311622 8.343337389030292 9.724435012703353
Cr 4.3217937601453436 8.952151445724075 11.767362430043237
Cr 8.839835027911752 11.468882736201536 8.261901301090088
Cr 10.464135874132824 7.883036898428958 10.241893176982778
Cr 9.08669112828099 8.950358452059593 8.150846198738718
Cr 10.420668232794519 8.49571396832164 6.105892410551852
Cr 9.812483206033747 6.727472171577821 8.224188584355769
Cr 6.8338946610157425 10.332062803460564 8.739055827776996
Cr 4.900149114862224 5.660199080417541 8.954562735679406
Cr 9.090366521586509 10.421266325127364 10.449821896522668
Cr 4.335830903906732 7.703665091348656 8.144015214439158
Cr 8.666383920988995 5.613406795570784 10.126847663045925
Cr 5.22329839695055 7.839021657195271 5.343427162003761
Cr 10.155926959713149 6.2367255235240675 5.654990553151642
Cr 10.719744036371956 10.706517377924285 6.742529046548507
Cr 6.651738222976321 8.122568887189832 12.236898360410132
Cr 7.167422594363884 6.959156290474945 8.371480560945733
Cr 4.049118003820811 6.960856723084314 11.217328907847588
Cr 11.198019295403062 10.081088255832237 9.081041407525655
Cr 6.3531413556474465 6.1487763510843365 10.762574959019771
Cr 8.84908727830565 6.427431376762795 3.427950938884064
Cr 6.777080543774085 9.602568499539418 4.542410121084791
Cr 8.186644561450843 9.96938430958912 6.398630325386236
Cr 9.166807021515234 8.870642221527312 4.152215083957654
Cr 7.431330648118885 4.884446901287578 5.081201394890472
Cr 8.148746039676858 8.187508492540577 10.227421855393834
Cr 11.830001718002809 8.174221854004399 7.868048098570074
