35
Energy = -273.88221809 eV
Cr 8.409447687620442 4.393185529851717 6.445382165926668
Cr 4.931738631921956 9.423689562213681 8.745710132859594
Cr 6.96079769726465 7.301540027956931 4.389642682524819
Cr 7.772079379538886 5.113353542425595 4.180839743188252
Cr 7.30453145716528 9.332144920573215 10.522954377643075
Cr 8.052054862754824 12.219062193401776 6.945432722619712
Cr 9.132075617629198 5.87481681772672 8.756296796917258
Cr 7.305929608022885 10.267263000673928 8.296698750427293
Cr 5.585136117069825 8.260309964540907 6.4998323951971555
Cr 7.968071511219722 6.681159780624969 6.524058114749505
Cr 9.261822232031465 8.4568035645585 8.552224003941346
Cr 5.863690260255555 5.518144418669343 6.122107699292064
Cr 5.4437291898111075 7.5951833935965976 10.169586628023671
Cr 5.926788346791032 10.56846380781418 6.432239587341029
Cr 8.650909023765864 3.293403559102895 8.720753216599284
Cr 6.388251871116461 3.3116571631583867 5.679103577218318
Cr 4.491491005421858 6.6503048006981 8.18229011534289
Cr 9.54815789290374 6.677530310711726 4.7432807657902565
Cr 8.280810119035483 4.237058557546929 10.841394262263899
Cr 4.805141519950398 3.973348825223574 7.808132001311243
Cr 10.77586068226048 9.18535844331696 5.151517875183051
Cr 6.973532255227356 7.775947466921146 8.383893670789353
Cr 5.96399357290801 9.224964589669037 4.091592582005539
Cr 9.85042950843429 10.119743451820074 7.3632390412434265
Cr 6.6148290283539914 2.4886385583740416 7.941943270152978
Cr 8.82653459883781 8.7905913627139 3.6949999506022126
Cr 8.185987708635654 7.022668879915304 10.456271414916063
Cr 6.1916786317551 3.162660984075293 10.17064045806704
Cr 7.260079109027863 11.360695832691245 4.622259292017498
Cr 10.457784038670589 7.474018920769134 6.78848862999807
Cr 9.640772052223447 11.194772728503835 4.873839195272663
Cr 6.385136112222761 5.684474518375813 11.2702240579832
Cr 4.396022385988733 4.876184350468512 10.050329053000118
Cr 6.781212699579023 5.242046128137814 8.711281663730983
Cr 8.167122000807504 9.185111879433824 6.032926717099866
