39
Energy = -302.44671041 eV
Cr 8.126399775206274 9.329966255539544 6.434446371336134
Cr 9.547310653851532 7.21711820218534 7.124129607877012
Cr 8.209867869246128 7.447457469001553 5.302528910012799
Cr 7.474418008094294 8.602389448952598 3.5024471886216
Cr 10.86665183067207 6.730253736090087 8.795406604496952
Cr 8.966590482235496 5.296547254811703 4.869908843453475
Cr 10.047631716019533 9.285193591305633 7.666508150476234
Cr 7.947670871918839 6.529025695244318 2.783639368630886
Cr 9.609027182563638 4.761916615694542 7.464344229347492
Cr 9.706346990492355 4.5456141100002405 9.458375421198689
Cr 6.496650226850395 7.743712533261195 1.078377309006451
Cr 7.63027431474684 3.688102754566294 5.587542157740529
Cr 8.629652072527826 8.736736045378361 8.975028734315725
Cr 8.073485982240104 3.045507626799074 7.791071974901923
Cr 6.695148109607864 3.956239748967167 3.468053098846169
Cr 6.377146435890703 6.261709291652271 4.479722719891208
Cr 5.786821823034008 5.498070813345126 1.9226051663869146
Cr 8.474156569299845 6.338584017093286 9.117897517843968
Cr 5.2751611463174655 7.698930892341635 2.925301052567407
Cr 7.218417652622625 5.453774608076909 7.067253898975812
Cr 4.2115544293147105 5.535937510515386 4.028937889510053
Cr 5.991693247445711 2.897698725769083 7.428236772275382
Cr 6.862421225984059 7.8865350276447 7.595547397071285
Cr 6.280943381443034 6.661107990351891 9.616669727913528
Cr 7.1095347126835655 4.3638205048146 9.18801578975008
Cr 6.003982182741892 8.719890756502412 5.151924165739655
Cr 6.832121723273118 10.544866641406717 8.081145305847423
Cr 5.199288356945718 4.120021831626158 5.737856010525521
Cr 4.986316511328764 6.486462745103454 6.49047670949523
Cr 4.83974979264135 5.00127748809625 8.170080531013513
Cr 5.970400593695244 9.25932063935401 9.67723445960124
Cr 4.818192084946535 8.89351286496464 7.23888733754606
Cr 3.750596375634689 7.574402578878274 4.868833635986439
Cr 3.4235365983468404 3.317663320813058 7.204642152030769
Cr 4.355726769003836 7.469918447178525 8.720142642598608
Cr 2.7045103033027154 7.417403055552837 7.107185204101731
Cr 3.003369944303023 5.209969555655437 6.14037607909459
Cr 2.4596616240432603 5.547367090299088 8.512576721980508
Cr 1.8025155025636186 6.690917588246479 4.991588215071233
