37
Energy = -292.80547067 eV
Cr 5.116601125438326 3.957804897132922 9.990633868128102
Cr 5.271730217927269 2.5715666558600287 7.567259141245658
Cr 7.321468749005656 4.421370516398535 7.5918454440181495
Cr 3.2781508411890026 2.919562709596326 8.9131446342129
Cr 7.485825064583356 2.10561238354712 6.803529257091133
Cr 6.191086888572983 6.496367339471558 9.445885383784777
Cr 5.612560135163277 1.845909084621452 5.010031879690391
Cr 3.2457109044017116 5.813704417144079 9.663822889073726
Cr 3.751464466450015 3.220051738564794 5.933282852888742
Cr 4.885137037560015 4.885106019086726 7.85436339538538
Cr 8.067889893878888 3.3332851740979614 4.814761478602393
Cr 8.791198683836916 6.817918618714213 7.853280985094221
Cr 6.070012385564806 4.471173378244393 5.443821193690705
Cr 9.546399330844048 4.430191865962687 6.660188017334659
Cr 6.490960896861996 6.785242447581715 7.094522965449577
Cr 2.4038556703211023 4.7545299085355355 7.419234022935966
Cr 4.132517149167821 7.494828686032927 8.012527935352713
Cr 6.374771893411464 2.975955651082901 3.053454662356343
Cr 8.155669970896453 5.913779541577632 5.328471316869578
Cr 9.055066943503856 4.84333770845781 3.258514814600044
Cr 2.244223372312524 5.178500993551694 4.542784804796578
Cr 4.257694980021351 3.9942887184746065 3.6597205956560055
Cr 8.63620526332256 8.15705570271417 5.756274203879485
Cr 4.234276118294964 5.955469415082653 5.729005976344184
Cr 2.1107284392864094 7.0716265875560635 6.804539117991955
Cr 4.305648285027747 8.406339006371692 5.77034554986201
Cr 6.672865129352506 5.36396792324786 3.096808732251189
Cr 6.393646373543999 7.328798919568673 4.732868415244636
Cr 8.392724159153797 7.478280203138254 3.146507813894409
Cr 2.669594802670427 5.6632082466404325 2.068294178850387
Cr 6.511922139870087 9.053954559097457 6.736073707784912
Cr 2.426170480566581 7.621235737662775 4.3232984917710695
Cr 4.967400055723774 4.892730721341988 1.4078659192983447
Cr 7.5529243236785275 9.231987126065599 3.9608581934161786
Cr 4.3679990307353345 6.553263452427713 3.4511241846756966
Cr 4.9900547258125805 8.888875528605565 3.5215837164244106
Cr 6.446367154553275 7.579027380725316 2.0774933404175493
