39
Energy = -306.7632139 eV
Cr 9.301389044162562 8.136104032384306 6.76332578453622
Cr 8.345646052202754 7.137235913841227 9.048255016274378
Cr 9.498720659086626 5.8477369813333615 7.819420763416704
Cr 7.184652235203319 8.82224376562342 7.445827031841935
Cr 10.596680176135333 4.3925062574550475 6.077029743741931
Cr 5.033015301532507 9.685021636064917 8.16650414697047
Cr 5.8690761453855655 7.465437221989645 9.045740471257082
Cr 9.02667098350753 6.087554486776575 5.391988340678964
Cr 7.076063897099655 5.235978126157836 8.6990278502746
Cr 8.283238590619632 4.086132437195901 7.004797230890479
Cr 8.214230086824506 8.33678873935142 4.907966166871275
Cr 7.102349341445686 6.473348455325848 6.753533337159999
Cr 6.377516116944797 9.642631928628681 5.572667522796852
Cr 9.415181561254691 1.8949021553077 6.205637482945545
Cr 4.775013964116984 5.4500390115280535 9.914942549532896
Cr 9.238879783268944 3.61168814639658 4.471525745940291
Cr 7.177151054153776 4.642718388974118 4.8739836104700425
Cr 3.313919664600148 7.574775820027467 8.53484522973258
Cr 4.274242653866315 10.598598392566409 6.125406200171088
Cr 4.681690141529665 5.653507381791738 7.732668939553099
Cr 7.648604287925283 1.6901600783127888 3.61298658666979
Cr 4.9120895398519355 7.936646422691706 6.313222084815863
Cr 2.649301963673722 9.167173105078401 6.888891903169893
Cr 7.174370235157697 3.793269188520407 2.482610982997541
Cr 5.758916118944428 3.845344736701375 7.010194989320132
Cr 8.067764158208115 6.250585119670096 3.169322635628919
Cr 5.017081357974363 5.383656155257749 5.361251961063746
Cr 6.2991890022845745 7.239303819572597 4.406770812985789
Cr 3.9859953429998134 8.982059924929128 4.359000939033309
Cr 7.173007108354227 2.1455548377380467 5.833750077294541
Cr 2.6647413887750933 6.576866254847899 6.07557614983519
Cr 5.309274516600799 3.0761643954109834 4.201024841569667
Cr 5.450359539569573 5.231648754473367 2.8614786927004805
Cr 2.9645112095662287 4.209262676905017 6.772859034387313
Cr 3.588741700800153 6.743075998811708 3.8892836342968566
Cr 1.6598370980224715 8.464745158764908 4.869081940133372
Cr 4.275519492173221 2.367498389887313 5.912999329144549
Cr 3.1834870615610478 4.358378635387738 4.361786286484491
Cr 1.1749873353380709 5.506762979039515 4.805919864133141
