33
Energy = -257.65701155 eV
Cr 5.2901118093161115 7.206054799165381 5.930789227169009
Cr 7.143823798294225 7.050067260149399 4.586057280958397
Cr 5.687748712089212 4.875716830132829 5.411867957106458
Cr 7.974993444817228 3.4773652696195754 5.957136500350428
Cr 5.235960878491067 9.579819344016462 5.8588772278214005
Cr 6.1293992639555634 3.832652394182706 7.573856749757702
Cr 8.990262855667652 8.21253925664012 5.655258226602507
Cr 9.249186075178065 7.813767722322473 3.2277929564532792
Cr 4.138124758043327 2.9288227097815733 6.338819214213188
Cr 4.856815334631119 6.100174526787907 3.520865116296019
Cr 3.824560283798564 6.611193972159588 9.496801970391147
Cr 7.671621223692635 7.014330910869239 8.926444280735655
Cr 7.640685135368421 9.700432334212405 4.384771467351979
Cr 8.230720835113335 4.478507639308261 8.637151921563754
Cr 5.7743353681619345 7.48757475197677 10.424551972012615
Cr 5.682240188282706 8.71855741457721 3.582803777210726
Cr 3.5171810759105355 7.951200437312506 7.507862111298683
Cr 3.4037905044363503 8.037818322420234 4.465525585158268
Cr 7.226709311894825 10.431982320769807 6.732282350944242
Cr 3.7118824069766507 5.11459986033025 7.2423715934205335
Cr 5.827202892871522 6.149265397212705 8.021298372965425
Cr 9.47863842278953 5.31943445408667 2.3010293259463874
Cr 5.466324132165282 8.818673776523587 8.537528216162796
Cr 9.739215041555903 6.745145275668033 7.4508915431923555
Cr 4.292761858465439 3.625463385516747 9.099944379908276
Cr 7.438745705778478 4.756871173009278 3.9626035767899648
Cr 3.130129648237603 5.366951290583969 4.996907539956348
Cr 7.7798042911711365 5.756859670257044 6.557788499144842
Cr 7.319811898390598 8.203161199264297 7.042726994914926
Cr 6.246095888139479 5.139929763715261 10.407120318272659
Cr 6.6159403976495135 2.8007339207552864 9.871345353989057
Cr 9.568431977652345 5.759130172996903 4.673550233515738
Cr 7.499445988793644 6.765961758824827 2.1373967965726193
