33
Energy = -259.57758045 eV
Cr 8.319576136032333 6.902235110656181 3.994822337658068
Cr 6.442837016029739 5.696766687255982 2.440249816800409
Cr 5.909719996069648 7.291369147980978 3.783331310769191
Cr 8.48739242250772 4.501338050069165 3.5133234538035687
Cr 3.9479017930305003 6.274830775655365 1.7960458322971178
Cr 5.098651592959171 9.118567408122567 5.240487359981159
Cr 9.300948223108913 5.904702712793983 5.831313475248416
Cr 7.630409104950459 9.17966341852154 4.928573176073156
Cr 4.431582202372845 3.9510252534521073 1.7175508253110656
Cr 6.529440504760906 3.355561644842789 3.673305174136444
Cr 9.313026718932656 8.214840505818717 6.5916063882782785
Cr 3.357780375892306 7.183595798952904 3.9825835416321667
Cr 6.903104863560513 7.394905244119847 6.2713530048374695
Cr 4.563117339540166 4.934311274615363 3.997896071978973
Cr 7.183135668720983 10.00650237379127 7.108997695962059
Cr 8.425803381855644 3.5663918523585223 5.799692936837873
Cr 7.596070920065597 8.032539497648063 8.451474887672365
Cr 5.119621287690385 8.244735387156341 8.072306201379448
Cr 4.58011956004386 6.869722147757314 6.031215287145539
Cr 6.679623165781712 5.167475308917906 5.504484705848615
Cr 8.254422320820057 5.654787600596502 7.861605971667871
Cr 2.2304717750731835 4.5922407769891365 3.46713291515512
Cr 4.0825815503731 2.5187403072822683 4.273032080883791
Cr 4.36440090994202 4.369520872025847 6.219812001557424
Cr 5.842197859683751 5.821552341876352 8.094523959178325
Cr 2.3073976505169203 5.5107489114595225 5.708976068600789
Cr 6.072310475253888 2.3886625051515145 5.810860329215053
Cr 3.3090612933113697 6.178035882119015 8.03160296828229
Cr 6.379410227989341 3.542524031894895 7.844975524767682
Cr 2.2792687667593463 2.7923603451092394 5.46346384933708
Cr 3.974584602887352 3.79847038110883 8.636934854159277
Cr 1.8824705886480242 3.8416564758742076 7.536323198327854
Cr 3.940802739905617 1.916952530629445 7.08183564770011
