32
Energy = -247.18480212 eV
Cr 5.213104730435909 6.7789207500036195 0.9671042267557817
Cr 5.388870026090009 8.38145802579886 2.404265454015301
Cr 3.10870792503063 6.793618739477017 2.097642284675525
Cr 7.3028480862503145 7.065408792031356 3.05804814553936
Cr 3.732305518080762 4.460117923247915 1.988537143369859
Cr 6.547399987210209 5.046474150766264 2.146298712682493
Cr 6.1953972788066345 8.050416133027495 4.9785145706976195
Cr 3.7579889216757394 8.333981024863935 4.223488082168277
Cr 4.913331141902838 6.0873574976088465 3.5422768301493277
Cr 8.469332040758436 4.587018767285414 3.9998242705758447
Cr 2.330234329473257 5.836984382771863 4.139709292203227
Cr 8.243764170604159 7.052848003767642 5.744219484092513
Cr 6.60445927833937 5.343569121843305 4.93815795100774
Cr 3.6633715490762886 4.016177803140003 4.46958894060407
Cr 5.793679633882241 3.421971295715213 3.754733296037155
Cr 4.172449925049868 6.436437560796018 5.722740147761495
Cr 4.841061323195915 8.506756658987213 6.817543342119989
Cr 7.468068307895547 8.914547616566146 7.544692717892969
Cr 4.791427498866156 1.8267937462267425 5.602201613218405
Cr 5.155834361516505 4.215818847112537 6.776983836320661
Cr 2.8258001184226704 4.749515532194393 6.712777596761966
Cr 8.607545388009795 4.955582649116861 6.766909322237938
Cr 7.218770035443979 2.9647654859542594 5.99230543076425
Cr 3.389991731791386 2.2125415439750977 6.81131411038635
Cr 6.366602732238823 6.561128081074396 7.230716480548866
Cr 4.653033019279762 6.133287121731432 8.442977728617791
Cr 8.342703665614886 6.627641213377653 8.649720611672763
Cr 6.405436258714022 8.48874497658411 9.033976845223213
Cr 6.0462294239705665 1.9824294886683373 8.019104439193534
Cr 4.555808612633042 3.3682611521484382 8.815014919832148
Cr 6.951343450617802 4.330387207752672 8.343145579798248
Cr 6.512983737856714 6.0072727355725535 9.823802264717989
