37
Energy = -285.23312397 eV
Cr 8.992540985747654 5.866782365505557 6.7355467872804216
Cr 9.484296347922717 7.771268556520493 8.782188100048621
Cr 10.18528052894286 5.521457195937759 8.681602392437618
Cr 9.688829505410633 8.03459807089479 6.306787298949144
Cr 8.907430032008127 6.812682838948877 10.935198657841333
Cr 7.9402645122202395 5.6377581084361195 9.187069705216636
Cr 8.765224611529 8.771040387976162 4.338427253005519
Cr 8.981193814252107 6.359566353187975 4.212585973930113
Cr 8.235166063273573 9.763973819863491 6.94070895826444
Cr 8.339519560154148 3.604555638517436 7.552095115758982
Cr 6.48384335519295 5.372137204065374 7.041813449761386
Cr 6.16676976600712 5.742421748873668 10.728201964913323
Cr 7.441396621274842 4.228444763122884 5.178255657184167
Cr 6.969274206965474 7.0401512384102976 5.29950608068241
Cr 6.087923671936184 3.775509134520768 8.68320528122636
Cr 8.11318716507475 7.799798916253237 1.9845840351335466
Cr 7.0497599387736125 8.096371040983222 10.076445212198996
Cr 6.793703535873547 5.74673971779892 3.0680305298869
Cr 4.975777791474215 5.3231342098488 4.786805526535896
Cr 5.351523246551342 6.590716088466362 8.848254819467671
Cr 6.501912605951004 8.448306904064545 2.7172416213883275
Cr 6.435483391669242 9.150944890037149 5.354182412933913
Cr 5.187501397025067 5.870452498101674 2.1086824418990417
Cr 4.537261479605924 7.783464080688151 4.2750320097102685
Cr 5.804852071189986 3.0029429217272208 6.186622286407853
Cr 3.927984679918752 3.4794765638159078 2.904025182960263
Cr 5.722549857762103 3.2470245134187063 3.4303937383433527
Cr 4.776295234408739 7.366380955696734 6.5860796869070395
Cr 5.451517545698849 9.205164070306425 7.935278682412119
Cr 3.029144313380039 7.6440850626569095 8.01758274429647
Cr 4.041187797606637 5.004547001230131 7.1151822150148245
Cr 4.464019247236651 8.31807752530313 9.99749574257806
Cr 3.047014974229828 5.691669271376724 3.595778668260128
Cr 3.3407792603818365 3.3163454451010206 5.244819926743073
Cr 1.6327169844566822 3.842214706121615 4.334024335994666
Cr 2.6125147953970687 5.790527939988787 5.911057670033795
Cr 7.322238227318817 7.7671473760551075 7.707086958215447
