32
Energy = -246.44834453 eV
Cr 4.397497434300529 10.335782596318063 11.252371088050761
Cr 8.586869142709265 9.703253437496079 6.959913714427124
Cr 9.71234542392078 7.763628153198618 5.74432172274003
Cr 6.707620392695809 10.970926479777473 7.724465130498873
Cr 10.917765220753509 8.487368973625829 7.721917546812297
Cr 9.725991067712444 4.283955740220957 7.132741778895038
Cr 6.5021767162950725 10.067985949458315 10.094562859435575
Cr 8.91002642344247 6.72137879363452 8.055057763010238
Cr 6.7508963815966565 8.379230254527455 8.239466879597
Cr 5.798336291467814 9.711543549895168 6.147551552624725
Cr 10.202363678156274 5.782814624510625 4.905322083629385
Cr 5.067555409547229 7.810696030384804 6.711916541168215
Cr 6.925753411215489 6.232317999966607 9.686522792508145
Cr 8.00105365599643 7.817732346593699 10.450310080350802
Cr 7.450702011308032 7.680870211305527 5.937931651403824
Cr 8.25352693990114 6.947350138999335 3.680485925991058
Cr 7.737039896387327 9.7264022616749 4.654578724912099
Cr 10.553431351713114 4.89019905973634 9.417923088367136
Cr 4.4709904060120245 7.194776747625272 8.999912819073721
Cr 9.121491104267573 5.425503910435882 10.521744037088986
Cr 4.627760530851278 9.93267302941058 8.652365133347102
Cr 11.114855754470025 6.137056754611332 7.215591420815635
Cr 10.492306451968856 7.506898061649336 9.552481709763734
Cr 6.3014999627767265 5.8199492160124615 7.430693796695151
Cr 5.802940007135686 6.212318693351551 4.681268938809778
Cr 8.158894071788923 4.336157702094689 8.35928354357315
Cr 3.035104466040289 9.34984543115016 10.14996253696545
Cr 4.436258796211414 11.677407454556846 9.65921682003535
Cr 8.14871110308793 5.421856841843023 5.826328276771537
Cr 8.898550260124098 9.542373302216944 8.968954555221082
Cr 5.621614086019826 7.967179669623251 4.127997896451652
Cr 5.357357479395893 8.081945150922504 10.661373416805109
