31
Energy = -241.15472374 eV
Cr 10.466485171293924 11.127586816268074 11.37898592244457
Cr 10.067156777133995 9.552705164358734 9.212892328256881
Cr 8.216789491587832 8.963670854505501 7.376789252167957
Cr 10.404109830271846 12.044310924729213 9.321409240330155
Cr 5.666987434248164 6.844038386087327 5.83735173429948
Cr 4.040779572025865 6.687260437221588 9.434779857617265
Cr 5.870333923854221 5.224825654892243 10.012875479541856
Cr 10.160654466076236 10.525677343291287 7.0288755360250885
Cr 8.070052505555102 11.265675922772267 8.344555251475994
Cr 7.443420618429953 8.196432540524047 4.840618391113217
Cr 8.108068603085338 11.243914377281275 10.66436768118261
Cr 5.318622974385165 5.631486694470435 7.546343968411508
Cr 6.455185447051106 7.40425925462847 8.407584405834328
Cr 9.570123247951448 8.543666325934684 5.331480816575692
Cr 9.55954824474434 8.77017835618057 11.36287423541209
Cr 9.788239114003655 6.262174390012006 4.9597825917373095
Cr 9.140989942561022 7.131939443238675 8.960216578147232
Cr 8.004880257929402 6.535666831558775 6.641123464927077
Cr 10.578309239466828 7.70886696411926 7.2548043785376635
Cr 10.201542753817792 5.236004730106011 7.256296048485756
Cr 7.918919417089294 5.019241493057685 8.386311930201451
Cr 5.931475966069597 10.083676327201603 8.866007134057295
Cr 6.65970243555621 4.222647429629066 6.416981444116208
Cr 4.584295771240309 8.35618207138236 7.2744689084617375
Cr 7.672270130790775 5.681511521017591 4.176715882094162
Cr 8.718642214388007 4.007934486823488 5.909751751374728
Cr 7.570209631051298 9.064997338343135 9.933577052128575
Cr 5.306918008542227 8.020969123930293 10.576978724998554
Cr 7.471133191263201 6.674692341935609 10.702284819555771
Cr 6.275064717971131 9.550535849835198 6.361654116413165
Cr 8.268705837757196 10.849136694079561 5.558002588014198
