35
Energy = -269.01019391 eV
Cr 4.374713148998224 6.87444483003077 5.413847209102669
Cr 6.165632046804087 6.359270126685797 8.963944605512554
Cr 7.674052308731611 2.6028094545734004 9.400172515988668
Cr 7.3007568122661315 8.224577071407737 2.725941736745634
Cr 7.034783129750302 2.985687370755489 6.968674648250086
Cr 3.8418754337933074 6.055044221204478 7.877162614849669
Cr 4.56548834413525 8.202812588881036 3.1570202186647105
Cr 4.228888127572596 9.592035758555669 5.403856832015264
Cr 4.4377652483732355 7.693006404540841 9.447970610962022
Cr 10.205092096947011 5.758772207825143 5.328769749491697
Cr 3.2461909054836884 8.18089810153311 6.981713748282194
Cr 7.652559694751798 4.79507717343029 8.080441993135825
Cr 8.191230843626037 8.958494518228893 6.555216809613563
Cr 7.386857587947245 8.255472351997184 8.602481084420207
Cr 7.1925543380544195 10.246608047495863 4.336373304470527
Cr 5.40082129050691 3.651749341732284 8.615257635930849
Cr 5.442900564635137 5.0399184436059725 6.5385788357662
Cr 6.177012210901973 8.451734617616493 4.953677139254541
Cr 6.032001554285324 6.34386404685739 1.574269823927815
Cr 4.613645860630577 5.065540364065421 10.542256274469635
Cr 7.066371432427809 6.597323272982602 6.50963584398102
Cr 8.33612276348348 4.872443718422462 5.441197994514854
Cr 5.433508766195376 8.398941336488935 7.307962970943319
Cr 8.6636617553042 6.562921446070909 9.62208133037848
Cr 9.333484022793005 6.580975065926957 7.223652402541609
Cr 6.7871921493523955 6.691250365240368 10.99877796437625
Cr 9.989525201577784 4.476759817984991 9.459312681110578
Cr 2.627431123800034 8.170995345077294 4.320265779824416
Cr 6.220088726199148 10.263268547823216 6.762794763542133
Cr 8.373484389970754 5.828791462302786 3.303573681823671
Cr 7.441020193392974 4.324762696195629 10.378427488102737
Cr 9.753329087260717 3.759511846299718 7.07054806835214
Cr 6.39282624295103 6.068917662827781 4.135700006722065
Cr 8.64733123485888 7.308540277129029 4.686646197944576
Cr 4.028662608906982 6.180556448895595 3.0361236938272436
