33
Energy = -258.07354202 eV
Cr 6.317134085317972 11.00782191801826 4.6550874255325905
Cr 8.863605824909698 9.491875383115298 5.057851376773982
Cr 5.303509142342642 8.4246655463317 5.1887118244562345
Cr 8.23915998479689 11.640695708309687 6.1419874841002375
Cr 6.382973809188281 6.901317959408008 7.169843330917314
Cr 7.634163829312036 6.978257631455098 4.982053436724508
Cr 10.585483250968311 6.412062766517835 8.033068989544702
Cr 5.09003611880427 8.764711447971235 8.082789322335458
Cr 6.946365250946412 8.969540431479121 3.5905126038546147
Cr 9.551560084840844 6.026371557095449 10.671249387320774
Cr 7.766358399974809 6.721267280961181 9.095862579812291
Cr 8.960241156966202 7.957063897757987 7.043538966958556
Cr 5.120791045290622 6.179404581978234 9.271202351480213
Cr 6.9640180468435515 9.262655556161173 6.248587982945416
Cr 10.23855342592086 7.015278335341152 5.176811231628877
Cr 12.309393705056886 6.8364076365564275 6.370472442355496
Cr 10.034073226603986 8.226341502275243 9.46066773176776
Cr 9.185870378492396 4.641870605778529 8.824120953976868
Cr 9.064666006575136 10.256442107878444 7.988026626226972
Cr 6.846167134083731 6.356546424804684 11.479189149848969
Cr 3.883153882633504 6.766524813303429 6.783627539581202
Cr 5.55617628402986 5.877069282782962 4.77941402680329
Cr 8.202876522878741 8.673654638073312 10.837781625780035
Cr 6.955844027142692 4.450810327695095 5.488234787947696
Cr 4.70933754782181 4.804576255402351 7.019626572568562
Cr 6.437183411108029 11.145342277560315 7.662473097778992
Cr 8.537041123299495 5.631052540371066 6.580758825360522
Cr 7.323188373192336 9.070190877793152 8.72071661380725
Cr 6.884172137982185 4.62687749315641 10.372675583290288
Cr 5.682902390773178 8.072581000477026 10.454823251256773
Cr 6.771349402163248 4.438657004131857 7.973932822563736
Cr 4.5544607268102855 10.412213778157154 6.35880902601928
Cr 11.21264249980126 8.92554241553222 6.974612248039595
