37
Energy = -289.55068325 eV
Cr 9.095344844711827 5.244099091990336 3.0954203118535197
Cr 8.831709392961516 4.74815740405541 5.662814132705761
Cr 7.054302914457139 3.8127460944813256 3.4566331925363283
Cr 9.782976948269296 6.887051322767365 4.560141846619331
Cr 8.133850140942668 8.073146261572369 3.2309930698116087
Cr 4.747145307588769 4.737227078570475 3.141092027026392
Cr 6.707884539652616 5.87606066695644 1.9937807759439738
Cr 6.755256079534612 3.417916447254003 6.225965732517247
Cr 9.501371974729057 6.6535900777745836 7.233120799019229
Cr 7.854379372159937 7.972423256684844 6.118074910799602
Cr 8.677106432411332 4.23704825396278 8.104836494610801
Cr 7.090329997029221 6.22953008801571 4.580597537631192
Cr 6.923928887375097 5.6914774248879105 7.369108850892479
Cr 5.113834921792453 2.3507593594797083 4.55488353274535
Cr 6.103348148627094 8.219420131203274 2.00971194912747
Cr 6.327945715513609 9.13281089696656 4.643345471105757
Cr 7.61453685667507 4.457141813024774 10.680828877908537
Cr 7.223532063885599 7.61846193708877 8.517220785939287
Cr 4.841285217203738 6.938535051657229 3.785414237646919
Cr 8.83279032420994 6.177183723110967 9.399213195285977
Cr 4.422600966953242 9.393711688327532 3.4722861974911763
Cr 4.9082768218653685 4.80228178959207 5.432748366455967
Cr 5.013246220315727 7.280648140398895 6.100834466875734
Cr 3.0198553706948497 3.539318883102214 4.0676672520802475
Cr 3.2576505990731555 1.3101990902234173 5.842849435040074
Cr 6.648453005532865 3.3552215592557832 8.819188521523152
Cr 4.849257311233174 2.316567578950481 7.3113936073191
Cr 2.850434785544843 5.772307209257522 4.541035991176392
Cr 2.9052170936487207 8.126792006690328 5.421446516535956
Cr 5.8331720994559415 9.446917968079282 7.396880033469244
Cr 6.154250314064055 5.764784951919561 10.0200614745687
Cr 4.521881276708835 10.051810846733586 6.115361359055657
Cr 2.8564390746325232 3.713830190793026 6.325726770304893
Cr 4.874879693720923 4.770203256851228 7.960410532373312
Cr 2.831489777233741 6.050749421166206 6.848072043853848
Cr 3.1003040991254607 8.608336433475575 7.5913829709028375
Cr 4.77766645091139 7.259467644122982 8.40739176969161
