34
Energy = -266.17081703 eV
Cr 11.505148081630123 9.254548884731886 7.758968848899991
Cr 7.872434888076923 6.235620786544185 3.2105851060348627
Cr 8.692151606787505 8.806186949162235 7.199858195167038
Cr 4.516690171399936 9.203646163087104 9.67825914618215
Cr 7.749432386703808 3.9826779411132462 6.918397379209914
Cr 7.47405848307088 5.393659950842648 9.903935640068445
Cr 8.447007884825766 11.308140174281297 8.359493820470831
Cr 4.7046779636265805 7.1961804554221125 6.759997238433592
Cr 7.144116281574006 6.420653524337716 5.7892886101858645
Cr 4.180177104064526 6.715843588428419 9.167776051017443
Cr 9.76093796379368 9.77883820438788 9.429417732107414
Cr 10.640512236447298 4.900494912829175 6.802463755832416
Cr 6.5955150499996105 7.554835888213147 8.206177870536624
Cr 7.9238913319411015 8.603546926426057 4.456830248963163
Cr 4.9884229047435475 4.755117497835967 10.466326967746685
Cr 9.437369760501074 6.414321006682756 5.297048915273407
Cr 9.530227734024836 4.23659805197401 4.300431668472374
Cr 8.602831472250939 7.745581263160164 9.783362191922675
Cr 3.272358338073623 4.821922582848818 7.922508011589421
Cr 3.677839939308791 9.201158651704914 7.5223696452918505
Cr 5.880645670944964 8.833839968232974 5.4745810834360755
Cr 6.030681090793582 9.88990369648585 7.642214934717551
Cr 8.645918814870722 5.991707333282349 7.5781405376517785
Cr 7.039341733240563 9.634331477003695 9.87027428266403
Cr 12.018103134732293 6.9362875220862 6.316443808276185
Cr 6.045433752822201 5.242694870667849 8.048857246945062
Cr 10.50737008759817 7.219125587674979 8.314082195138557
Cr 5.662930348046083 6.7245727143559 4.006618525353527
Cr 10.384845513548203 11.078396133220798 7.052986756054368
Cr 7.803274155699561 10.61158086740954 5.9652272187506075
Cr 4.917937933786964 4.925603068543521 5.901105129509988
Cr 6.113740044781829 7.236043467724307 10.686483657336291
Cr 7.043143809363272 4.278520571627702 4.708172486980627
Cr 10.337006434645144 8.787481447527101 5.462701094663428
