34
Energy = -265.96921788 eV
Cr 9.158241452261066 4.427357313586299 5.913922152446555
Cr 7.648663833668272 6.655951976956153 11.62976986300451
Cr 9.105707764305441 6.899594297080495 6.486043471410565
Cr 8.891326850493128 10.765024606822841 5.316671268257503
Cr 10.238166109157312 6.021450635207102 8.334695486248638
Cr 5.2798769584705285 9.545417065466383 5.112037498467564
Cr 5.221438736017589 6.817801359057511 8.17958836596944
Cr 5.686178467608654 3.930776598172784 8.153001188580296
Cr 8.04661980423223 10.718378489741749 2.9478696152089996
Cr 7.846740167986064 8.579127609746992 4.503562546598183
Cr 7.47860682108753 6.221280438502393 5.105107239137964
Cr 5.544200901754285 6.997072175504416 4.1125535982544825
Cr 7.47524647644893 2.5965626405139846 7.364665853313374
Cr 4.311473914212918 8.980550767104512 7.691793793813716
Cr 9.107290068236665 5.464728520859735 10.23946576686673
Cr 8.516379298922804 8.956135051803617 6.957636309366968
Cr 7.698791043054078 9.032753797527247 11.04519791062398
Cr 6.0945280757564655 9.090826741782495 2.9824591586388265
Cr 6.366210375201047 11.520518850150852 4.314132456466512
Cr 7.951028970063821 7.457358397696177 8.887804606071226
Cr 9.796121032154568 7.858762260480338 10.452423820608434
Cr 5.6613877110805175 7.996347623096693 10.202286539772961
Cr 9.405450862264528 3.667757653351512 8.181632505085695
Cr 6.961674610744269 10.954182940884662 6.680164671849485
Cr 3.9974663647318494 7.62016708429396 5.770891437539337
Cr 7.559507520530379 5.435593046629112 7.825337586367341
Cr 10.433310010669056 8.530723899874893 8.344222766658078
Cr 7.533190031676945 3.5802444601516643 9.934734033420634
Cr 6.331374198989431 5.6283344542869305 10.170920588796188
Cr 6.361572248525227 9.480087757697198 8.514436063851074
Cr 6.5978037194184305 7.769352527355325 6.508611181518076
Cr 8.578745421142283 10.141860254005428 9.092343313147826
Cr 5.279254689943356 5.483889561239062 6.284075217267186
Cr 6.893217512722796 3.8012638784835406 5.550944989002142
