30
Energy = -227.75635436 eV
Cr 5.991160911861274 4.932918813925314 5.246448190861747
Cr 6.919077229574934 4.302369150165523 7.452865981471211
Cr 3.935149184214769 3.8315237116860565 4.98187315322414
Cr 6.547457971608904 6.72871515999233 3.304532901099283
Cr 7.996520777349433 6.261201731941011 5.311729630168581
Cr 9.08154658795518 5.681926434878753 7.492033952328203
Cr 5.17736209407494 4.457483242365945 2.8060938612672883
Cr 3.7168861105540123 5.991594567826898 6.69843655136185
Cr 8.747168199862356 7.845349450968277 7.442906253568892
Cr 4.954416058716115 8.82840769390835 3.637072496164174
Cr 3.953052044945541 1.4791996896232813 6.301628992574492
Cr 4.662033696417939 6.818575387146695 2.1372505474409533
Cr 5.7653992094211 2.2662655173841912 3.9307128265820896
Cr 3.8794572724144523 6.377989839031643 4.251320455217566
Cr 7.165140382296539 4.372543273638945 3.380477947217319
Cr 6.379164061380709 2.3437265418452897 6.075803393071799
Cr 6.222123859530625 10.59002258860041 4.461922897936285
Cr 8.689449534100566 2.1296119171900423 4.451716186300456
Cr 7.2933648557370425 8.684830484571572 5.404474252123669
Cr 5.490322661596896 7.452552435153158 5.429696093647881
Cr 8.62492956877114 3.930896184113627 5.58863872688789
Cr 4.839170788804709 9.831150489277013 6.027759334749221
Cr 4.614868474211647 3.901790827026557 7.32155933398117
Cr 3.182783403512543 8.43773825674569 5.425384285326602
Cr 6.344514782604703 8.905310808221918 7.605958834473087
Cr 3.0280721781433724 5.4351592005404505 8.942912136586834
Cr 6.435231893773614 6.526123170885016 7.464190284863355
Cr 4.851556316489449 1.6907927655747184 8.05331793349485
Cr 4.105867708087133 7.889287509496991 7.7392745684148405
Cr 5.004312851309254 5.672503825595881 9.229568666916283
