38
Energy = -298.73449032 eV
Cr 7.480780622875436 6.321285190755118 2.0361830860782364
Cr 8.41439707231332 8.428662287469548 3.533524481621376
Cr 5.534455868103207 5.274520687985324 3.1544536734398396
Cr 6.837058158642332 8.97105350425613 2.159143489343762
Cr 8.367172065277352 5.723234313593338 3.8013462904376683
Cr 4.795476837955543 7.205459649816847 1.9432028890733488
Cr 4.674699402643792 3.4011726193233156 4.744514387578166
Cr 7.043258867795531 3.731762113502378 3.1753612243837486
Cr 3.146195904452119 5.314440328569681 3.1583374014118806
Cr 6.218271326005812 7.154416094106067 4.178930450954613
Cr 8.982592207888331 5.60110969401602 6.348569231303015
Cr 7.734207568916049 7.587731678770559 5.8494342110129125
Cr 4.791110181049938 9.307470965143462 3.623367789268346
Cr 8.990935009180319 3.3027554037985785 5.043941546782209
Cr 6.726370382455205 9.850197508285714 4.765641025654
Cr 6.910493853449566 4.7791650176539635 5.466950834600398
Cr 6.549159296975304 2.1649412174747518 5.37111358243766
Cr 2.4090626582346086 3.9415963963415073 5.043680785526126
Cr 3.5901889525253083 7.155731941547053 3.8057586808573483
Cr 4.380501813488277 5.66969959304439 5.484828357457871
Cr 8.150517025903731 3.1436808107271648 7.2091473024270565
Cr 4.291835346522856 1.8555078274381318 6.8977510235417885
Cr 5.55342437407833 3.9450377142561357 7.110406958076023
Cr 2.030360092453846 5.997750743031955 5.454726065322513
Cr 8.444124837170895 7.442455058595604 8.11253116379714
Cr 6.177022927414512 6.549692225227007 7.107336802322164
Cr 5.009738746449691 8.326004312717865 6.034415713578902
Cr 3.298685665551526 4.184264722767654 7.1307200585262756
Cr 2.7253330814851107 8.510641105675047 6.015425757339439
Cr 6.447273235880907 1.3542745037096997 8.044463920775074
Cr 7.4774033504919 4.96565453243015 8.388332786563497
Cr 6.776264935994232 9.276174423686625 7.428324899542522
Cr 3.504587189757241 6.52401629076944 7.609416897037673
Cr 6.433685586342789 3.1997355914143437 9.471828017948289
Cr 4.112634154121273 2.733274849245478 9.13161463116336
Cr 4.909128601492813 5.4696842932822864 9.088694200084666
Cr 4.512924904177254 8.178003765414692 8.486345290681818
Cr 6.698963864657474 7.306587690142263 9.384586599971424
