31
Energy = -234.88478752 eV
Cr 8.512329005076028 5.39457685010317 2.60463280534916
Cr 6.377033193998041 3.851766390802301 7.2622545169507795
Cr 9.475323859086753 6.053963837172135 5.140691812832283
Cr 6.039380045710737 9.722705144407682 9.22381658691443
Cr 6.132257649444891 6.932190437341112 3.7443089315694356
Cr 3.2840065918113512 6.960625003157452 7.338745382498961
Cr 7.191782231158759 4.868346810451023 9.645069410989784
Cr 6.4844085962177695 11.374410554060347 8.434777003421088
Cr 3.4643905017218124 9.319961611381602 5.976922020449351
Cr 5.193923280640139 2.049346123912522 5.921243475400217
Cr 3.764402332487047 4.29503134558466 6.862169964745253
Cr 8.490595617556327 7.5927827967396535 3.8255714018105835
Cr 4.714081629753308 10.62674088894732 6.412303969766663
Cr 8.536179774216068 9.297325903930503 8.435476254656487
Cr 4.535465415222349 2.7993804894792778 8.33657293003453
Cr 6.829268225494322 2.7429129106405963 3.6881674339324086
Cr 5.133804650853202 5.646549908111878 8.442297556563485
Cr 8.170759407958597 5.346024219236529 7.598324509613848
Cr 6.710576504790094 4.863472841867584 2.4569362108490225
Cr 7.030088484021915 7.41719188579545 8.568059602054754
Cr 5.86278321130534 6.203237060506159 6.322929910632297
Cr 9.629378977819384 7.190076305871099 7.897951548123573
Cr 5.262110847796536 8.214934977515853 7.220237858801946
Cr 7.605451142131936 2.8813915382075264 5.966179459712051
Cr 5.194427896070967 4.089804492117571 4.972374561815357
Cr 5.7886780764010854 8.574222947365513 4.7445793517220665
Cr 7.079844531324705 9.68839691557557 6.613219789300602
Cr 7.530171917999976 5.107534007153215 4.966790893275693
Cr 8.57274389316265 6.9186468392157625 9.998091479579255
Cr 7.9225522436513796 7.547466386274889 6.270908755506528
Cr 3.772850460343207 6.720032772301549 5.399444806355105
