36
Energy = -282.80904359 eV
Cr 5.018939156318638 4.180929612744698 3.055012735827336
Cr 4.848080030049967 4.419260285161559 8.397333131071738
Cr 9.927966300618701 6.6985485314002995 4.550179367049795
Cr 10.50302272588449 6.801870273874593 7.486917921612088
Cr 2.8777044889119323 7.705225160636163 7.5805910921969755
Cr 5.432208993982669 5.850368958593431 4.59807096551861
Cr 6.858479149700384 10.069889831130267 6.443205196240818
Cr 3.227661788087077 3.2186278543891893 6.896367243321426
Cr 6.813840470617874 5.2582589665408666 9.617425788383093
Cr 7.455379115864847 4.479579894808425 4.652502907989432
Cr 7.958480967643367 6.8472084499771775 8.359564260716718
Cr 8.900698463676653 5.63318737048302 6.398544191301184
Cr 3.7656513475564575 2.446230264948493 4.371383581701395
Cr 5.547861401487366 7.543069237309639 2.7542845955297723
Cr 3.1002952316515615 6.097564753775225 3.0277915066362606
Cr 6.799726286010397 8.820040177408472 8.428960661325668
Cr 6.514908813399442 5.018964889626736 7.155747912956637
Cr 3.896524615508058 7.570005035977573 5.030117024876729
Cr 6.650418255102385 2.4435052699669386 4.186427676445332
Cr 3.1590069218205707 4.843001071752015 4.90788162018206
Cr 7.758506670884175 2.918470732686967 6.827634466224848
Cr 5.255666512472963 6.938040227215133 8.830974643003595
Cr 6.338255706251986 7.349487856776708 6.410447335859655
Cr 8.848876920496362 4.252716236319444 8.35327821071797
Cr 8.334759660559314 9.329961765528937 4.067389403780446
Cr 5.2518507886961086 3.611146679023776 5.843774140849983
Cr 5.931763297503825 8.903121997664911 4.668903058810706
Cr 1.8011805760856034 6.584753688764986 5.617534964347874
Cr 1.1235235914828163 3.7744374062460033 5.290207338350111
Cr 9.692280724940556 3.6679012875167776 5.216408837156529
Cr 4.190944147318566 5.983277934929123 6.9653842006708455
Cr 1.8196085348043693 5.1042182116398855 7.483677985052784
Cr 4.536135943617418 8.678386821104084 6.998063346069846
Cr 8.701469444059486 8.395257698041648 6.370493824395677
Cr 7.607783660025611 7.056550183738916 4.161481944258672
Cr 7.323983483964217 5.221696342485693 2.441488426757838
