30
Energy = -227.49527411 eV
Cr 6.811730464856975 10.16413936155529 3.0481202113292176
Cr 5.362976092178744 9.045058082826914 2.4916511102163383
Cr 7.916857950470345 7.707688885415699 2.9829891741526975
Cr 3.618100371373325 5.410759847158869 5.287931878973339
Cr 6.181167056767145 8.398396463252137 4.7319828185281745
Cr 8.143867730954714 5.04828168271797 4.165117975002987
Cr 4.524139006371403 3.8060585067687143 6.919910881207273
Cr 6.087855647139907 6.307964986702303 3.203226720584826
Cr 10.133847448133771 5.16452225003519 5.975457146992435
Cr 7.911885502253818 9.395368736939936 6.292650605857695
Cr 9.36201744118395 3.440015862728552 6.176872579479914
Cr 6.878414737701429 3.652844057754667 5.7718708015153535
Cr 4.193109981122414 7.709197331637485 4.769916255652226
Cr 8.182500921499123 6.868225881304888 5.181101706922623
Cr 5.817672585474272 5.742258046664363 5.421138386959829
Cr 8.833633797069892 8.115460825509041 7.409935495465426
Cr 5.246068850111589 9.818288051164487 6.30330207041931
Cr 6.2386472114370815 7.470871128191248 7.100847987992808
Cr 4.124004691864966 6.652319386667357 7.318344510810779
Cr 8.005849331394115 5.529606407325595 7.169059997448261
Cr 7.19956707171056 3.041868226642391 8.110332146441513
Cr 5.831445999541614 5.042957073976908 7.993897483127136
Cr 6.534603950089011 9.140243976286586 8.6966235026005
Cr 9.163731571768022 4.255144933710794 8.691408987831336
Cr 3.1468637812870797 8.77396929556663 6.595629528032865
Cr 4.661518375368576 8.789213860685114 8.745111854881397
Cr 5.51219217920512 3.7660300440322447 10.181305805735047
Cr 7.245950267144094 4.497987101411645 10.457448112307768
Cr 7.668328724329534 6.76950203754994 9.26294407404875
Cr 5.649771243601887 6.664077651222604 9.73219017288746
