30
Energy = -227.78928086 eV
Cr 2.6744404453566406 4.411594392750923 4.446651867336354
Cr 4.1799476119819365 2.8693709707617328 2.958571377855355
Cr 4.1727219983299575 5.157153613314221 2.8332513615531427
Cr 3.251072265718519 2.327487841534287 4.9348272186628765
Cr 3.4697707526437345 3.8571020394392463 7.052373486379665
Cr 3.8902672348507936 6.816838630804985 4.573661446570813
Cr 5.782548104541079 8.872080919622615 4.646944515758613
Cr 4.521462604217107 8.177717076983233 6.743921992967833
Cr 4.90918498045769 4.183637484678224 5.059320780122765
Cr 6.400334232659101 4.355826730010895 3.317162593251993
Cr 5.769780299303804 2.0961463025884064 3.9684218423256845
Cr 6.034428776958237 6.751626208948127 4.226160095079062
Cr 3.10744013131583 5.8766570637253395 6.426456133970971
Cr 4.956647086725469 1.9177016422315563 6.032864452091773
Cr 6.3549795995551 10.052230131328425 6.863566330298508
Cr 4.173678847935242 6.014760739199869 8.603667677610648
Cr 7.989951123196929 9.820291083713965 5.3510830220038015
Cr 7.247842375328089 3.07414988217377 5.7577338459388
Cr 5.511849863493819 5.996806827896658 6.67818185493306
Cr 7.240722514785043 7.788672128947153 6.623932938485562
Cr 8.353997463613602 7.562888467529483 4.639603805221073
Cr 7.60565221864302 5.186882724836167 5.329296154216205
Cr 5.756032434646547 3.8379450803449315 7.656016976112755
Cr 5.89513538711908 8.150280545239307 8.660859898601553
Cr 7.939035548703308 9.61411292020904 8.167109784958123
Cr 8.02250638883629 5.149009202464153 7.4713439080341795
Cr 6.570343682896517 6.141790268790983 8.8425689607857
Cr 9.47100138283726 9.06527656256231 6.56738728394847
Cr 9.579243988074396 6.797517055787668 6.568128111761943
Cr 8.594087629215517 7.573106579574457 8.517296376521236
