32
Energy = -245.58161083 eV
Cr 9.564547516355901 6.134428805287619 7.526588844216854
Cr 9.932609512449291 7.029626259241551 5.621776991292129
Cr 10.482804991004741 8.529281260616997 8.093268118519015
Cr 5.559272070087865 4.5232354275147175 7.725907940314005
Cr 5.743823909382795 8.76536204083577 4.267715999305907
Cr 10.477182681331731 9.448475715164886 6.159016321620956
Cr 6.6579586859952835 11.09456299068473 5.716918371926911
Cr 8.530801198199716 9.437055687002275 9.463263106176875
Cr 6.474270541317954 8.407857463180388 9.320429182394093
Cr 5.304542762761101 6.539604597249206 6.046686609159533
Cr 4.2150890484725645 9.902396623298488 5.046902496331544
Cr 10.764777122263558 10.575169397399907 8.914065015790266
Cr 6.123616561424536 5.47995663412086 9.658352797404287
Cr 7.680019638502316 7.332429487351593 5.305440613948814
Cr 7.98279830026743 4.500842287836671 8.692730818651212
Cr 4.5553140591995644 9.85353666124486 8.960370760552873
Cr 4.397205694871091 7.234805706324056 8.310081580846372
Cr 5.991952152016749 9.01388118902089 6.855154480664693
Cr 10.480297683987686 4.583131834643145 8.991987112980267
Cr 7.7887874765665 4.881558147013498 6.269772245080887
Cr 8.741321464475433 6.942748232526133 9.676406839434556
Cr 3.488974898844017 8.410863273722937 6.8982367749224895
Cr 8.049280983416997 9.744983320674839 5.209911838183756
Cr 9.814081353717546 3.6884888251517105 6.804736871860805
Cr 6.985942919880568 10.728815719053902 8.350530390960364
Cr 9.037237950219316 10.717013946988374 7.259936414253243
Cr 4.453023519966521 11.05089491855436 7.267354394319683
Cr 8.373239275650766 8.649269266300522 7.502405944056148
Cr 6.396343429511595 2.8354509740693676 9.055418275323454
Cr 7.38315441629437 2.76330562729317 6.95948951982114
Cr 9.074431967278906 2.1978968471569797 8.326166049558132
Cr 6.971564264344998 6.691052305077528 7.9234098574821274
