33
Energy = -257.08873614 eV
Cr 6.68522746035852 11.520512120359573 7.251988949503845
Cr 8.010124380324456 6.451407938044763 5.109892919037931
Cr 8.813992192930742 12.349091300627087 8.398687774826126
Cr 10.337713493944369 8.156585790842637 8.57735032153124
Cr 11.743436133208487 7.159225084324557 5.0444796631164746
Cr 6.821906763808562 6.572396285501773 8.684434731845641
Cr 10.188630387062044 6.313240394956203 3.840484196129536
Cr 4.295388938333054 10.136271911495317 7.738982144860228
Cr 10.452540386663738 6.610378847126753 6.4829115302265805
Cr 10.143658472120418 4.8727688045938535 5.270190321066527
Cr 10.795981858083874 9.265703843413315 6.383358061011855
Cr 8.487562938074666 10.466333791749056 6.084425733521003
Cr 4.248784616420957 7.504011844299027 8.146922819428651
Cr 5.888880440029507 6.903474318710254 6.469465912568066
Cr 8.240939942427003 12.33479809639638 10.891690011342282
Cr 9.355605376283556 10.00013484990323 10.764851844944863
Cr 7.844429310686507 5.603625584821145 10.731736362997207
Cr 6.509324083425603 9.086136279799659 7.557790082298962
Cr 8.830036395342894 8.007076977709556 12.391099995206961
Cr 6.845905571795574 10.765692633468275 9.625566622936978
Cr 6.512750217999512 7.414146065904918 11.450661367512774
Cr 5.425215891967766 8.702384554857241 9.734729330959162
Cr 9.596961649056173 8.53101656847035 4.773718973175163
Cr 8.446961528049606 7.894749115162125 6.984774294426373
Cr 8.945422411020239 10.172653915991289 8.337565729060099
Cr 8.101669030246066 8.186813950492477 9.82479736014143
Cr 9.947198956601508 6.880169972377169 10.92322829338353
Cr 7.019367487384135 8.93034798992964 4.987064031340586
Cr 8.11244281453948 5.308976491976865 6.857102409480558
Cr 7.02037191948939 9.917118771240617 11.74336168437819
Cr 9.426515899067166 6.12322067073507 8.67694365399037
Cr 4.99473814080013 5.859892925787885 10.063751763810599
Cr 4.576153738762258 8.975618680814607 5.712958102740301
