32
Energy = -245.83986613 eV
Cr 8.440917232078501 4.628251913266882 11.557587645467276
Cr 10.377213737046358 7.61630712322006 4.78162387702615
Cr 8.527633691094467 6.495147609186324 4.682600660610989
Cr 5.9694531120726255 10.433916258410225 8.69067322010215
Cr 5.1314720293141685 6.388281440438079 10.14052189232529
Cr 5.772665767668267 7.040554389500698 4.549477458999968
Cr 9.546280934276714 5.21132447167337 9.347488097129219
Cr 8.310067130363155 9.02656746762355 4.309352471580439
Cr 9.01441390487118 6.590705685848039 7.340444004405249
Cr 8.713486269619866 4.22942781902311 6.717726292292431
Cr 9.316556235391047 8.807491784168057 6.777398576724255
Cr 6.4030085419157 4.210965924912621 11.124908871418933
Cr 6.863742801799785 7.975626973348682 6.462498941776033
Cr 6.495575710863345 6.4685763766613755 12.08115501519728
Cr 5.3460184616158415 8.184326084875483 8.481770811633641
Cr 6.9780134546304415 7.44739960171359 2.3958870063665234
Cr 8.536616778960921 6.9800662639668305 11.353924421080247
Cr 5.143512433759281 6.429902343783325 7.281877702824688
Cr 6.161679686460584 9.628969865065525 4.145512496335007
Cr 6.731124015472279 8.674503987000982 10.652158435229577
Cr 9.103897339922966 6.995831364795113 2.5125991804023466
Cr 7.332094710439096 4.949507844378503 3.601585541689012
Cr 5.460848962051985 11.3598632516897 6.260343147173103
Cr 4.904290586814436 9.00034593824538 6.502008109614266
Cr 6.674732624787842 5.213571131025686 6.236554609765443
Cr 6.190577424653414 4.130642178959111 8.360738850035574
Cr 8.145901174469417 3.2980749936297418 9.176984195872544
Cr 7.361636583993026 6.181524146369923 9.404986388805588
Cr 8.684213290526946 9.57803226905849 10.909941538834216
Cr 7.956063747096765 8.890943889140848 8.49101465437969
Cr 7.506790743661926 10.443222940802125 6.311596760550588
Cr 9.694069861452677 7.888028937035409 9.109238323410484
