36
Energy = -282.42652549 eV
Cr 3.583715193171658 7.539583190882486 4.427159213957465
Cr 8.621243462740038 6.341410981928874 3.885003078627473
Cr 5.6255801014198585 8.424633406831711 9.737893104729872
Cr 4.685867662112386 9.688632714379489 7.9177671664374545
Cr 5.495213083198126 7.051550574250584 7.697350475869975
Cr 9.17680799771237 8.52897019525634 6.665420020506637
Cr 6.066955034548042 3.4680507279491612 9.538285664414733
Cr 10.061952025059815 6.787368679457307 5.4204777249041305
Cr 2.4080270409184474 5.835933375244398 6.532024563818346
Cr 4.545050977650319 5.5259268618945825 2.764888356107747
Cr 7.705503623116542 2.9408675966023736 7.6727847373718685
Cr 6.72280962104518 4.966543620637224 4.179799654558021
Cr 7.275770815644816 5.3716835691575735 8.322923990280083
Cr 7.777306344422361 7.630915537050941 8.969709453376662
Cr 8.093257254119386 8.712012440499986 4.816470295664561
Cr 4.587366510231279 2.5171002054873512 8.068951858275085
Cr 7.4342147542274075 2.7938789007018796 4.826276030267804
Cr 6.923041588520092 9.115457223068953 7.418001914099867
Cr 5.9817238878643835 4.396175937706143 6.611529514216006
Cr 5.645065779196948 5.89652296810875 10.06142772129438
Cr 2.7381567378191556 5.157497367401179 3.9549263013173865
Cr 4.588284163552197 8.156410742248925 1.9561073894256176
Cr 5.43604647605124 8.643105295182947 5.584381875637627
Cr 4.2712964481612365 5.1562591165333975 8.177303555289512
Cr 7.311761203923204 6.738284078503359 6.11831936569754
Cr 5.863365525590536 1.8614439468037605 6.133523535161238
Cr 4.700577209130442 5.933526731159861 5.545428123876152
Cr 3.464459575585294 7.830258591450971 7.097510430731432
Cr 4.781255177942279 3.4135912108627577 4.4596539769238825
Cr 6.663935886090481 6.314721077075423 1.9383302698036602
Cr 6.272535987933559 3.5926646198322354 2.233939621947416
Cr 6.147003444049696 7.315612116270732 3.84140194372959
Cr 9.363766182664515 5.808423008040655 7.464649576113507
Cr 2.637089916100419 7.234886398196265 2.1647136409838996
Cr 8.611528925099575 4.527525433897242 5.967166643812671
Cr 3.4510165204722187 3.593315826725643 6.0562528276224965
