37
Energy = -285.97332652 eV
Cr 6.280352252101487 5.200579278613554 1.3511134431348029
Cr 3.817730430267262 4.8806613731258235 0.4707299369100703
Cr 4.9241459163602785 7.015072508719315 0.3290279017482522
Cr 1.4620238937713643 0.680522713921422 2.247487115906608
Cr 4.5554040133557825 3.4687812457294704 2.567400608540537
Cr 5.038107224689739 2.485509286257018 4.962702948201328
Cr 7.201509301976663 6.877013387096511 3.0961093827041624
Cr 0.8060923667371123 0.8034459184373977 4.124687956519601
Cr 1.1616403819466563 4.6901040075187375 0.4428558154943339
Cr 6.414984459960292 4.649845428756628 4.0212773446060766
Cr 3.1581360216570213 0.8196183517911823 5.63295861227708
Cr 4.665408977223615 6.252162789161196 2.739118285160133
Cr 7.104549156338846 2.3891376020409583 5.020626818765541
Cr 2.648272578987469 7.129267035939182 1.311913796202043
Cr 2.216208757501836 5.07319537929542 2.599526634753361
Cr 6.129982761383301 1.4071503419685893 2.753113945487336
Cr 2.696269514600917 2.7588342102950745 1.2433420801861412
Cr 0.6228621996117585 3.0585193065361342 2.533884433094881
Cr 4.877480412895951 8.34955731060635 2.472821587716706
Cr 2.4862386722142773 8.34955731060635 4.385642811166654
Cr 3.6061384139694255 1.0185766991076846 3.2554232643622947
Cr 5.312099529182482 3.226270501960434 0.4897137559909242
Cr 2.3866517767175277 2.780410870162145 3.9995654725227876
Cr 3.868453302554931 4.736035255389719 4.646035085511489
Cr 9.456289490858868 3.23820741882447 4.6218579011303
Cr 2.718237333896459 6.96398567156169 4.123037322615699
Cr 1.4282388544089886 4.660424469414325 5.251458128542017
Cr 7.215392996958803 2.9317765123748245 2.3441807597643387
Cr 5.4090207334810065 6.742267015123689 5.0101248927130335
Cr 1.3510743051755396 8.601715474148794 5.884854346363121
Cr 3.1230195884926486 3.3385885199056564 6.625448113799999
Cr 5.305522114912195 9.591094330022061 5.076958875410871
Cr 0.11096196239068432 5.6577976123795475 3.1262835176231394
Cr 5.5742245325114546 4.332282562155032 6.52929615579797
Cr 4.6482748884988405 1.7429930705908996 7.12660886372373
Cr 3.5680682035063183 6.010033615498269 6.312084299459081
Cr 1.2829812456296077 2.0286881220042354 6.248959382664036
