39
Energy = -307.32848477 eV
Cr 4.096656511909653 9.00237971138108 8.252635724800218
Cr 3.6091864047195346 6.457374400490735 8.61436370162624
Cr 3.561953679221394 9.506600346896265 6.130706299536261
Cr 2.303323873601296 7.4893778595361775 6.769241181682226
Cr 6.317203262114174 9.34467687904092 6.565291572108067
Cr 6.040667588120071 7.078371902592196 8.974856146730394
Cr 1.3741973644716354 5.294173187495638 8.132808081125102
Cr 4.862835230117456 8.965318502569671 4.340443671399125
Cr 3.643142959384634 5.106006326484661 6.621991575565624
Cr 7.566618834144501 7.374713348386037 7.243652271319687
Cr 3.4504635834174007 7.113061019597336 4.652519741058237
Cr 2.5757772485122254 3.782046530229614 8.755986865001494
Cr 4.985857778385358 7.320280515279767 6.554427146133931
Cr 1.3867575026996493 5.4482131261700815 5.687707383369546
Cr 7.4055724082612215 9.662641955406265 4.026532924851118
Cr 8.816958355215307 8.19505519109314 5.735140222120977
Cr 7.592986274323259 5.060930433535607 8.747435039426518
Cr 6.279010793612901 5.152115084704055 6.866672847128909
Cr 4.953247794102489 4.476462888028708 9.146436873249533
Cr 6.746620376272057 2.602706410356618 8.280422510222932
Cr 5.4357733758562565 5.280532648685079 4.690730366134191
Cr 1.9731432267972897 3.1394166203144955 6.35273913548802
Cr 2.973535809606828 4.942374098957056 4.0277768643375875
Cr 4.567133214831963 2.940277466808795 7.257566649679799
Cr 6.561837324587132 7.391497843979221 4.871707841617177
Cr 9.549443537499192 6.151865673087026 7.278859626476444
Cr 6.834387726915323 3.097860663001285 5.717687005900999
Cr 6.475682168901314 8.549675382899435 2.5130570141885955
Cr 8.665933766139831 7.411951863557115 3.440442227360246
Cr 8.684210228730464 3.7644811557880162 6.921055754470558
Cr 4.887520269538369 6.618343360875824 2.7956418734739232
Cr 8.174711794206734 5.499915621976118 5.260229237852904
Cr 4.5648830441477 3.0463202482371616 5.036575623844383
Cr 10.466708890976546 6.3574157875395505 4.777392867373548
Cr 6.910988123709097 3.7190785611402 3.478927286922985
Cr 7.285111324983486 6.04567045114949 2.775806310738841
Cr 10.627286946609836 4.56890949326962 5.5989359797043265
Cr 9.269818466930683 3.174938086857642 4.5449859280224
Cr 9.395235228829879 4.831651737490634 3.321977480694631
