30
Energy = -232.30600425 eV
Cr 7.9339155853493 7.422016726536142 3.656661385374408
Cr 9.40523133283784 5.215179048808428 3.6956966636176833
Cr 5.8441910215169575 9.740601594401253 4.074321067740734
Cr 9.90867176345899 7.652317169412579 4.81166048232901
Cr 5.2780058137209025 7.304543159054198 4.508204779496379
Cr 3.1775845950745207 9.061801804439432 4.015197380255323
Cr 7.014563703541225 5.46451941457071 4.849598960541117
Cr 10.78718737491363 4.920523005879294 5.153168785881698
Cr 2.788294365882609 6.758211521005853 5.044653664551444
Cr 6.247392922084744 10.40353738382761 5.96422980065364
Cr 4.653855784476807 5.110967846945309 5.8596004039024
Cr 8.729152857105845 6.082531091625726 6.167362610900432
Cr 8.574459257454334 3.2405022817164326 5.439454370472739
Cr 7.341594734631574 8.161277865644587 5.661201521591036
Cr 4.662154942808935 8.337100625077081 6.300578132614598
Cr 3.50053234835539 10.454425768850168 5.487493863613332
Cr 6.753019980111243 4.092917206975418 6.88554647183839
Cr 4.817454301330153 3.3168121256986334 8.07560576892312
Cr 2.2208657880765807 7.98800841349347 6.493483556922487
Cr 6.610004462642083 9.04771159575844 8.13141484621096
Cr 6.148699764207893 6.716847409614383 7.164534318636853
Cr 7.300881749655061 1.7111551704058983 7.5057281955355695
Cr 8.37223702775271 8.090721985394097 7.910844343425363
Cr 3.654068407828636 5.832180423798092 7.452678093779243
Cr 9.465550513577588 3.660457708191389 7.2677277321964295
Cr 7.467257374935477 2.8678309521218877 9.205754343859029
Cr 7.854413111851278 5.4575121893359215 8.44324375851737
Cr 5.521885344965582 4.80166408944103 9.246855440426367
Cr 4.73271853434599 7.357354698954768 9.044735303775573
Cr 6.607791020077175 7.102405507592828 9.856399736988342
