37
Energy = -289.34956418 eV
Cr 2.6441450432311666 5.591555189340934 4.828243181618271
Cr 3.0660080600090205 4.817427774943451 7.418720761904125
Cr 3.3780249902618307 3.9254910351039856 2.959156980708412
Cr 4.407333348181821 3.7517224323773375 5.363160002093593
Cr 2.883052109521303 6.043764373530398 9.221640776026286
Cr 3.0810425288698453 5.794027134303214 2.0215096934403243
Cr 4.286717303695894 4.092336060647583 9.787496267737604
Cr 3.1721203837794683 7.580002215965219 7.0714876734022685
Cr 3.241143550097474 7.48564535387907 4.149889543538225
Cr 6.228724168699198 2.3526714060949296 5.583898093129025
Cr 5.966071624887683 3.1662513191965562 3.3300561121726195
Cr 5.388537806684097 4.004974713738425 7.555934269112507
Cr 4.852472625189847 6.158083937192837 5.888157256017714
Cr 4.924645927418812 6.587563503794372 10.94776819061952
Cr 5.232354384948787 5.702975074286118 3.6616822180489113
Cr 5.640834306874595 5.043313012582264 1.4240754185482816
Cr 5.112189216620424 6.250780383159387 8.39746670695095
Cr 4.381767281621854 8.278548729884964 9.800606405361235
Cr 6.900853829902369 7.123431433928721 6.9760679990352585
Cr 6.516157806054076 4.753234562147589 10.026555014413692
Cr 4.907581784826323 7.599590835817109 2.3560271312888506
Cr 5.4669451786149725 8.143990821301667 4.962811318160637
Cr 5.013372136746974 8.604069569116596 7.284559273774725
Cr 7.393855498233609 2.994408889974947 7.603656024236854
Cr 7.240603595035331 6.7599958133287315 4.569716032368023
Cr 6.930436756262658 4.628628610444331 5.695271792449908
Cr 6.95844691425121 7.960004098818715 9.244636774318568
Cr 7.665275642603997 4.492672184185561 3.1482360160305283
Cr 8.378401803539301 2.69725120811568 4.7695892997733536
Cr 7.720562340950259 5.224049244060175 8.220340813707594
Cr 6.846007623662639 9.138134377324304 3.461763415801339
Cr 7.451617430452828 9.214932346114113 6.03545289805289
Cr 7.40681120009161 6.667086649066318 2.331232770033694
Cr 9.170074328721894 4.219637203209731 6.48826394680944
Cr 9.337935061172805 5.3708165481334715 4.3569592889947275
Cr 9.189140389374465 6.861942770534525 6.609701776387755
Cr 9.117267891868002 8.415318047801723 4.023771842439765
