37
Energy = -287.39290694 eV
Cr 3.0869434097153543 7.464150079408034 2.571559410007412
Cr 2.670158068004293 5.817804262769921 7.354359248419042
Cr 2.47104340988745 5.249550639387406 3.6919378214402663
Cr 3.2417789391598553 9.337209571327682 3.6189144639402544
Cr 3.612314783284105 8.311618351120183 7.49700073607415
Cr 4.7975458455797195 6.120491884823834 1.0399884179413315
Cr 2.9096095833350755 3.205382706168779 6.727105263737607
Cr 4.318892780948729 6.99189765859327 9.724095210018197
Cr 6.453042825445226 4.142581595557628 2.1902195630913726
Cr 5.1334768258152454 9.174570899211718 5.273708792022299
Cr 5.601342448688386 7.845849863158107 3.1620159589313253
Cr 3.896397278281363 4.625817461292137 5.354196170775564
Cr 3.6319445356009457 7.2656199178371486 5.288338838453119
Cr 4.368950058456727 3.0862909550660165 3.7086278617426505
Cr 3.5999254706530266 4.959519166547628 9.01520676210708
Cr 4.863381890301503 5.570140907596917 3.198965301076191
Cr 6.450999946376054 4.111447132741008 4.873249178727787
Cr 7.108656858007669 6.379241216674242 1.7473176439182305
Cr 5.751544892438303 6.6623349755793 5.462012308844173
Cr 4.990812738069881 6.612438083625887 7.695694551881031
Cr 7.463812174349859 5.944939867279729 4.030920462388127
Cr 7.365037386381139 8.236619283522272 5.378174338906549
Cr 5.1112016408211005 2.0513960852767648 5.720719874003895
Cr 5.199585633928417 4.186596815870077 7.225660975603361
Cr 7.498924343200733 5.644402250407316 6.997531835258745
Cr 6.588248578938551 1.921254418894146 3.351218988927909
Cr 6.647662395427046 8.228005218482725 7.375974106944209
Cr 6.209191043128695 4.831384078509766 9.38998851356885
Cr 7.10641298011023 6.8286432622599955 9.505655457872077
Cr 6.968390783153508 3.072142266458151 7.200012975082601
Cr 8.826457781800274 4.6369983006848665 8.59712532910748
Cr 8.873811279850257 7.377104476590614 7.4849336368410535
Cr 8.672497484083339 3.9229412148589766 3.2332563684017934
Cr 9.29628265723488 6.556054808528897 5.166336221786661
Cr 8.842536686217318 4.31329006680691 5.666050232226571
Cr 7.966769627183615 1.9053286632603734 5.345967624507728
Cr 2.2348007810127135 7.239327438692512 8.966345400292855
