39
Energy = -309.30654864 eV
Cr 3.8397476638305474 5.079894329032731 8.651949263624168
Cr 4.290654779163395 2.1040731347391373 8.21371386039435
Cr 1.8101316452136669 3.2535327599018244 0.6097464828093697
Cr 6.399736487964506 4.006651264867692 0.56763989251576
Cr 2.5599770324640243 5.251862588558745 1.747030599432599
Cr 5.193670192783178 5.759837387207665 1.9013522651776609
Cr 4.248448701114361 3.2107307752317977 1.3747622652918998
Cr 0.26116984719835834 4.648798142070899 2.544026064012389
Cr 3.0396252319657684 0.9957872690589851 1.865980276805921
Cr 5.890341995877836 1.374168465785377 1.8151505209157122
Cr 7.545987826048339 5.576535493796018 2.6068738180654165
Cr 0.5597299346509697 1.782240237069645 2.6814054157765117
Cr 3.768386031030198 6.780335226487146 3.5174150231012002
Cr 2.185439574800076 3.063169111830393 3.080350239929115
Cr 6.41678025628648 3.5827295701084374 2.99970327455098
Cr 8.46860102777492 2.7348785792510335 2.4397029551998064
Cr 4.14024414064657 4.499694807979215 3.664838954905242
Cr 1.2004992379476835 7.303828249762455 2.9031339622123356
Cr 4.374743695314825 2.1731372872479437 3.716729629450643
Cr 1.7307189771884604 5.233703265329929 4.506811475458993
Cr 6.103276534550805 5.923152713564569 4.391271382607444
Cr 4.588725546716933 0.01709422613969258 3.834692806866397
Cr 2.2671901446150335 0.9778215931628608 4.591530590845212
Cr 8.46860102777492 6.037814890709455 4.999198584663015
Cr 6.654617218960079 1.4958402382454787 4.578645201775011
Cr 0.4707724154097586 3.155043335271928 4.9896435309727005
Cr 7.847255017536754 4.13086166843005 4.970660620586336
Cr 5.638719649751819 3.601084567545145 5.584326092446783
Cr 3.036247717939321 3.291819216524364 5.393833097564325
Cr 2.2072988786357493 7.442435866777322 5.526936761483072
Cr 5.165518678425165 7.747462985307702 5.635444358982416
Cr 3.9428053489387658 5.700558017183056 6.03971148784942
Cr 4.488665370480235 1.2603326975305444 6.237135067961764
Cr 1.6662103968160298 4.902299690574662 6.9068865027784065
Cr 6.243171946312238 5.466178421215933 6.869303663094088
Cr 6.535905753635049 2.283225519583492 7.239723462508678
Cr 1.9431775599212848 2.201653223582137 6.96330003824385
Cr 4.120832131611133 3.608440578214953 7.650890762594954
Cr 3.795514560983813 6.641936350085575 8.106186358138315
