36
Energy = -283.49635348 eV
Cr 6.671109671052873 5.954734724907963 9.872711210655584
Cr 9.08776325140794 6.107246070874873 8.848265275988153
Cr 7.9992492091077825 3.6587417776568665 9.000955872936668
Cr 4.123827917883965 2.9545387032343973 6.720049493508873
Cr 5.839845343565337 3.8885631969686227 8.358364982388784
Cr 6.928709408131479 2.625863480006309 6.602725989106187
Cr 7.516910342091674 8.189352147480664 9.9000589221433
Cr 4.863397317987393 7.841378262374333 9.35026031484502
Cr 5.406225240801656 2.5370695638452103 4.658701512220819
Cr 3.2399089427645174 3.9309958152657782 4.16934429223605
Cr 6.741146929717988 6.582928303872249 7.662609409059226
Cr 4.078467882754623 5.565926584614399 8.043371533481132
Cr 9.998760055795582 3.787892483429678 6.675261187808627
Cr 8.74232461192632 2.8126608747220034 4.8401626886441065
Cr 8.799113592825153 8.301336733683458 7.925632930689569
Cr 5.303395197494192 4.905229034223228 5.970897116115582
Cr 7.967373694883338 4.827206077541354 6.622683237267884
Cr 6.187726083430268 9.362228583430081 8.17937138858632
Cr 9.038569022153398 6.800952995148915 6.20141420993527
Cr 2.494404128086047 4.904562759190087 6.212328949414956
Cr 2.4264069154966914 7.65322772321204 6.742719854419355
Cr 4.794014860287627 7.537257362160601 6.904264448269368
Cr 9.411215073390284 5.121755679084725 4.2394504910171555
Cr 6.9370472208452485 4.255104029666544 4.36264327226257
Cr 5.184491533218502 5.1325635147145725 3.226653634635253
Cr 8.947284137037926 7.856811182384766 4.0841262331060495
Cr 6.546759935331662 6.885283595153117 4.87136944249361
Cr 7.2931689510329525 8.876591362202491 6.14529544130356
Cr 3.8967413464226333 6.378991720269127 5.010758519062417
Cr 2.680872758954206 5.891586023435252 2.6300826940742423
Cr 7.377574357849058 6.3047659483546346 2.6864232469351577
Cr 1.2751849337813532 6.1922049716327185 4.414261946783836
Cr 4.739283877968725 9.009778021139631 5.165920804383885
Cr 6.992619751235719 8.87153813032571 3.4718537836056016
Cr 4.696863873464791 7.439124772351397 2.756806221953434
Cr 2.646201012384705 8.259352553452642 4.18323339209202
