35
Energy = -273.45318845 eV
Cr 13.065073776196812 8.710756290811231 7.556661929287016
Cr 6.527285417978508 9.898741822603192 6.109037113373861
Cr 4.385486606235422 9.603745596869018 7.157310836789393
Cr 10.147031061338643 6.68874198032398 10.834777434206952
Cr 8.269270741619767 9.93963433480419 10.146496387046405
Cr 6.149575400815191 10.781655154919399 8.670664073963088
Cr 11.998238826715891 5.786512797528113 9.0692678340615
Cr 8.61100402526277 9.887209475029364 4.7537931713497255
Cr 8.01103203891235 7.910676511722087 11.377584056467098
Cr 11.079329627569768 7.6646961362067305 8.515078297779024
Cr 5.230167669934045 7.6536842927385065 10.940600562126074
Cr 8.268174888846623 10.16207455434607 7.487769553728527
Cr 5.670729474102345 8.416045832171134 4.577483193286553
Cr 7.859289403934069 7.7925450774302645 6.2498630532882515
Cr 6.057096536171363 9.709412018594602 11.189025588684347
Cr 10.29285405405048 9.003623263560776 6.510704021530413
Cr 6.725873000521376 6.375263099274447 4.849080980561652
Cr 5.349965157309712 7.403368134569047 6.770414519731718
Cr 9.714528831568085 7.197480002450562 4.483340215245316
Cr 12.767601823471473 7.718869008056907 10.6035721686586
Cr 8.76646991356372 7.986194112392739 8.795181650625631
Cr 9.956932321691058 6.398578194837554 6.779526947396553
Cr 6.4237913891902405 8.44107269075386 8.669383068196906
Cr 7.374299276677856 5.975181520375448 7.815167913882559
Cr 10.718225624512991 10.33528836264809 8.581685517340674
Cr 12.79464004949462 9.812705568330832 9.483912619978108
Cr 9.527904461461587 5.3161088934779475 8.60901583813263
Cr 4.151157893280377 10.044369549625788 9.92116155203139
Cr 7.942666433987635 8.18795556729375 3.4196706434407718
Cr 5.48184846515912 4.612760069814127 6.491147044120228
Cr 8.278295740868273 5.015193915314601 5.867888725989687
Cr 10.524132089556531 8.885747194452007 10.636463294842153
Cr 3.801986928853277 7.948065217916309 9.00575093844733
Cr 5.083125999300314 5.885462465659611 8.584859715978599
Cr 7.499362769509004 6.221377242510122 10.124091162576125
