30
Energy = -229.86858545 eV
Cr 5.3215484663809285 4.2627763418680615 6.948224316757096
Cr 6.7111874313667865 8.168106594851489 1.8912010392175327
Cr 3.5072563382864304 3.3200875497482074 7.943362804549395
Cr 7.055561899679882 4.963185997748153 2.427417013231668
Cr 8.173881153745251 7.296890485533531 6.597300935958221
Cr 8.507054230434152 6.1434462723176955 2.31722804673048
Cr 7.807518281926572 9.91703620139213 3.5793783946826885
Cr 6.022002817755893 6.433412901306992 8.46956594981094
Cr 5.979407652290679 2.0894943880953423 7.97001894502127
Cr 5.099629092822802 2.0715235371925873 9.825940395337545
Cr 4.6989962854665555 2.6238998996833622 5.446277272014861
Cr 6.755493763630016 4.210126459167821 4.848603961706297
Cr 5.31029354874211 9.033647647473634 3.073674684947387
Cr 8.58885594062337 8.056790243234433 4.122095263623087
Cr 3.071300311111567 3.814885939778418 5.3973123401129435
Cr 5.996962894116962 6.5161266341225685 6.141064656844528
Cr 4.023968816512501 7.452515675509027 4.677530549215958
Cr 4.31525247033687 4.521180570308155 9.398715642784122
Cr 6.401440883364642 8.689048366625476 5.323196492861113
Cr 4.41272998235094 6.677448031998525 2.783264735421546
Cr 3.5329113912257912 5.873520713384753 7.052785379279621
Cr 3.8160030809695042 7.050082707106976 9.009698745673893
Cr 8.354045085672208 5.557164123255336 4.903259469197238
Cr 6.724785757457352 4.148686385770494 9.154262198019358
Cr 6.450295129024135 6.754995496251821 3.8184037162417437
Cr 8.279619440852754 6.293028478017965 8.776073931364246
Cr 6.725051412991415 8.541594174226132 7.809446472184401
Cr 7.784986915410195 4.7895406526489275 7.291582193822961
Cr 4.6770292228649115 8.34877618836406 7.147672337854136
Cr 4.617625805441352 5.103676845871693 4.578137618387485
