36
Energy = -280.58969395 eV
Cr 6.320723282741356 7.923674329179459 1.0554651980436005
Cr 3.9180888253997006 4.250882070140732 1.715621025475705
Cr 3.497722213894411 7.33477046652204 1.278598603764221
Cr 6.506972430948554 3.5497928085651975 0.9463161978241549
Cr 5.689313053217415 6.0427688856859385 0.9990905248975468
Cr 5.12217261234753 2.0438285948799337 3.167432738982366
Cr 4.5932373432718245 8.707768868600896 2.7496694867110225
Cr 1.779817705309482 5.1610477314081695 3.2550281562650083
Cr 2.5013956354144478 2.7073670445510247 3.448666083922724
Cr 8.075424113118686 5.619677526307394 2.2224811419853956
Cr 3.908643851444043 6.212097837362265 3.118877775323067
Cr 2.237327008616166 7.907880895598664 3.742851434344222
Cr 5.979236612776604 4.452465945775322 2.968915570451001
Cr 5.59297958727717 0.5501529732311099 5.3355042381219455
Cr 6.227246926174081 6.914576483303942 3.5346473625867687
Cr 7.822870095513722 3.1121704617473607 3.4831092119416778
Cr 3.913621013688686 4.067290132917905 4.392929829920516
Cr 4.389622205146669 7.928672844756653 5.2003305545176755
Cr 6.890632001159196 7.043490447426755 6.226023324147825
Cr 8.310823133951033 3.023684106793902 6.047433141104388
Cr 7.786404300533114 5.109691489180373 4.833213708861144
Cr 1.907566430261603 7.805556340808456 6.606919001426182
Cr 2.612899437566704 5.966823781324157 5.521669505899931
Cr 6.080475548575332 3.04823283227564 5.171122940880926
Cr 4.034437440113003 3.698967065189779 6.910986931805373
Cr 1.671838306004843 3.780689496857216 5.657226251619098
Cr 5.317834169785442 5.5803093240573824 5.398911701703622
Cr 6.047584527469013 1.9425447993486251 7.146353239950581
Cr 3.723292893847551 1.6990610878988366 5.573711500818588
Cr 2.9017079578053524 5.507533772696813 7.9916353621064005
Cr 6.796528328819786 4.379386314010941 7.263035335895228
Cr 4.306090340602979 7.517777089486317 7.105439559712302
Cr 5.55005834155313 5.722765394274723 8.190857465912437
Cr 4.775876829346 3.329489245847068 9.054173227538302
Cr 2.4231213177911775 2.466297929207558 8.014317605511525
Cr 4.068047267496538 1.1724466717621298 7.953068149008949
