44
Energy = -346.10261924 eV
Cr 3.02320893418367 6.112295056439055 7.789599297519916
Cr 2.024136266271281 4.056840855862426 6.581734039287905
Cr 0.9592448046626849 5.775313020636329 6.680791530705556
Cr 1.9949286416132157 5.6659632997797065 4.456044030897156
Cr 2.573484334147319 3.524723502714026 4.376039250251249
Cr 3.748910471074162 7.482759549674689 9.522828676123513
Cr 4.1832371335261 3.975305597086408 7.973744243971129
Cr 4.405641882888764 3.0283276016049343 5.558714137471675
Cr 5.108432235341914 5.734006676964609 9.211497837508734
Cr 2.528966227482958 7.42458508947861 5.821830241182989
Cr 4.10512999500582 5.364912410524272 5.723311650992811
Cr 6.771962568272539 2.4310996540331544 6.357279897155799
Cr 4.884024265455252 7.319791560639719 7.118346116501706
Cr 4.182937341398375 6.994149274687268 3.5151525737519393
Cr 4.328619329326474 4.664394151370109 3.387156800708282
Cr 6.578959839273927 3.4125579230374616 8.87039788984585
Cr 4.467188863479643 2.2594759215559863 3.281723758616863
Cr 2.959863087712983 8.95631966120316 7.545724996489242
Cr 6.368111300599645 7.585447518428562 10.55188572717662
Cr 8.51651646814874 2.9505159302301003 7.321244156708214
Cr 6.53459366678628 4.925987224375655 7.126254698926138
Cr 4.477442927837423 8.443401008396028 5.107603963610507
Cr 7.52886262451792 5.16832204049548 9.771902586842495
Cr 5.348343537685853 8.86372921998661 8.706965996997784
Cr 6.2887867016631604 4.069321819096764 4.468363377138233
Cr 5.207593226309853 10.040845989309947 6.547363861256954
Cr 8.966049718670478 5.267669592774435 8.073674498715025
Cr 6.487764286913372 8.157912286106296 3.5137086946130065
Cr 6.3296503899490855 5.931483214593577 2.376678347145289
Cr 5.97079412711768 3.7775413416090253 1.8758397043964374
Cr 6.295879310004635 6.419004374584753 5.154676918643425
Cr 6.269597332796824 1.8391589622086393 3.6880358339213375
Cr 9.136257636782517 7.319452057129815 8.720401953242284
Cr 7.0761235993648235 7.116431420939796 8.221971254089173
Cr 8.319393637635924 4.5478013881442765 5.543682753147376
Cr 8.442223689594089 6.737175265313417 6.204495972268465
Cr 6.952043114004466 8.71256184081376 6.2194701198991496
Cr 8.240723243388427 6.142340975806605 3.6517649845655678
Cr 6.869586527742566 10.244691851712004 4.32666779028569
Cr 8.157122077398196 5.466261465502876 1.036746052657782
Cr 8.095640032436268 8.063727426946464 1.925716236773442
Cr 7.916337839714022 3.716611777307064 2.827695859626158
Cr 8.420167133871411 2.2703020461983736 4.732499464777629
Cr 8.91303702160414 8.221080715944458 4.587849467426207
