45
Energy = -357.82911861 eV
Cr 2.860423535572482 0.22428912470064533 5.259511008051076
Cr 7.804135430874635 0.9524767172878877 5.8467981314994635
Cr 4.214240239724468 1.902007814483829 6.259304104164497
Cr 2.865731028421517 7.492903970723078 3.7018481402931283
Cr 8.506843506048337 5.498405559168339 2.051949299717888
Cr 5.542363805211172 0.19906712740791518 4.464404064400178
Cr 5.696121943975768 0.5090493408938677 7.156054618336546
Cr 3.142161357456196 4.2965525324131235 6.776973089547801
Cr 5.872400838700476 4.0966025595267395 6.4004610524975085
Cr 2.393172390008532 6.635473059703002 6.256677230826969
Cr 4.517769375499924 8.172912680994802 5.546500767732279
Cr 5.194437773032074 3.1385708896589843 2.0356292437882932
Cr 0.7001639180612256 4.300138768504366 6.087590176756842
Cr 8.207517696498636 3.710583688635999 4.759084183359116
Cr 4.165744673513554 3.677860859050142 4.4494768014737875
Cr 5.559881118072489 7.089747079801644 3.1578677287590713
Cr 0.5229264538962917 6.344867797997739 4.153887141170756
Cr 3.8978107185378867 1.2643964650937467 3.4731855143580854
Cr 5.59253579255841 3.4871568227366865 9.15422514137215
Cr 6.935053562782871 6.16892671859915 5.555665150886643
Cr 4.581508470247396 6.114413096750499 5.255447216118242
Cr 5.725190663190902 0.862098071287855 1.8711829569542242
Cr 4.667408148715246 5.810095972726653 8.253616429612368
Cr 2.034940614372078 2.150975036327798 7.379144162718905
Cr 5.791441842027598 5.520983170246507 0.9964806030588016
Cr 3.5421961057881757 6.807437858029127 1.2233169659727272
Cr 3.367212794918283 1.9734144985838629 0.8920092738110798
Cr 1.3388054542154602 1.373070350771242 2.944364005260599
Cr 2.248800365459432 5.007602858163324 4.419982539037306
Cr 1.9212315086711977 2.4182977987515777 5.03032084653291
Cr 4.830006212493109 5.852967699703629 7.584547027306652
Cr 3.996505378858309 5.336938175484862 2.7429027928918948
Cr 0.09983766547753792 3.8606030574693597 3.488131095373117
Cr 4.697772560593403 3.1378926611456515 8.253616429612368
Cr 6.10299278418452 2.2401604889654774 4.79848858950517
Cr 3.433034887023201 4.510133320212734 0.37566630515854676
Cr 7.589530643518489 3.991587242779339 1.7891921549554635
Cr 9.05401942234477 1.9496309089243464 5.115316574488271
Cr 1.2308805134347065 7.923699754883518 2.1189894477829605
Cr 1.4741465514411607 5.780625115008043 2.009785111187828
Cr 7.449416586849622 2.660563917176906 7.225324962101961
Cr 6.436356437582606 4.787122971091481 3.6895548500513624
Cr 2.5126367396287215 3.3347722852258816 2.559688490946595
Cr 0.8843673398121825 3.638484553831901 1.040375307834165
Cr 7.459644741966193 1.9847370337192092 3.0567828639964003
