40
Energy = -316.63654992 eV
Cr 3.6803433090527795 3.3558855084868027 7.851288542779133
Cr 5.4393461184193725 5.829245075266057 9.368444774943123
Cr 6.685167921808488 3.253081152341971 8.583297443920758
Cr 2.9912182656528223 1.9445762784193674 6.148876309947247
Cr 3.3881938222872723 6.016615044693152 7.1592294537876855
Cr 7.879810175962803 5.164737845516576 9.838175983408327
Cr 5.606926569817752 2.4644425555481533 5.9946523337653375
Cr 3.700184815841824 1.8965183457095816 3.966359811207271
Cr 1.7243822338896224 4.27543805732921 5.993387125477958
Cr 5.461493854374481 4.759354996861395 7.24067652685782
Cr 1.631489574657383 3.4262581190690433 4.002341971228628
Cr 5.136859309205702 7.539331235421405 7.568942534591215
Cr 7.893729866287124 3.6250959299235546 6.5083894759756395
Cr 1.3978663842698607 6.959323984047511 5.837138565442689
Cr 7.218872329753801 7.749535228196759 9.146638265121236
Cr 9.440568904410512 4.081674388877678 8.390585264510404
Cr 9.446809613211892 6.9248673779652306 8.671695398205646
Cr 3.9650603913906077 4.236309994770956 5.114383770984481
Cr 7.426128819647481 5.767588106821102 7.49969536500293
Cr 5.858669995086867 2.9661407411210337 3.500338649502222
Cr 3.0909619847319547 6.284226974957438 4.574628911815548
Cr 6.497873937643874 4.753481733663596 4.787630960835286
Cr 3.458944131248339 8.509568914236162 5.872877901185276
Cr 0.745976239304483 5.726458480393185 3.6575009655291644
Cr 3.4097147316130947 4.249801309264064 2.675946997998059
Cr 10.100252248864024 5.413788930922186 6.570705763316193
Cr 1.6652334395706654 8.342252404494909 3.6473132409593987
Cr 5.386907358696745 6.730199025603936 5.560783299383354
Cr 7.295479710562733 8.3645084549022 6.675504622749772
Cr 9.0194297527812 3.898747979532995 4.406343240712207
Cr 8.132799839512717 6.382893089228079 5.337162353663229
Cr 5.855105086162447 9.086413417882415 4.887720979795057
Cr 9.93535984325341 7.94009965882423 6.114837449897066
Cr 2.533735816207176 6.624609344606682 2.1733131559439722
Cr 4.389242837990512 8.011999122027989 3.3237686242135194
Cr 7.907795279068053 5.129243895853938 2.7907664716131726
Cr 5.0803428357495575 5.8534962042106145 3.0976912937754646
Cr 9.795968423579982 6.553932538549675 3.6688593273713845
Cr 8.739598183047397 8.843668449336999 4.3007765048666
Cr 7.006512348647189 7.311230690180797 3.4781924343811688
