47
Energy = -372.37930185 eV
Cr 5.554109557589045 3.4715723185550598 0.0547452625660896
Cr 2.89693569877872 4.083330022823337 8.893732640916173
Cr 3.4851893846522386 1.4240868950802983 0.8937291076238233
Cr 4.511432993401762 5.813959806943226 0.4177404334380426
Cr 7.490510308848123 3.368919909112346 1.4935001514375248
Cr 7.251982328091043 5.7531162258882675 0.5496065915197437
Cr 3.0831774961508636 7.692444615801672 2.134855357215092
Cr 2.136235079392411 5.583886372039927 1.4404325415627413
Cr 3.616622392814366 3.6165564958649203 1.5627756478001336
Cr 5.583863151332425 2.1330248375040792 2.5324640045789804
Cr 1.1727558639394577 2.819476675072075 1.6808297889422152
Cr 1.4008060694538813 0.22394997810069525 2.6407405092559144
Cr 5.416870904789425 7.54004963706621 1.6429334830723623
Cr 5.866514161447695 4.817332442731673 2.319166685906558
Cr 8.483645371902464 4.784160777325364 2.9960271730563837
Cr 3.182921343005524 1.6101085605277234 3.2632812338897765
Cr 1.5606138333141948 6.515290499039161 3.943031570440404
Cr 3.3666605166132437 7.994293763706373 4.807392722071007
Cr 5.094569600774299 8.033884240007023 4.273651315485688
Cr 0.23619525596473923 4.719033425982058 2.9552876892654387
Cr 2.250858024962387 4.07203114152613 3.5980422957846265
Cr 3.9708060538743535 5.881502558332032 3.1798514508985813
Cr 6.909011743998765 6.610468710812158 3.273235984819244
Cr 3.0708757743493624 5.4094241926918984 5.620008303477634
Cr 8.474164124799385 5.225770117768825 5.4093350797330135
Cr 4.455816427696247 3.7730204155169567 4.1008349782532285
Cr 6.885489698382018 3.2132945827010277 4.34608124447092
Cr 0.662237798245997 2.0771503442121673 4.184572290306397
Cr 2.767204804265683 2.7266126120726346 5.774970007286589
Cr 5.988864946763182 5.430431155492876 4.99652390960416
Cr 7.427007017752313 7.480566816211002 5.743066209505553
Cr 9.20351214648332 3.0262620041985238 4.928606097570794
Cr 4.838280135779067 6.8234874559902705 6.67384860606156
Cr 4.984594685462127 1.7470717065374153 5.19858585647217
Cr 0.7487976042999785 4.360038648843384 5.596251538345057
Cr 1.9425978432122313 6.756034052593384 6.872869015203345
Cr 2.3489102400360995 0.503616330558693 5.166502493776896
Cr 5.318277763866603 1.6289200812740698 7.894241274395345
Cr 5.041293837309134 3.875839588242125 6.577775949126817
Cr 4.003208230573673 5.706450532617644 8.147052000765
Cr 7.239288552065972 3.5167202752439692 6.717195796323169
Cr 1.0360695966285818 1.9648797478243902 7.093581570682139
Cr 6.710253216811852 5.817141737239008 7.4984110814411435
Cr 3.773775727972206 0.8448502545311934 7.448998670955647
Cr 1.7805956771795288 4.272173984524379 7.845539704735405
Cr 5.696987242636352 4.157514084582674 8.893732640916172
Cr 3.22951346631767 3.250153062669685 8.394459759099572
