44
Energy = -347.00731996 eV
Cr 6.598585171628294 7.125728544503015 1.8551632327010696
Cr 7.738086849842588 5.034878160757734 2.2467922161791285
Cr 8.155669314395405 7.191027848745258 3.729382441827799
Cr 6.467513465631123 10.726743549639032 6.106560814857939
Cr 4.912290399182508 5.454653184482851 1.584827736188566
Cr 4.520104107172586 7.643662225232453 3.138246559620274
Cr 8.316653764686496 4.756953758814234 4.7989771035822635
Cr 8.045411894985076 8.960849009912891 5.7183366853281425
Cr 6.308295195137621 8.372828881960144 4.374253709671376
Cr 9.52970300149951 6.603842439959448 5.9994255787851625
Cr 5.974113742714116 3.4093698930091323 1.7313145644051693
Cr 5.895234379583187 5.517875339409891 3.8822550450012554
Cr 4.514068074447954 9.46838951525198 5.3717459000122885
Cr 8.035671746452415 10.101367884807914 7.974161349695003
Cr 7.248095396291535 2.8105762240843077 3.802810419401425
Cr 6.99485709033788 6.486333529601532 5.891549669066056
Cr 3.279089843499833 5.5944630854174555 3.23248124549397
Cr 4.262741721040888 7.056045648714417 5.400767758138062
Cr 6.080981537626475 8.390129999334986 7.097781316656964
Cr 3.2431735571106963 3.3129328964504965 1.6889313426953956
Cr 5.230076346763445 1.2340095678986291 2.5215255553063454
Cr 8.753017648080375 7.502960759118852 7.630496225173255
Cr 5.263215839787892 10.109432208320086 8.14314277044797
Cr 3.2587916401061343 1.6457379898856601 3.5023619888887465
Cr 7.1709154047428 8.9369067187532 9.536776829165378
Cr 6.111691035930519 3.797580285816537 5.977311143212139
Cr 5.724262644057618 1.461331620205304 4.889659753168563
Cr 8.257183306785686 4.891675290799418 7.3615029305622715
Cr 2.1520381528081747 6.287864388526318 5.598769453464162
Cr 3.6104135829045907 8.016354452250074 7.518868712664544
Cr 5.40662212734339 5.760336890926653 7.314792825459537
Cr 4.677349693025327 3.5210422716242435 3.6946421295812444
Cr 7.865256885296566 2.5069064323402523 6.311311174892409
Cr 6.8162423559178515 6.6056739820793435 8.868480718513815
Cr 3.8618963499991255 4.67050426630437 5.662309835247758
Cr 2.0397725320187607 3.721947272013831 4.272984607280925
Cr 4.817949627101722 7.550223114090151 9.308333286056502
Cr 6.835134004356985 3.8620738634613554 8.639963560783405
Cr 6.127444815767703 1.7327828474087688 7.402053960039965
Cr 2.0974016511343323 3.7823254478678257 7.20271238381028
Cr 3.0432976529088234 5.825147328142482 7.743840153858524
Cr 3.8210538864686736 2.2368584535887246 5.823824691811433
Cr 4.647415131137215 5.055258118285727 9.591876024382563
Cr 4.4719269365741505 3.334193623165514 7.851850965503188
