49
Energy = -386.89392504 eV
Cr 10.979181537235364 8.908816004292058 5.459129552506518
Cr 8.158917071191148 5.912298180275313 5.382511780002447
Cr 9.7909680273296 7.462663444598126 3.994905698927939
Cr 8.234497679407797 9.728585014174133 4.7243472770357915
Cr 6.052346537446974 10.083589897942169 5.128631332827637
Cr 7.057916674637552 7.749047981640057 4.001608577294986
Cr 10.459976112456845 11.277520485237247 5.225873762657822
Cr 9.404259905415309 10.346388633482572 6.979760985079866
Cr 11.534851663614866 6.746747938936061 6.083689833272869
Cr 7.748663682114121 11.901072173490517 6.537811901888885
Cr 9.632724822228772 5.442357356061543 7.1587724023681405
Cr 5.7112899530767045 12.481650331592101 8.046355986719053
Cr 6.340896755242941 7.806384570262831 6.062103982484524
Cr 6.762238355568579 9.958605446239645 7.12346668133082
Cr 11.896542983555973 5.824905411474667 8.65986849678269
Cr 8.608063820188192 7.9974558639390665 6.15885065487636
Cr 7.912719674131817 6.439438364348374 7.956981903456764
Cr 12.8642652513599 7.905615249916968 7.707769532418331
Cr 7.665486102586322 3.994135580817497 7.236866410302307
Cr 6.236188628893805 5.3944819147709495 6.9278840925003635
Cr 11.815758677022115 9.934958081128574 7.5088899283154635
Cr 10.326684605360233 7.876289796727906 7.87573173451333
Cr 8.375688699482163 8.894041963950544 8.738094450590605
Cr 10.155836941168005 12.202917735230416 8.324072800143714
Cr 7.963004075057798 11.394607330445366 9.011191665313497
Cr 10.220055767055452 6.096491682243366 9.75655716172144
Cr 6.587344724897456 4.92900882672617 9.585486475973049
Cr 5.807265276273808 7.8845628804142125 8.519205836395615
Cr 4.952873451499451 9.449892099759655 11.630665630534212
Cr 5.126023826905215 10.563621404043461 9.036356379420988
Cr 10.37953522209639 10.239557333090882 9.415844083772784
Cr 7.771923717591525 13.445261097448205 9.503507519073139
Cr 11.856248667852716 8.209901217553904 9.706403066407587
Cr 8.447011005856641 4.34528700397972 9.417995783787585
Cr 9.480640298886806 8.224936745759203 10.823906599590556
Cr 9.691450202208378 12.324131618609531 10.82805912256206
Cr 7.57533763735787 6.815974122023245 10.40135464279787
Cr 12.782135901918137 10.295591897104174 10.181902675786494
Cr 11.207029601486887 7.024193660769172 12.073611214080476
Cr 6.651715545175485 9.22022068491656 10.36726894028598
Cr 8.528419771713596 10.45849891150075 11.202859084684807
Cr 10.960894294865442 9.924509018620153 11.721490509846772
Cr 12.986067348636535 8.318260711359596 12.079659700300462
Cr 6.196850938927675 11.834658836036466 10.928220445282399
Cr 9.083493302013654 5.541489052657584 11.923781265661836
Cr 8.242885305298216 8.175924296157104 12.646055934406863
Cr 7.657530823932356 12.727190033547785 12.269828922093257
Cr 6.325636278124147 7.275714369161667 12.078087628407893
Cr 6.741334607808207 9.959219499698722 12.835391707670105
