46
Energy = -362.26398858 eV
Cr 10.531475294511411 6.907895321142903 4.674056933154406
Cr 9.128479291178992 8.257003400351035 3.225414224579713
Cr 9.011363259181184 5.382971979911456 5.618047200228621
Cr 8.379185612800981 5.976176812608769 3.2954535684170536
Cr 9.500061628792844 3.6939092477661757 3.581039771688905
Cr 8.482121092510274 3.2005386351562226 5.920162346325991
Cr 8.877289745262408 9.019203372177731 5.540262940230949
Cr 9.329793552716762 5.13853084540381 8.079210702083971
Cr 10.016532096621587 7.474424688204017 7.130705835084819
Cr 6.7093638877384825 8.133049762814395 2.5634542217917002
Cr 7.086995489623014 4.5034775613048925 7.478278605745442
Cr 7.329654866678338 7.3993362185095775 4.882152586029376
Cr 6.5029961888560885 5.070989381384379 5.179803769926773
Cr 6.05052930683217 5.708125523662681 3.077008333706074
Cr 7.527013742857001 3.3855094273285706 3.321307821620087
Cr 7.979329330937582 9.426714398980439 7.750640259661706
Cr 8.892620175100596 7.806332453634066 9.280794056203504
Cr 6.150702774015619 9.04070744911521 6.260188030881945
Cr 6.8255957217772645 9.777457491214918 4.123202382155993
Cr 6.7497582426066405 2.4022518118154794 7.976217142532586
Cr 7.762343423828677 7.034915567073613 7.124905165459837
Cr 7.052138568302925 6.365651414650511 9.336451592124902
Cr 5.114958021886565 7.447618060432022 4.411385941577874
Cr 4.23188938537234 9.858763553614573 4.917971737234078
Cr 5.452171167805964 6.625655325051576 6.9620013484849474
Cr 5.191757073494625 4.889142671746459 9.08780751491808
Cr 6.327477119272297 2.671518184595013 5.537988381909225
Cr 4.714060869246187 1.096381431349426 6.773368027041721
Cr 4.424637933487101 9.409552407722689 2.9492929556620116
Cr 6.069760645937295 8.251052902443083 8.801903455496713
Cr 3.55560601941374 5.7898994458291035 2.8062437306138466
Cr 4.346443909045643 6.906450112768852 9.336680098880933
Cr 4.68833229057739 3.7754340424541146 6.899099844799507
Cr 4.566468246061656 2.384600588900178 9.065078482846667
Cr 3.9348260983668077 5.404760296219401 5.012162086186762
Cr 3.4620027034328933 7.610550869286305 6.507353628608653
Cr 2.7204851804975676 7.696586289688089 4.030652452363812
Cr 4.9406866299584715 3.5654662162401047 3.4129793211734105
Cr 2.8068493747953047 3.608530294873907 8.810699711334456
Cr 3.746321472037528 2.5950625797804694 4.7876646880618825
Cr 3.150888913565212 5.409478231916165 7.570288317686663
Cr 1.0701957670714402 6.570719298106213 3.5484853307167294
Cr 1.999653426788111 4.368728833584987 3.6296932557041
Cr 2.8837513624523905 1.8146400475148494 6.983447076794575
Cr 2.1098490753026007 4.050607469917595 6.004527750335249
Cr 1.3740157333903273 6.20769102125246 5.805181200022461
