41
Energy = -317.29148266 eV
Cr 6.000947587298587 10.428350764602603 7.515892363520227
Cr 3.941531349921008 8.310289754270686 7.858366364498019
Cr 8.214863593436917 10.490545643637606 8.70059074798909
Cr 6.055491787876092 8.61450678532523 9.040542334553413
Cr 8.411058363559837 8.693045558295179 10.11453326068828
Cr 3.9315922513701738 10.225297075945136 6.303069907491059
Cr 3.837490052765893 6.3256774709174195 6.369465493498944
Cr 5.671562621575325 6.229701341247008 4.896034178178113
Cr 6.00998641646245 6.539081597421482 7.835778748250445
Cr 7.774842465960705 10.304757434303813 5.886327714874113
Cr 6.266657560881511 6.631141699009243 10.574973185987965
Cr 4.147478649621871 5.725193784865215 8.921824920137913
Cr 10.627170741422157 9.656959303497725 9.599330700051775
Cr 3.7393229977411955 8.236249754076162 4.9736289592505045
Cr 5.834401413247583 8.34283505420377 6.261988272799029
Cr 10.039915912166794 10.160743202765664 7.331530567927907
Cr 7.9924431195474295 8.462228698972124 7.453847140418501
Cr 3.442182492084196 6.343253988144588 3.557544252924712
Cr 6.464598046683939 4.888913915068588 10.009288714085212
Cr 5.651688408711089 10.280311357254316 4.733794414818748
Cr 3.5784972838792943 4.429344057433579 4.821456192557045
Cr 5.605746313301206 8.150211810514767 3.533989165595422
Cr 7.807921950264059 6.206936918978759 6.2643486582065755
Cr 7.728121020133157 8.2013810018999 4.645904081345217
Cr 3.302503244005885 3.5241209646976785 7.075830898989984
Cr 10.40071305626567 7.591600964982748 8.33584186187882
Cr 9.756322532781732 8.170853646635367 5.974083643885257
Cr 5.378542280697508 4.260453185463312 7.014224783778708
Cr 8.174425543517506 6.670741301259962 8.99923423445123
Cr 5.541210356146975 2.8611561627205466 8.730083809150374
Cr 5.522599238026287 6.053622365071982 2.1447109578392776
Cr 5.500662717968606 4.4193515274448645 2.993225126452871
Cr 7.670478939278136 6.024481374539095 3.4909719108092276
Cr 7.387219826126824 4.0737650321255225 5.0402810490691765
Cr 5.251827304165494 2.85777315177374 4.995877388367279
Cr 9.695486278569168 5.908980952674519 4.977832350230071
Cr 9.462497315980432 3.9239498403423605 6.230419491550031
Cr 4.97622018055557 1.613000751846911 6.947954749211876
Cr 10.36444073616154 5.9095089659809 7.548038054707995
Cr 7.3031442851837625 2.3625479764427846 6.742486086950702
Cr 7.932003390492521 4.4233597285565915 7.926925569986
