47
Energy = -371.51037813 eV
Cr 3.020717008457754 4.990341384167466 3.480300770911526
Cr 6.918561510071248 5.640422534849654 3.887489400100351
Cr 5.688831626371457 1.5928361584311934 3.8836935371390195
Cr 5.563288275649292 4.891384412215685 0.1801004850370151
Cr 1.1737705763387194 4.971862362749015 1.6762423050853807
Cr 4.877389436142133 2.339735931904646 9.590797483545481
Cr 5.272304935402858 6.0345103229606645 2.269212789316823
Cr 6.323219717829486 3.4506023731622433 2.0514753812594444
Cr 7.241141732116125 3.5125740962511194 7.376350897398485
Cr 4.335693402077053 0.39019040469358257 5.837653818166807
Cr 5.693937238399251 0.8468993193343657 1.4441332893400747
Cr 4.117372178205929 8.51586065332041 7.966123196202844
Cr 3.5214242925238213 4.27417962732605 1.1919083858433224
Cr 4.631601201912775 4.101953395629918 8.326262112005166
Cr 1.3526249289105943 3.787020876815572 5.188249196926763
Cr 3.6730763841623055 4.4378128535892705 5.9159919403376655
Cr 2.0860662781802652 0.6109143132961713 3.533179463593659
Cr 3.842080519275029 2.3866429823531856 2.4671376384390498
Cr 6.095844922697832 7.524295303691755 6.280285678354849
Cr 1.95458864568257 6.353088856963991 5.619540344675457
Cr 5.744130451046297 7.872338063079136 0.8578332389320428
Cr 1.8957983262639224 7.121586141484414 3.462587426227848
Cr 3.1205949391558043 0.5639471479433754 1.1705177052290665
Cr 4.217919547998227 9.523834533161839 3.4863142619670606
Cr 3.3251499102932836 6.5374397531768675 1.1987158263944369
Cr 2.1128667162188592 5.037450456059953 7.668601728319264
Cr 3.2309500977109122 2.2019870687709395 4.758100403032449
Cr 7.487136325223757 3.291720406373056 4.737649068757777
Cr 5.398486107922269 2.5045494330181044 6.301260463786964
Cr 7.83496532172208 1.8617948274158025 2.9188184308977836
Cr 2.0619485802266833 2.530719924825814 0.40685690893054965
Cr 1.511280600384131 2.9971906084087143 2.7655974570832216
Cr 3.413792698023105 8.366174443638773 5.502886200666352
Cr 4.508329646366799 6.527503643036083 4.740895886919447
Cr 3.002982421669638 2.455585608219245 7.179718484350471
Cr 7.253887593240867 2.7445191663458766 0.20099161672740326
Cr 5.361178897715281 1.6784816435490948 8.405547714885806
Cr 5.049730534079271 4.024010466370798 4.117648167976776
Cr 6.222827369053732 5.857044181855586 8.463159514393974
Cr 2.0075129189431933 7.785369554429661 7.771624478319299
Cr 0.36843690643419347 5.319569671025631 3.7307122141260027
Cr 4.0998299986888025 6.437826823484343 7.2513185230354065
Cr 4.042685261839883 8.390082506627826 2.7953264942903373
Cr 5.754665895725234 8.195835811488829 3.5884911757132474
Cr 7.200687250337913 1.2142483332541454 5.592248744487659
Cr 3.695932157730995 6.299878781971834 9.590797483545481
Cr 6.138676085439838 5.080132340815922 6.243601770862519
