48
Energy = -372.65817239 eV
Cr 5.2692840080824785 7.275773989307744 6.693506169801562
Cr 7.720343965273481 6.7536822734697735 5.625891908287284
Cr 7.064879898920991 7.749609414477625 8.139751099640403
Cr 2.789286605033696 6.815377108051202 6.766583674490868
Cr 1.7959266581668267 2.865096820701211 5.691298508121447
Cr 3.962478734075404 2.1318684342795486 6.912019693760419
Cr 2.709132178605697 4.846259113125119 4.995267336557875
Cr 1.2834425853167228 7.926937161456809 1.804283032430922
Cr 0.592169335341068 1.9711882201301754 3.613348454956883
Cr 3.5690801574851467 3.720093018431644 0.843254475374151
Cr 1.2901300248499517 6.997567421483125 4.281849081731781
Cr 4.679657901412737 6.348320234969807 8.788337313386792
Cr 7.360760613421585 5.644511628328529 3.2233663495922116
Cr 6.193672878154069 4.023682080625484 1.3113748877636193
Cr 7.471060085291804 5.462324757179975 9.431447024378869
Cr 2.3508400989266454 6.10920099922396 0.20955904358203753
Cr 2.5736171915201966 3.1756749535941 3.16462214583424
Cr 3.8726224529536637 7.528473122170929 2.1281218443856784
Cr 0.43355372235227213 4.584155667768753 3.790587510258062
Cr 8.245174934150231 3.395159304979656 7.92979782546178
Cr 2.4865255857623225 5.668671759164549 2.4576208692994337
Cr 5.686870186452403 5.178770288498839 5.196626872716694
Cr 6.747786382856351 5.37968353055653 7.517777429036231
Cr 4.270316334810195 4.689943101879887 7.083428875784287
Cr 7.19594912230474 1.6271365601324748 2.42839919867444
Cr 3.7433334589727285 7.012005605292463 4.500032377665608
Cr 9.226965096779528 5.987538728389951 7.76058048044479
Cr 4.655209207477503 4.8690235443107985 3.056187714623075
Cr 5.000763563365484 1.8077223496394434 0.27059764242310413
Cr 4.519079684510039 9.062271911802329 2.488947949811569
Cr 8.30512037432178 2.361293509559302 5.265954454472078
Cr 0.12094394743600992 6.471392820651108 1.939818220132702
Cr 5.51378567877107 3.546916012847248 8.79960009632965
Cr 1.9783996586420682 8.932941873005719 2.9560008126356925
Cr 6.512813262855929 6.621281366120742 1.9621643278699274
Cr 4.90065361647707 2.100781642909144 2.55385969179577
Cr 4.5357987305018135 6.043450250876586 0.6102615382209099
Cr 3.094070930606968 1.241181275885098 4.328213411425938
Cr 8.282299931367366 4.843118873755404 5.654568767597898
Cr 2.2916721240875138 4.271136255969226 7.8256089464401155
Cr 6.423102525451389 2.970016282381517 6.579974965288585
Cr 2.575814129568097 1.55348635485437 1.549298527825154
Cr 6.772102740685176 3.4165891600312794 3.8816168042979524
Cr 0.8477300818941269 5.568705304130939 6.375449393247944
Cr 5.833650423344812 1.2736210541796213 4.830790088723892
Cr 1.0751419933757622 3.9146967963853325 1.4753227932848012
Cr 5.687375049693897 7.47642969924376 4.250039815898628
Cr 4.387665334728024 3.1270675118187445 4.955043740670731
