41
Energy = -320.08697737 eV
Cr 7.522977535590474 1.21643647877691 8.31029635921094
Cr 6.91104215065537 2.7792430469062124 6.056254734140269
Cr 4.007394447981843 3.6345929494744365 6.30841302035756
Cr 5.507821856338803 2.594613445294693 8.015311745062798
Cr 6.958228177775662 4.7872442986540795 4.321751883527874
Cr 6.790096551958807 3.7885341900739253 9.42750997785042
Cr 8.253665925313005 3.3734710091326225 7.7402032925550275
Cr 8.589557972463668 5.269406524398847 5.99839225284855
Cr 7.981672405247209 5.006482132978218 2.1107294120427285
Cr 5.374539689291037 5.362939887913922 2.177992901579817
Cr 6.224602770676372 4.746146248078652 6.887091894917018
Cr 3.829015902636612 6.151683219094183 6.579380231943889
Cr 4.5066391856375905 5.571329497547428 4.511825796821835
Cr 9.398922559534702 5.562374244103877 3.4783856299473306
Cr 4.339982408811816 4.781434395974649 8.684449194190007
Cr 5.211793745618824 3.4593163165894523 4.286648932033077
Cr 2.802694453928799 6.207668672049455 2.677155686715233
Cr 5.554230633780942 5.922717716199979 9.992335076516731
Cr 7.885728718616735 5.8164448131936055 8.747624299793527
Cr 9.991414966232055 5.4244628516148286 7.968484483136357
Cr 6.3437889769125695 6.816186768109937 5.219542043019752
Cr 8.191396395608718 7.303952176238327 7.032066151043529
Cr 4.677526143606331 8.234901835775624 10.073126118467295
Cr 4.932679865288705 7.771085112631702 3.2742896986035492
Cr 5.612397313717215 6.998261217348955 7.851987987450392
Cr 3.1727207134861337 6.827173996515983 9.022476581496722
Cr 7.214016364379459 7.211388761441724 3.0116371780913886
Cr 10.499732462723307 6.462541000442737 5.480059518337515
Cr 2.383932473145533 7.157006849820088 4.510730077587637
Cr 6.811650101991243 8.356674044787807 9.268449846676154
Cr 9.244997434521876 7.77438794333867 9.431097823301489
Cr 6.784668276112501 9.418517705955868 4.303634158511006
Cr 10.413753533116264 8.082958240567871 7.245375618358591
Cr 8.653220220513136 7.825312799697695 4.754651953065717
Cr 4.486588924344783 8.323537456591922 5.49208153053094
Cr 6.725251473067746 9.13936598408733 6.544482433793026
Cr 6.299314837016081 10.388046252830543 8.499925027297136
Cr 9.047638263213996 9.779767928844763 6.125497443899915
Cr 2.3133421682119293 7.857530157602411 7.1044118730427765
Cr 4.378186061573266 8.895707234989974 7.872551593573542
Cr 8.672435454829715 9.899998316171715 8.227681154149954
