42
Energy = -323.61880109 eV
Cr 3.6329784942676446 5.863754999197372 0.940557729574232
Cr 4.645531830758027 3.468422425191313 1.9478169650369654
Cr 4.71614392360316 8.287481037543335 1.6896077601295414
Cr 5.7408863127224885 5.880565361149505 2.242698782566088
Cr 2.3279282206129177 4.493004479407386 2.4207423542194357
Cr 8.253667392644692 6.218321919730807 3.7020479876975454
Cr 2.672399491062354 2.7611212762790314 4.05402128515963
Cr 3.3322856343567704 7.0889830063458765 2.8916127761641106
Cr 6.721109018568275 8.55413317061181 2.662924991391029
Cr 4.143209034993131 5.059511042167427 3.8400761620555897
Cr 4.973807102599322 2.7988987574838484 4.202198291363711
Cr 9.28548011430399 4.3344652294524035 5.17160542560067
Cr 4.401666715129888 9.082143185859653 4.352205214092071
Cr 6.778505882156238 4.357742444132052 4.1097237100962865
Cr 10.307093700580978 6.712483329634143 5.368186672684274
Cr 1.68876544029658 5.734040173096405 4.5164365796274755
Cr 8.350205542810853 8.488307520757564 4.531792906384571
Cr 5.979666550451813 9.653204770802851 5.0465468958290955
Cr 3.022280940826059 4.179452933551311 5.854544075984136
Cr 5.986501353013463 6.981552419219367 4.214182368958882
Cr 7.148154078890645 2.7411444913405063 5.779864518451666
Cr 3.6043291259148633 6.842433078445105 5.485903276815898
Cr 5.565003150021478 5.023665969170816 6.07438289328502
Cr 10.05100007790507 7.981314277312465 6.638317294230858
Cr 8.290810853408223 4.644764153501917 7.280373881057188
Cr 7.61313997866072 8.750606520133832 6.719784110062009
Cr 7.739069541765212 6.5201745418047565 6.239307020843242
Cr 10.432241196854918 5.471446827731017 7.785134021042657
Cr 5.370420934679317 7.745542738581154 6.68123169559476
Cr 4.614101418073408 2.438260395981121 6.422783854228858
Cr 4.340119092729299 3.923959101497376 8.396774706711772
Cr 3.5669989819512824 5.856205540056997 7.519027023485622
Cr 6.223201506108005 6.051085168485862 8.519762305389833
Cr 8.735424951757928 7.0077170554762 8.581490415688792
Cr 6.457469023820953 3.493469692129451 8.159794599421003
Cr 8.419365771619933 4.8167283531752645 9.571901724235504
Cr 6.701682345493608 8.365725678995101 8.899569351653534
Cr 4.237257456175123 7.8955287756836405 8.671750017165529
Cr 4.260433213769602 5.736871825855964 10.066262855226906
Cr 7.524391130496723 6.744729232262518 10.921113782194636
Cr 6.1670238544569225 4.445416382137801 10.622631203257635
Cr 5.817508655121899 7.344879754062199 11.042569550776047
