46
Energy = -357.06067082 eV
Cr 3.097863019831033 1.752424178092829 10.227071099902112
Cr 1.4685309488268352 3.7798350405433236 0.9606823570058387
Cr 4.805743920301708 0.7740523618184703 1.1256987436640649
Cr 6.075128891126581 5.089380856247127 1.12340448754243
Cr 3.2462253476832412 5.34512027323443 1.615264670661186
Cr 6.672140875025841 2.6128308510341123 2.021277453446114
Cr 4.2122681920688345 3.212856041641479 1.2947684510529733
Cr 2.38768193139831 1.7343211496648565 1.8845810554346527
Cr 0.5371438933699638 4.721171313399469 3.260165444388249
Cr 2.759073567599806 10.15016913699242 1.0377587639201729
Cr 7.279130264517474 7.252911367543985 1.2769922358689876
Cr 4.670695392728042 6.982347255080571 1.749212687230466
Cr 7.84408552356674 4.940098452101543 2.600799405721344
Cr 5.27514357656265 4.622129002581566 3.333083099810022
Cr 6.657905598000805 1.2661047263251002 3.2195352174905976
Cr 2.0168404358084677 6.967306977350926 3.0241998488753263
Cr 2.5920346964710697 3.912233241723221 3.3975555480743345
Cr 6.43566499637913 6.777681402175341 3.402628797440893
Cr 3.838612233087937 6.34815423959458 4.196906017493301
Cr 2.2924058927560362 1.6697067403944148 4.642022726706357
Cr 4.511657093563125 2.3520119429357385 3.5132704099864873
Cr 0.4431114421028605 2.2861307363774612 3.1221084737250417
Cr 7.454562098256275 3.5657239037627746 4.406194427101209
Cr 5.839332931754686 5.290071454133978 5.634685576780812
Cr 3.482622864451347 4.024600295662571 5.519781132070131
Cr 5.588129590326485 2.85202051004145 5.561645023958361
Cr 7.848992952350834 6.302007390157192 5.2295575591388745
Cr 5.691607248300778 7.901867357607375 5.879110571924094
Cr 5.144375867151531 0.6448764020979365 5.639358152917321
Cr 2.981114232114165 8.397480231180523 5.752979613038795
Cr 4.610841452295862 8.557322549570392 3.8921925124838754
Cr 7.690725163081894 1.349758517705503 5.721509143095868
Cr 1.7681024973065391 5.906528955230428 5.506752376052103
Cr 3.9286040931138624 0.18824096813944902 3.3472927144521867
Cr 4.710095792187789 10.150169136992417 6.026171403467916
Cr 1.090870661759577 3.2945264978397875 5.539206749891819
Cr 7.418950740753292 3.969686151524168 7.036832568773504
Cr 3.9797194256227235 6.1669198508563605 6.768703814370595
Cr 3.326975711727437 1.9126667574516232 6.738588938085074
Cr 6.325682733539475 6.433341194485749 7.708123857258858
Cr 4.294483816396562 8.308237763815084 7.877855183438341
Cr 5.781791094873691 1.7334503468988687 7.868181583948787
Cr 2.1245408306695506 6.667325235762293 7.889976010108201
Cr 2.446655621216929 4.341139861828483 7.725181084619728
Cr 4.9145286036662 3.975935792070524 7.782079937032244
Cr 4.076498732711354 5.8390079687346494 9.24093545095408
