41
Energy = -324.86415867 eV
Cr 2.877611205179254 3.1891610246901965 8.327671293222114
Cr 4.897548101282252 5.0122821056932505 0.6980271551031164
Cr 2.1732157549105064 5.76413073031378 0.4850801598476381
Cr 5.000162556699404 2.2629975637890456 1.392986519403932
Cr 2.913198983408609 1.3173911471943576 1.0722767635498922
Cr 0.9951390291886458 3.5067997409473666 0.7047180921737227
Cr 7.603165700972386 1.112882138695006 2.2692290366076415
Cr 7.2758725973169955 3.763710661934982 2.3555113334939497
Cr 1.1735554264174948 1.7660913492713142 2.3771110427968316
Cr 2.864363754300004 3.9672154986799337 1.7848952172599246
Cr 1.9043351557990889 8.016558299096948 2.078116285731481
Cr 5.052685409759772 4.242284902038903 2.9778494134212
Cr 3.9154194522985613 6.4060407569747415 2.2053286480774554
Cr 5.004735651299826 0.3917050201940758 2.782692008505424
Cr 6.329475890053844 6.387120214057381 2.7467033252492876
Cr 1.3369007148735825 5.914823299913856 2.403534533485307
Cr 6.050601228414882 2.190538626034272 3.9683879399319433
Cr 8.5644211454373 2.30506169998806 4.150926255201639
Cr 0.9016001003876654 3.600219106232602 3.706591970509869
Cr 2.967831948221297 8.734396393440575 3.353399885745348
Cr 4.39099259504361 8.350207439310783 3.565137295796618
Cr 3.4510656982868944 2.32913959477549 3.5311165918903344
Cr 6.852406350418225 0.07103111206067156 4.8193268631203265
Cr 2.9928934656129473 4.903645940152241 4.003868363431843
Cr 2.519663147241347 7.240860476428126 4.460290043783343
Cr 1.5588197705983344 1.0294524194714345 5.041306929885932
Cr 7.087002223859394 4.614745192291155 4.657229765486572
Cr 4.965177849518165 6.260269373367203 4.699237061312863
Cr 6.780747250859633 7.48399675271822 5.288396165568356
Cr 0.8602832186271714 5.370317768499841 5.253399050270968
Cr 4.694023272428915 3.7351697399161443 5.417517935783835
Cr 8.5644211454373 2.7167630764248294 5.860833690800945
Cr 2.345801701220762 3.098358328925477 5.601361667040183
Cr 4.290689487312239 1.2054141210053104 5.486001828169727
Cr 4.0511343697568005 7.6668911257819445 6.268231317074881
Cr 3.1279532764621205 5.532002528640248 6.471520142104489
Cr 6.674611665252327 2.766050391950605 6.246939542986103
Cr 5.730195330553826 5.361356583460752 6.76969085133859
Cr 1.8973968664710634 1.3201685443531794 7.432083684225297
Cr 1.3490758775660656 3.613745612374431 7.582499311423019
Cr 3.9556430696306544 3.4208410372891938 7.644812457565783
