44
Energy = -347.7829801 eV
Cr 3.930049010985423 1.3822266705407535 6.2366292806284225
Cr 3.0378149617432126 3.4759419012216126 6.096654543152584
Cr 3.9417087377739985 4.08933578709708 9.88633006439756
Cr 3.922911298209322 1.7223847718311933 4.130809493429025
Cr 2.4347707484509162 5.031877703462996 7.7737076955638065
Cr 3.864082101868038 2.697256718487148 8.478098253488902
Cr 3.5611789105546294 6.487615716459649 8.727279307924922
Cr 5.798293722613066 5.79467638296535 9.529206585665845
Cr 2.7066797169634613 7.5318890882735445 6.46870603636868
Cr 6.089844917294371 1.1382055825658737 4.530382569241062
Cr 3.4075648669576624 7.366796653751773 3.7596430408775974
Cr 6.517613697299437 3.5072497878066042 9.266365008647899
Cr 5.983945560897644 1.917428095583147 6.993077621417368
Cr 3.208655646389058 4.391354568102557 3.805590504333888
Cr 5.259508429095431 3.4637533126653177 5.310145846304592
Cr 5.084762609216238 4.558020251588551 7.494921342222624
Cr 5.417932591786119 7.276618310065727 7.011458319621219
Cr 5.932468971885532 2.9696551638897724 2.8090959984314563
Cr 5.220707344439284 8.290523104973897 9.49516020655751
Cr 3.886326987544296 8.97287627378123 8.187268030610978
Cr 7.527686951960409 3.685963288922626 7.091173196682391
Cr 4.0546834483891425 5.924380634135663 5.697692653536798
Cr 7.7091493783791805 3.0151837091661884 4.9222583775049555
Cr 6.671703335139603 5.488010160698592 5.523391585393119
Cr 5.019345246300004 5.273074563037579 3.26712092499646
Cr 4.255875434827468 8.74513701826989 5.571999710502311
Cr 7.376529508761866 5.8126110244353635 7.994144924604195
Cr 6.322317508196322 9.585748944869076 7.372131400013421
Cr 5.916816636632552 7.281336449472708 4.264477010908435
Cr 7.417545221163609 4.746302207267583 3.5828028090940736
Cr 5.100079498582282 9.470615495691433 3.183402067430839
Cr 4.96698005399875 7.321534974126735 1.6799073635026014
Cr 9.065919858237153 5.267787210490228 5.750808265612675
Cr 7.667487611557624 8.007670173229927 8.486621686656772
Cr 7.873274929244884 7.604199882463957 6.252239689775727
Cr 6.82880806676867 6.377854835294287 1.7887461131361595
Cr 9.634818440747258 6.0291614965565 7.835535106717558
Cr 6.789768978533468 9.281214618717762 5.142798997491987
Cr 8.493481694497618 10.103823417103104 6.916739004752126
Cr 8.283787963355454 7.059115544896747 3.8049929269333758
Cr 7.056398423000291 9.024923438293374 2.618548938895329
Cr 10.052977332112077 7.341899592728484 5.383759582103818
Cr 9.963817591522533 8.405450973895647 7.459782708348538
Cr 9.064638546848474 9.47811898460361 4.900731202767752
