46
Energy = -363.4916696 eV
Cr 5.305223393519839 1.1060232256220024 4.6047088334214905
Cr 7.453035743013694 2.6715158989374013 2.6887176999843034
Cr 4.980545402250016 3.0119593101231388 3.137352019839432
Cr 7.565218052124851 1.7605319261902062 7.018550738376411
Cr 3.1250066911783456 2.621630257963313 5.177368581723904
Cr 6.7625457269151505 4.3941935840773 1.522158702634391
Cr 5.205349071985077 2.9634506647703587 6.597614416780852
Cr 2.605571723475487 4.288110024055026 3.846569001097722
Cr 6.945545273347445 2.8326212368933312 5.0350034068606115
Cr 8.863303429474222 5.298344145962219 2.3369989010831946
Cr 3.2740794507814197 3.6339016496550465 7.725572522192335
Cr 10.073599135621249 5.510127181625191 6.853829276743388
Cr 9.010085082339293 3.576522670533606 5.3099237642712405
Cr 8.256245293969089 6.33646603859825 8.663428824599048
Cr 6.909504614919929 4.911955007208979 4.000739346224698
Cr 4.694140890741504 5.429363170162322 2.6805591205721417
Cr 4.798734792445227 4.63093837828198 5.175714976289294
Cr 2.299166479185799 5.257930665105083 6.213287564456305
Cr 6.058582923779061 3.358765988415524 8.533779577200324
Cr 3.908681192173255 4.8322230390817404 9.752056690022279
Cr 8.44167819392835 3.947577225889656 7.947182316489908
Cr 8.843327651192004 5.824792104494672 4.84827516788639
Cr 6.58610088606852 6.884533218224832 2.3157209410901034
Cr 8.007392755810006 7.8060426183955105 3.602621907552488
Cr 8.361277916653846 7.557528389002967 6.410767579565347
Cr 7.060610188206061 5.031752363824331 6.619735990723989
Cr 2.5152445282325853 6.265717924280677 8.350629027703294
Cr 6.403088287995017 7.461876753440421 7.424267139381012
Cr 5.74925746780821 7.007701570053017 5.006281602076099
Cr 10.109429014541476 7.821919874212 8.190311737936625
Cr 6.217432660187749 5.433867293848578 9.133273555238755
Cr 6.823853032277059 7.528876724879232 10.353350870670802
Cr 3.4189800726783237 6.586203392530607 4.628438875993184
Cr 4.182805408380321 7.82666570033054 2.7832265215376486
Cr 4.726580885274974 5.549198927788979 7.308549624750097
Cr 7.2281148393310835 9.17645317218198 5.461419867352645
Cr 4.612972934375541 7.463435121454053 9.297146373181265
Cr 7.831732370345943 8.900278590299362 8.737915861479424
Cr 5.233813027245469 9.47142586277389 6.331578053582101
Cr 9.109203415110485 10.08097651624229 6.988395938479001
Cr 5.5712359392333095 9.300284977451247 3.691066349153907
Cr 1.2394858577977201 7.312801787742606 6.089552299778214
Cr 5.724873082679757 9.54842756246691 8.620777403696437
Cr 3.0339287292708654 8.896039755423692 4.904998450821084
Cr 3.756349290669004 7.890987081183954 6.881863063637473
Cr 7.187463702075636 11.068457928933073 7.26911601647859
