42
Energy = -333.58534058 eV
Cr 6.089883495574311 5.577788687520505 0.5612410023173182
Cr 3.6810072366668383 5.947324829386825 0.995702031298423
Cr 2.4323722034391695 2.092705598449932 0.1094428633031954
Cr 4.040643578682928 3.697277384668312 1.2094098656719985
Cr 1.2806661512146507 4.335034302970436 1.4510445636265008
Cr 6.000585073552373 7.363498088941754 2.080137836608778
Cr 6.281688750362077 3.3601503816631086 1.4927410815465674
Cr 8.061461275611656 5.053699476301074 2.2529368055284764
Cr 4.542680867055937 1.1635641138088935 1.7150362075940786
Cr 5.473029663921546 5.193424955788097 3.104022398226118
Cr 1.0635696136272768 6.401824286780045 3.20246188275647
Cr 8.793831615057107 1.8929219909989554 2.045852671921825
Cr 2.8477066810050813 4.794876196999223 3.2527210288029402
Cr 2.23482693213835 8.675765914668078 2.4188387837071494
Cr 3.4666471310833566 7.0570901137045245 3.0811917489068508
Cr 2.254632246935665 2.1858064897290967 2.480087671979509
Cr 4.636016188786708 2.984895008977513 3.6070206570922383
Cr 0.3001114988826317 3.654708606670223 3.658738660472478
Cr 6.474072580053641 1.512388410447048 3.085852790396181
Cr 6.854694304474263 3.7020638470483815 4.150956483270454
Cr 7.710105623172002 6.451097181081702 3.7258398891923363
Cr 0.9656397874558885 1.1942077012209584 4.585686139952321
Cr 5.393661396394744 7.504244936035467 4.499336940116731
Cr 3.758031769643743 0.9004199313611264 4.3491388370316235
Cr 3.972624761543224 5.342232993900445 5.132953727482603
Cr 6.027062833024713 1.2927889950973603 5.399439304873591
Cr 4.77678529687061 3.0334441912763004 6.084106530951347
Cr 2.755408565056901 7.623874594880251 4.972675075908327
Cr 6.431648844104054 5.399980367295809 5.746852550692273
Cr 1.2847295866530228 5.347869921826803 5.281356133621009
Cr 8.793831615057107 5.052509542389517 5.262609232606027
Cr 7.42803587126819 7.7035190731008 5.810653956057565
Cr 2.555200098842442 3.156249940152885 4.926700092781006
Cr 0.8428607111603446 2.952700149740842 6.330489280793943
Cr 7.035989775247071 3.435901094788017 6.973322425418729
Cr 2.9225720386513823 1.4180378973409322 6.75241309977654
Cr 4.8302902767346305 7.249935164334089 6.772114969401749
Cr 4.792075329161857 2.7915951865031103 8.519080620305427
Cr 2.5508992243299984 6.5179039704789625 7.0785301738987485
Cr 4.863997313410539 5.052906788354625 7.819948608604139
Cr 6.9776323255537065 5.976946026938412 8.13109654330368
Cr 2.7608918316446736 4.1949276294850915 7.306115728155565
