42
Energy = -331.42832245 eV
Cr 3.2706922375846785 3.173147429821653 5.187234646576328
Cr 3.3409198882540996 4.152210298935735 7.832670354073355
Cr 2.756801401829047 6.596626430354453 8.512349661525443
Cr 3.171115176410571 5.640651014171583 5.602339800356562
Cr 3.7600895340492424 6.450170175785189 3.3645324868811928
Cr 5.144116985390228 4.0457852377050685 6.348007449294264
Cr 4.296775487351517 5.6773588347516215 9.859571260282813
Cr 6.025353197211169 2.4338345684774123 4.7193064524439805
Cr 2.437833642897025 7.642649693405072 6.378244316077002
Cr 4.917382314754877 4.567829552997663 3.774642089323538
Cr 6.90058750728427 4.0203180860907475 2.5195982976148525
Cr 5.862628117192181 4.7331582121129125 8.833289734329378
Cr 5.670879046901104 6.13436899015707 5.070117323670955
Cr 4.158395862417051 7.91495955011148 5.193657743550111
Cr 6.902405165068586 2.85654847414034 7.331309066356614
Cr 4.377379678259471 8.345146141652844 10.07546946735905
Cr 6.545586417787605 6.383138634913366 2.92990642142872
Cr 4.581492150410975 6.422489042947126 7.312195841884392
Cr 6.212359148225556 7.407830763582316 8.97286111616831
Cr 6.339566535928038 8.674484094319775 4.207050174389045
Cr 7.504218892513238 4.371621880545114 5.051599899844683
Cr 6.402898392847065 8.104170124448483 6.530133348880802
Cr 8.158813437790275 7.060990331672127 4.976220444348852
Cr 8.700407392090874 5.727982704303044 3.362368758208594
Cr 4.797574064312192 10.132707497249529 5.871762314744095
Cr 7.091725432634169 5.670921810576783 7.058990911744558
Cr 6.66463286344225 10.529540378204521 5.617468626579321
Cr 6.685960384141684 6.100598050777191 10.988916751196971
Cr 8.631807181273713 8.071184541433958 2.639255620852516
Cr 8.741143003961415 4.249149831428328 7.707394179420388
Cr 4.140088546998605 8.69629682738434 7.795909330646342
Cr 8.197237829329065 5.842822049473899 9.60457888596672
Cr 7.799468553791582 3.4536329282381018 10.045748484728186
Cr 8.247825235602868 8.365593214725095 9.67870984216084
Cr 10.733966825083288 7.039397251441083 4.079814114243773
Cr 8.36644932614871 9.243592398057348 6.68965886724199
Cr 6.186590765703999 9.742660791677583 8.16384009293171
Cr 9.618502534805428 5.415255372711895 5.858995939710278
Cr 10.535997581277043 5.807052144835986 8.504016195026598
Cr 8.880943823382571 9.584846355419463 4.35126543569871
Cr 8.802678174674766 7.249089324223066 7.6133295730429
Cr 10.496835048085876 8.074484850711249 5.933433668098115
