45
Energy = -354.58970478 eV
Cr 7.306701162194513 6.836024114761183 4.934843920935612
Cr 8.46278502886871 7.137626925378606 2.6199594029517104
Cr 3.991874029242021 6.939095043430608 9.201534414126476
Cr 7.953086207665902 6.8949296573205 8.770856573979499
Cr 8.391138080295903 2.4830820662558604 7.558171779403328
Cr 4.722452115329622 2.315836197829853 4.184985624886989
Cr 9.084751712527343 6.721163685787094 7.05842484649811
Cr 6.426417454940736 8.594689825630866 3.2928537104614968
Cr 4.296703882398512 8.406427920270005 7.280588670679311
Cr 2.143450301023211 7.16770963988388 4.854236053173622
Cr 3.0714146896365886 4.8141263901779405 4.278356017422971
Cr 5.740100774103079 6.399930237240699 2.8134425625656876
Cr 4.545539855830158 6.978790390684789 4.839712130935083
Cr 6.456747113203592 1.6827520890507217 8.052072920259443
Cr 4.642427683468227 8.168652339610926 1.3342853548152924
Cr 7.418101853541299 4.93874635142498 7.135873826156577
Cr 9.115114213115282 8.404567320770587 5.0507402065012466
Cr 3.7939971105440735 8.698834737528122 3.056284329913964
Cr 5.9118646839201165 8.34162360300008 9.12657167862559
Cr 3.238396336512332 6.228463115642039 2.6983669317634438
Cr 5.291765449783931 3.9012175916653242 7.766039609626989
Cr 7.6298570035452 5.433159327866498 10.88808354921008
Cr 3.2543571488223844 4.7566796092798835 8.676827113724181
Cr 9.31505541238259 4.750078721967646 8.795643962171685
Cr 2.875118550140862 9.073567143804087 5.5022629498999045
Cr 6.217739212636133 2.5191501526988915 6.058258440362279
Cr 8.741072697109741 9.079683598172878 2.5445765374839446
Cr 5.753948192284894 5.823771598853824 9.283314180970214
Cr 7.292050059341917 8.630982894533176 7.06223828977411
Cr 7.425543721203312 4.858554717829585 3.3107521435634264
Cr 2.006661935500012 7.254935095002875 7.384824590817934
Cr 4.9080194347999635 4.291175620567074 2.9085620684861757
Cr 7.129319768855434 3.5853567072667634 9.456590146365654
Cr 6.699521693100964 2.4971959855984167 3.527845991698996
Cr 3.6118742637764853 5.761946834775861 6.730205365054158
Cr 5.6196953706149 4.743259971131479 5.047263707645699
Cr 7.726326161408855 9.833169362876262 4.956970017180371
Cr 5.355880491249027 8.95428583428239 5.422674866005151
Cr 5.1560064839514075 3.6765355832048696 10.388408148477426
Cr 5.845531615542239 10.071652372946566 7.659489258730163
Cr 5.860505964496201 6.70201802027753 7.070509629832856
Cr 3.6586256739588428 3.4339794660512464 6.1328537448062095
Cr 10.036585681784123 4.380670911829013 6.959773893004962
Cr 9.520248281304646 5.784008086945123 4.820807344173899
Cr 8.11415107398255 3.8084187688310696 5.261589124814461
