44
Energy = -346.27964467 eV
Cr 5.546860634210323 6.790411062537948 2.6416513066988734
Cr 5.169428331724604 9.585342388367668 5.475679940939845
Cr 10.234629801584637 2.070930903546644 5.3929636924034785
Cr 6.23073868991621 7.170744737542672 4.91692658926024
Cr 5.218235097359322 8.083619484056548 9.196565720457372
Cr 5.191909111123153 4.980802712976782 5.8345494350898415
Cr 9.118106663216102 5.922127096225778 8.299524133021128
Cr 3.9601059148630564 5.791064163335795 4.1412155445255
Cr 9.925299828102233 4.606864076480289 4.5933258075306735
Cr 6.383225253009284 6.236341753663451 7.811216834521758
Cr 2.710663803235718 4.03652140744809 5.939180284554768
Cr 7.793899652007849 8.337377379821682 2.9088489410961706
Cr 3.907836214959589 8.177031585123068 4.296895144324669
Cr 7.226602868778408 6.672400890154327 10.368983616602405
Cr 9.932709394495392 9.055875756062079 5.413101200131076
Cr 6.222635924594363 8.849789085252528 7.310677992804742
Cr 7.932379727733616 8.168800988023024 9.140910693055709
Cr 8.875228511799959 7.0839704653676305 4.702664502425718
Cr 2.557692551941544 9.055283140080691 5.674286080808581
Cr 1.9376957862789195 7.9790559659088025 7.9095647872985815
Cr 7.986842429424676 2.7094320105501746 6.755274211249191
Cr 3.6137842135546445 9.337355022839018 7.75473339748511
Cr 8.48574542683679 3.19853781268039 4.406316016237339
Cr 7.658517750214283 5.003049936833518 5.942716271636279
Cr 7.873731295347989 4.415564988394389 8.828564587423966
Cr 9.796551152888163 3.8069226168460832 6.802859782678818
Cr 10.474556595726863 6.391293997241899 6.231040666755652
Cr 5.968464728618445 9.319530314436104 3.086637671401082
Cr 4.259402950711242 7.225980017381524 6.7483724165817245
Cr 6.293233141842631 4.501216989335247 3.6489773374239625
Cr 2.3562825213045344 6.503253907686152 5.988387261817028
Cr 4.194880664659334 2.5799218642870243 6.638495456240746
Cr 8.296362742848588 10.118427962388948 7.427338362970122
Cr 1.644213652023507 5.30236666971065 8.190859700387538
Cr 5.8358249727916 3.631574109733738 7.7278804083032835
Cr 3.8083963734025046 4.882782264529409 7.880185269715364
Cr 4.126467853585905 3.438332400105942 4.001363203219187
Cr 8.209532775863067 7.600302798027168 6.736894933199819
Cr 10.13290934061794 8.392293837996007 7.718442481750644
Cr 7.897118926864273 5.6747520798080995 3.151251215640581
Cr 7.672243924264403 9.453275655451902 5.216911892197926
Cr 6.04226006726716 2.7110736182079793 5.216917904399946
Cr 5.2117688058090765 5.342265352463011 9.814267282675845
Cr 3.257037565132143 6.97815236362403 9.288593653590988
