42
Energy = -329.36270733 eV
Cr 3.516954168812259 8.174987532987133 8.956906160389977
Cr 5.212432273805524 6.414952612442707 10.318068875177623
Cr 3.9902795301111156 9.861482462579872 7.551570270527793
Cr 2.3135306008511076 7.732129754511046 6.7619310950834395
Cr 5.924834278477705 8.01493082204485 8.745619201505571
Cr 7.485913844598947 6.126634351165087 10.117165336373949
Cr 4.0850400843279 5.996154219328758 8.220798979115674
Cr 5.554028291265212 4.218363976977217 9.720494869496148
Cr 3.1169128526814514 9.362846217311919 5.397876167971976
Cr 1.4204062504449484 7.248636701534426 4.618632191207776
Cr 8.428673991175598 7.853779005666706 8.69623441928916
Cr 6.480529301280993 9.952470191686862 7.402616745259232
Cr 4.842751532236026 7.653381236570028 6.635592661100837
Cr 7.914681803312146 3.5654421338418487 9.88214822465745
Cr 3.044626238150199 5.56593241845073 5.939838369668797
Cr 6.568629710120102 5.835970591161073 8.0763410350733
Cr 4.717311023122131 3.8114454255492936 7.475809610621749
Cr 5.548219024164834 9.378915831736146 5.30913381447274
Cr 7.742679555582291 10.688732726238236 5.1581486191223584
Cr 3.6952198441427413 7.34186287102166 4.444194743042355
Cr 9.004246502563587 5.044060515688538 8.291772413618203
Cr 9.226651639927864 2.842067649155465 7.589145328530857
Cr 5.4295123743889695 5.37248513920311 5.742460294693074
Cr 7.0050864216540445 3.4462772796381387 7.558397015114983
Cr 9.57202337313094 6.928512017405611 6.644802314299212
Cr 7.989317889985586 5.069149600170652 5.8729529730583625
Cr 8.886485556978288 9.585456126281363 7.046564517232152
Cr 3.7859085309799423 3.1949030618883096 4.833520555383818
Cr 2.3274469536735927 4.890497234934777 3.8176561663060475
Cr 7.475041443491411 7.8332543032224535 6.188197661234336
Cr 4.479638655110596 5.260682880906412 3.4782412095734623
Cr 6.185876962754241 3.0374359384973713 5.2099505527968555
Cr 7.758900535599378 9.292716601618856 3.757266702160087
Cr 6.077171819992998 7.33526634368517 4.0214303202210235
Cr 9.960836007522136 4.217120830056621 5.814852956806985
Cr 10.484203439139254 6.143734561849365 4.5085200950825595
Cr 8.16088109640467 2.367695799374525 5.3638267657392396
Cr 6.901995405422054 4.919239703356291 3.432327425511648
Cr 5.033082612604268 2.9384354769065104 3.0358400882166294
Cr 8.801781197256142 4.302563123014791 3.483400205128784
Cr 9.849773253686957 8.770314034768633 5.1787266106243095
Cr 8.446811629855487 6.879223112380334 4.1466111878907785
