41
Energy = -302.95790485 eV
Cr 7.018901153612363 1.215275003303752 5.899088694428959
Cr 8.164777624817441 0.8318010366275732 7.089894507177742
Cr 7.303349508986363 3.3922222789479686 4.30353637706626
Cr 9.345053887827538 2.6446791489682613 5.680472728751142
Cr 4.7876643440839395 2.1308842623587765 4.756908469249662
Cr 4.872468521743595 2.373863125960732 7.075295972680209
Cr 7.503493492848787 3.3960545471024735 7.2991403796060546
Cr 5.97490891156244 4.3143082238576085 5.853574150411078
Cr 10.130790961359873 4.336684774751904 7.23440764207968
Cr 2.152237551174022 3.3043512903391297 4.1299806283701574
Cr 5.412634773476895 4.262871450865124 8.51006067888237
Cr 6.283908698109185 5.83552463757538 3.5694480924074026
Cr 8.426864252505368 5.003955245768779 8.681411363280606
Cr 3.4697829663256434 4.083461260491314 6.2461993509201035
Cr 4.481589892665235 4.011812377402023 3.8145000352985448
Cr 8.370970801705976 5.144264174430618 5.693315550916422
Cr 9.040286130413417 6.853331221562191 6.911371602047663
Cr 6.569136585296897 6.044593514575092 7.526159654014306
Cr 8.728596043489786 6.675831713369505 4.174747690381213
Cr 3.0428250545356685 5.879388274357235 3.9736090811458777
Cr 9.982563396860245 7.1304384358846455 9.329240307726266
Cr 9.245461322237066 8.588290693015535 5.621699958952795
Cr 4.596272253754846 6.399659438521099 5.640077502420353
Cr 4.562199206728289 6.229051635936291 2.0260401233046603
Cr 7.073040287916547 10.208788884869765 5.134390728337152
Cr 2.9453780930654516 4.084316613895641 8.461284861181118
Cr 1.939435074901943 7.830623472067536 3.6436198135396034
Cr 6.770107273926731 7.401129369433685 5.565602853965962
Cr 5.156653445493784 8.212730460800401 7.7147907544359455
Cr 9.893620315451727 8.572407507128979 8.439992755332607
Cr 7.442525740659239 7.521256667410964 9.196593535943558
Cr 1.8337488955522947 5.730547889823592 6.0241486444930645
Cr 6.819914615484366 8.53888151047604 3.439278150891532
Cr 3.498139468215509 6.1939052304048685 7.892553982229286
Cr 4.873750245028584 10.593775630640057 3.535945814256913
Cr 4.537501006359335 7.959136512221296 3.606936643428577
Cr 2.88154755325697 8.077380321690253 5.824042535566398
Cr 7.392739401337527 8.964706616901076 7.275550542083034
Cr 5.001373742724461 6.6151607896783435 9.624037766845507
Cr 5.055071003983556 9.198778945437256 5.648136903606287
Cr 3.343010094055354 10.13816940468231 3.8572067658785136
