49
Energy = -390.85250483 eV
Cr 9.150148779086773 3.6597897463101474 8.42595289558036
Cr 6.953535389385896 2.9505803280746608 10.100457031347194
Cr 7.849971617540542 5.194736788189946 10.06986701574816
Cr 8.066055970841948 8.019351231791426 9.651236361103381
Cr 5.907585771251928 6.9324960812265735 10.693747504962598
Cr 10.032036136813913 5.84966327084851 6.002427907089553
Cr 7.029521353039152 2.1496475062914313 7.780510727850613
Cr 5.0726606573393065 4.491052914407703 9.977011134327107
Cr 8.984008121378722 8.108577207972441 6.609435751168904
Cr 8.134396802461211 4.1986582667103445 6.3143377827758105
Cr 8.627620159060136 6.344272378306368 8.108515205244785
Cr 4.8889767209692065 2.5882963221942568 8.313170002512072
Cr 6.662664385241576 4.49871985564473 8.055547245787475
Cr 5.372135832198431 9.129082407621047 9.277107889975774
Cr 6.094033042381151 6.6388433227177295 8.354074266756156
Cr 7.688165821544858 10.571882274887127 6.055299853821483
Cr 8.506871872091281 7.085484799201082 4.155095775937328
Cr 9.772554750606913 4.652949505200827 4.344209125028392
Cr 7.024665104597061 8.719621231709477 7.636048814342506
Cr 3.622068923030891 6.878559726577911 9.458165258822225
Cr 8.61894750177844 9.648882010036028 4.4778127872488565
Cr 7.530774762525285 2.081545119938762 5.2363836246105935
Cr 7.151297327805812 6.2741082545147515 5.963922185668169
Cr 4.18369870319624 5.152208446709692 7.769960585629298
Cr 4.998613208514241 1.3616757695656618 6.157012078385119
Cr 4.350830980787274 8.04048466767144 7.350209811209718
Cr 6.488597507637345 8.35420226620795 5.31930705990571
Cr 7.305860397563756 4.589579962609535 3.968236828613762
Cr 2.559728750205865 9.226725923931877 7.745839505606373
Cr 5.585348591829892 3.7670591106425224 5.945304236137983
Cr 8.09023900353474 6.156567565129628 1.9680509881251693
Cr 3.025909316662488 3.2017043943658514 7.053787172391286
Cr 5.087758944339249 10.202732380291378 6.565914457795397
Cr 2.1879508956876657 6.362034595124489 7.257851088449289
Cr 5.925657807550362 10.38713903084525 3.8113206566859206
Cr 6.131605145968206 2.2686606050072395 3.720696585589344
Cr 6.918376632981837 8.45752569638371 2.8627662060966284
Cr 4.709876523024851 6.218345716914948 5.746843489756267
Cr 5.943250179583352 6.449017698402263 3.50328265974386
Cr 3.7421784587908067 2.237917547558865 4.856299211658291
Cr 2.951340404015871 4.797647179340716 5.237397304406508
Cr 4.443059863717506 8.465873856611159 4.4426732064259244
Cr 2.3126114365822947 7.512912163502133 5.549004647860312
Cr 6.441732893876844 4.215437245924026 1.8789544436967314
Cr 4.700347991944595 4.346417449150432 3.875232211380819
Cr 6.5185850653627835 6.819159367903337 0.8746571199801201
Cr 4.6745735321692425 8.396418757206346 1.9839638157103867
Cr 3.247750293949998 6.575583984504055 3.4942492349016536
Cr 4.527611696249837 5.5784379343468045 1.7746859716576624
