43
Energy = -333.56220026 eV
Cr 10.792674835789164 4.669596504408243 3.5014120696379107
Cr 10.908943578237515 4.351678069720783 6.008402825236608
Cr 9.24071519664789 4.903938931307564 2.5675087909598426
Cr 9.326149847165977 6.2648820253630175 4.858544699194336
Cr 8.40796758986701 3.8539009117739647 5.044947622590802
Cr 9.985879013321595 7.593850903242155 3.4012227593391433
Cr 9.692851393358115 4.8499548581257 7.2942787194518806
Cr 8.756444097804101 7.207087657440368 7.376260985098601
Cr 8.165030602967589 2.5165895661859112 6.313319444143555
Cr 7.552521813280605 7.942768331347438 4.669373320163653
Cr 8.661857642281976 6.108426887795588 9.323222544504416
Cr 7.021845832098594 5.386251055234743 3.7728972888703565
Cr 7.256564789316445 4.850577053821759 8.014306161002796
Cr 6.940552237476766 6.192537559105477 6.183223917374825
Cr 6.008175129592413 5.530218217208228 9.93798947037962
Cr 5.845482475840105 3.5961653010480963 6.557579950929863
Cr 6.12291100143556 2.6989916949552617 4.1108762835116135
Cr 7.873260265701176 8.753230639125581 9.282966243895935
Cr 7.322640379111669 9.28398850853024 6.719644934879322
Cr 5.726515805530496 1.3241516585110795 6.048618639524138
Cr 8.386408875413133 9.72194060754543 3.7116573045127055
Cr 6.307369569058926 7.314854863624612 8.55313540739374
Cr 5.771286274138918 9.878690140213342 7.5699170025880775
Cr 3.8914383545345252 2.692151964641737 4.617284656355106
Cr 4.5641590633705285 3.8883713820952637 8.555426827322703
Cr 5.65076045975664 9.764219592905377 4.663486114760086
Cr 4.998834126038707 7.804544027390011 6.0340018679417105
Cr 4.6297587571943195 5.845397421674845 7.458019298585834
Cr 7.970014968466452 7.188633933571736 2.4026372879669866
Cr 5.028668763784313 5.035933718304088 4.888648130748141
Cr 5.494739385233229 7.214189909141634 3.6944664343654052
Cr 3.817149939089485 6.78246921537434 9.636616894175257
Cr 3.426149055064914 2.3782461209846124 6.906959791128324
Cr 4.015167965978118 8.346640630563837 8.623838626888874
Cr 6.393731805352138 9.090759928508014 2.552913758431031
Cr 3.230356780207828 9.270513326309915 6.196968401840258
Cr 3.212486662800303 4.591629344152085 6.1128586690538365
Cr 3.70436217045644 8.800486582587835 3.8423303285045884
Cr 2.280353386831269 4.8117857266539135 8.454427829333355
Cr 3.084406575364847 6.738839217257033 4.94042823313301
Cr 2.4627432881822005 6.962948860201614 7.204740199127937
Cr 1.0674762815652783 3.33268646904484 6.868355473229717
Cr 0.9288764186897149 5.431231938482652 6.126826596469276
