48
Energy = -382.11092584 eV
Cr 3.216389149732252 2.9130703360163053 3.502481121157728
Cr 2.9268843882130926 3.215205041813974 5.959210209091146
Cr 2.690163414959956 5.301553439007309 4.3617620356583195
Cr 3.993102095306606 5.447283914880261 2.6335247385315275
Cr 4.935304503608843 2.990090578133494 2.58506149507374
Cr 5.1530394277273865 1.8293229063193057 5.157134052897633
Cr 1.492779630621464 5.191367495120549 6.5914250677125175
Cr 3.1306892661801284 4.11672716938756 8.583879856255136
Cr 2.94119153898407 7.898349573642732 3.2943894199147437
Cr 5.041863974728831 4.251519596764549 4.81288556097037
Cr 4.784431537541491 2.803923015372486 7.268627530894672
Cr 6.215492509110227 5.2325341693808065 3.0494902790977374
Cr 5.696023226218537 7.774699474427704 2.3136679353255296
Cr 7.2998585513464915 2.7483349977579015 3.8032287915841363
Cr 1.834500415482689 6.51522859319854 8.0415645433549
Cr 2.814867220926328 7.383331942838555 5.771218132515609
Cr 4.850869777380942 6.977533679972073 4.534361560325504
Cr 3.9874319028618452 5.73128323328558 6.661582477993947
Cr 7.175210652472061 3.080655610971245 6.089511618837949
Cr 4.203881998075227 6.192227922620225 9.153543315387314
Cr 4.864109132952399 9.402480776502014 3.00641902211019
Cr 8.056145452713423 7.151932728009759 3.6160909656627584
Cr 6.665121900405508 5.820301806798686 5.6264284627522585
Cr 5.150943549698635 3.692693283600381 9.912876849660982
Cr 6.408839152345625 8.586847896588429 5.0435856473913585
Cr 3.571853054836427 8.472939671312067 7.896491885053434
Cr 5.828132755103766 4.833971893603953 7.662349032177162
Cr 7.607792065266019 9.635329196951472 3.2548173043523505
Cr 8.249534587702806 4.847841297991181 4.135325728799334
Cr 4.205640143232898 9.447255860175563 5.5431136398660135
Cr 8.815545638937898 5.0630920289106465 6.815675416568575
Cr 9.465984585154793 3.172739370545228 5.543511442499123
Cr 8.305636426610866 7.544226476167079 6.241151835697839
Cr 10.113411084070714 6.187156629744639 5.186961666891064
Cr 6.418641157780728 5.3502204710799806 10.310109828107958
Cr 5.615477171703847 7.633328467864225 7.1667235363777655
Cr 7.513085362706741 3.617964411491749 8.541707081269132
Cr 9.390369772377197 9.146135234783822 4.971326468912351
Cr 9.679468010586215 2.9986170914817922 8.159212686028525
Cr 5.940335894073339 11.148380963832142 4.617363375580537
Cr 5.870707337889501 7.96235998202519 9.583075964224825
Cr 7.795799201485784 10.350488423861604 6.189900714388031
Cr 5.767943209684039 9.998188508866145 7.334678915584782
Cr 11.0774956933831 4.62927473625537 7.416844292143571
Cr 7.521730453506005 6.37054618041423 8.548954415094176
Cr 10.012559173107544 6.930463338018108 7.824203294218876
Cr 9.335693179047885 5.335853195056437 9.324417363519812
Cr 8.122033779848733 8.731774804294343 8.108132352197737
