45
Energy = -352.08634056 eV
Cr 2.9858129304213237 6.116423008421152 2.922070988728335
Cr 2.772546133098424 5.593365611130021 4.96977605014496
Cr 4.820988930813894 4.483148989922359 3.43374003280794
Cr 3.349236740037665 4.654669555102977 7.443700329478195
Cr 2.565898547746957 8.197503561112507 4.301587882273555
Cr 3.8823187571544455 3.5686856363006925 5.223711095460615
Cr 4.739359533719078 6.964121110169958 4.091189195773613
Cr 3.0529429312734484 7.394159125717627 6.361549776534815
Cr 3.802101389078529 6.4646540843605775 8.53964275995268
Cr 6.498830451049303 3.5774420371900146 4.865610593633877
Cr 5.1540469481064495 5.903864920288712 6.063709335138186
Cr 2.9561432003510624 10.225056595880428 5.693340763619693
Cr 6.101332124040344 5.039705274101901 8.25933659198244
Cr 3.5053241925430614 9.156526393707306 7.820052960346542
Cr 5.033623305479395 8.686464455273207 5.541904893125362
Cr 5.397546139272104 3.2750866876840528 6.844675726631114
Cr 6.760978919725856 5.958624199435763 3.9702559355077254
Cr 4.605683364660826 8.309239286822905 10.101817209696284
Cr 5.786207340830921 6.446609028829785 10.10197453155356
Cr 5.59309025283947 7.805403340823075 7.670139116285833
Cr 8.211812216904963 2.002855327976451 5.40049430677221
Cr 6.764417626058429 3.7642423268915035 9.660972245420474
Cr 7.7199978704039545 3.045375572836961 7.424715054018673
Cr 10.376491979727579 2.999515317729933 4.692254039136485
Cr 7.726919131683511 5.0410548820486465 6.199727218967289
Cr 4.759989856784715 11.210996696570126 6.301078305169116
Cr 7.474084697658425 7.506851531670866 6.129521796451098
Cr 8.1783842255082 6.154512226663815 11.003944099065379
Cr 5.49445999852445 10.016092782548618 8.513724581148923
Cr 8.687235152512343 4.8353249496125335 9.021024196258779
Cr 7.133883998885567 8.316828955118423 4.128623860674932
Cr 8.44232780808238 4.230792827191308 3.7019188139572776
Cr 7.156716379978375 8.544239238849675 10.393800849574873
Cr 7.850515194949531 6.756181306531831 8.494186423380516
Cr 9.092822713861205 6.585559563427012 4.398681911709114
Cr 6.855629288141524 9.87186097275266 6.338358799409848
Cr 9.769875892723247 3.7631262690569454 7.049081591191616
Cr 7.910749897364527 9.482554173099548 8.699473268014433
Cr 9.779680958979458 6.155597504527826 6.952424146772761
Cr 9.667521395482039 7.582010647562217 9.346439401253553
Cr 9.458557345606652 8.593200901277974 7.006135659079246
Cr 10.832073299270013 4.921111077982927 4.851670388232323
Cr 9.089500732218793 9.271945805808869 5.035279754100843
Cr 10.8254984961152 7.429154811256911 5.17045047735938
Cr 8.472507344457314 11.193927062855673 6.9618986783298
