40
Energy = -313.68432731 eV
Cr 8.139014662325328 4.732681612726424 1.9821756025866748
Cr 8.26563505779711 7.216485555870674 2.7877652278034932
Cr 5.936356929023342 6.024453872155639 1.87714352738597
Cr 9.698706083225215 4.9877567905717495 3.3617659470076
Cr 6.134554162607608 7.864146674704518 3.164930392473459
Cr 8.395614528088185 9.516058961210504 3.96071617729758
Cr 9.244218374324916 6.896185669594988 4.95102095978863
Cr 8.105329378582736 3.140053950206788 4.375579930514486
Cr 5.8227455650455555 4.109539402440084 3.181674672984254
Cr 7.048936839047014 5.577272905623587 4.222773350194941
Cr 4.0517338616403675 6.196751823106824 3.0802788923201243
Cr 5.632149262317675 9.763424862252227 5.334900871539398
Cr 8.91950590559743 4.523217597935767 5.703015547619704
Cr 3.824197241579703 8.246889323411542 4.2719231495018235
Cr 7.217995437417583 7.986820693082638 5.2315384929639555
Cr 8.537046527589318 8.465572054568257 7.21632448539803
Cr 7.483679198019868 10.270740829075539 6.545442077599589
Cr 5.116341123000036 6.852507771995676 5.501374964267733
Cr 6.342447584505401 3.7387436294573644 5.766971151454095
Cr 4.305746046111247 4.8307625068661775 4.925984564743959
Cr 5.97023049485623 2.4281171264576438 8.155684318837082
Cr 9.338371538760917 5.946456025670591 7.652482535814051
Cr 7.901772333850248 3.5396694252596608 7.602819858761194
Cr 5.901231843606989 8.145209499570537 7.556438005784974
Cr 3.969857067185697 2.5754432391714794 6.315526851098694
Cr 5.196656440024205 4.541306279785356 7.494534717196816
Cr 2.602973448144236 6.523275126753676 5.3251373429140765
Cr 3.5801562948805277 8.711564187274325 6.7621459368700565
Cr 5.2219887117634745 10.536839026176601 7.984726018549512
Cr 8.280823725458797 4.973919730495658 9.272491307741172
Cr 6.971397113907975 9.78737630812705 9.199910705768586
Cr 7.5624358813979216 7.376469332525489 9.134094340839354
Cr 7.2449347448612915 6.055442339267472 6.895142982653343
Cr 6.195544734920687 3.6675679922604654 9.670104828996806
Cr 3.742990476844169 2.792548981984347 8.991063594801545
Cr 4.529507477435484 7.864567872726286 9.188272330964747
Cr 3.755520978687427 6.484612513473112 7.445232723071962
Cr 2.5857341127348663 4.30931573267823 6.915742652665266
Cr 5.8550178543683 6.044177681473122 9.08086166306731
Cr 3.6240116093545396 4.933574766016471 9.575406816824998
