46
Energy = -360.32730596 eV
Cr 7.162685955916691 5.252467066915001 4.114620788209035
Cr 5.012097634718854 5.037205916337271 2.7854387995296666
Cr 3.4678537908529252 3.122429852455116 3.9235999147865828
Cr 8.77330403692332 5.111095313628789 5.859920171579393
Cr 6.213262544370827 2.7366386279674324 3.512554961186388
Cr 6.787761415704954 1.5938218863840738 1.666601716608379
Cr 3.5142505053409865 3.5982107010278517 8.806045806087349
Cr 5.181680812853467 7.75973652988159 7.0231923442233075
Cr 3.861643903677963 5.469241278395005 6.835468962678097
Cr 7.661591256600725 4.340919716297598 8.351956624050361
Cr 5.029180874074609 1.65672890403654 5.618124267971726
Cr 3.1030111070734265 2.9196079298819635 6.877188906114224
Cr 0.4441763969227819 6.223741293498568 5.089198962210121
Cr 0.8988636234478632 6.041186396769898 2.3498108343053086
Cr 2.076783795028876 7.617874735087613 3.8418412907093704
Cr 5.123338576318918 4.151820102116006 5.280465520483528
Cr 5.2328424554240325 5.730148197274604 8.819138563542708
Cr 4.795460833995195 5.067624243475027 0.11922758065157632
Cr 5.506318867224316 3.5488329745237452 7.753487975032208
Cr 7.371710709317159 3.2411129264871317 5.913403591449531
Cr 7.011932429804523 4.3843059863771865 1.710909095346889
Cr 7.037957218614774 0.993716682946429 4.863933171208754
Cr 2.3767912504964044 1.8047895659635922 1.8867345532694482
Cr 2.16420762783951 5.597107961772517 8.908079775356635
Cr 7.249945686916999 6.796368160610631 8.151286783486567
Cr 5.945944573854871 2.8955872718636395 9.088741329405549
Cr 4.5522236324745275 3.0838503731703963 1.757934837710703
Cr 1.8255119491080407 5.399248995382467 7.681085221393216
Cr 3.099162048976288 3.1567242057372114 8.81913856354271
Cr 1.6912062395812542 1.0127690698022793 8.948011923600067
Cr 4.298593022358115 1.034075080452772 0.3297052521869611
Cr 4.457593791799945 0.9305929804436803 3.377975464547298
Cr 3.3683006161620748 7.456149493776271 8.502537291462088
Cr 2.9090892215612096 5.496794606690029 4.191996908994114
Cr 8.5040885374195 3.2418284330433234 3.794021154201036
Cr 0.8989689863317329 3.3670250314315138 0.6965282647243474
Cr 2.589916448429211 4.646055944261754 1.7734163454695848
Cr 4.897542289755241 6.793367919418236 4.706480829639936
Cr 6.535786233737233 5.725762759290474 6.58156341330861
Cr 2.2911030443389886 1.5211032516862524 5.127718052364718
Cr 3.655291361913314 6.878294785453286 1.9972895492040137
Cr 0.9453897130704916 2.755368759768789 7.367677458044998
Cr 2.7102203466899693 7.4792760724337635 6.0989135004482335
Cr 1.0632858514484282 3.4377626111139294 3.4586626441727604
Cr 1.469335807801024 4.322263440573953 5.579906947571582
Cr 7.096526865794756 7.433099856162434 4.977847028096842
