42
Energy = -332.13386977 eV
Cr 7.913594303168435 1.3508389556910692 4.648115692257041
Cr 7.153751489434771 2.6994522413709645 3.4385206482525357
Cr 6.161187191247721 4.774691177699034 2.234405331379484
Cr 5.784015259534472 2.3596908956606906 5.772590351650199
Cr 7.2897962738436775 7.22350208392607 1.9791337264570614
Cr 9.18484890855605 3.613749178395774 5.201819458306591
Cr 5.348878203817284 4.372291725545793 4.451435644247209
Cr 7.991537899190516 5.011857542823423 3.718219368679361
Cr 7.833349902398021 2.626816278594917 6.9401611938801855
Cr 3.6003037825362503 6.1838969410856635 4.7139639586110995
Cr 4.70774671601669 6.777036081295785 2.687002331590576
Cr 3.514908861279482 3.840606363957966 6.11178103772361
Cr 7.013903389520397 4.79940063760228 6.177926441159849
Cr 5.579981539384617 9.033597365985731 3.000002061806562
Cr 6.403374628019884 6.640568463444963 4.307855957263934
Cr 5.42890701501688 3.7745591254422246 7.693176794828323
Cr 8.935324606455083 5.220998984579902 7.476398245411005
Cr 8.906413157933617 6.523069114667148 5.422548808918889
Cr 8.906395813451521 7.2612749680712385 3.0771368478640877
Cr 2.212340156623071 5.397582058552866 6.626902788712742
Cr 7.532994411389566 3.9184730881778824 8.927782567061717
Cr 5.626242195482414 4.74560333690073 10.295225496128754
Cr 6.403088510180872 6.222907164505078 8.419916742621819
Cr 4.891135053406053 6.131472905538272 6.585112818949294
Cr 7.515072244871783 4.311578705326529 11.704636859682763
Cr 9.283976975563451 9.049738580294706 5.93550305022124
Cr 7.460972648598734 8.804661109613905 4.256625375559417
Cr 7.095090973805752 7.586521697624884 6.573046077300187
Cr 8.10522889975567 6.078017038360235 10.060007926712897
Cr 8.927766531663083 7.444245514809073 8.14879440121957
Cr 4.878671615057382 8.205882666986545 5.035293478519241
Cr 3.83601941412435 5.116122016295299 8.587972250268324
Cr 2.2680405336427008 8.32793227561477 4.944880435265941
Cr 4.546403134397875 7.121411411876761 9.404218385391745
Cr 6.193846234950921 6.800241255259636 11.060470712227314
Cr 5.0499001779520345 8.669248177406516 7.525184595543022
Cr 8.41810645001694 10.845905426882783 5.769547363466149
Cr 6.826615633950277 8.504253245252759 9.26574926448439
Cr 7.473158410816185 9.808082408875572 7.909905309315485
Cr 6.10566183836431 10.150667082135117 5.705334567819348
Cr 3.1357971345215727 7.579886535773181 7.223761811786837
Cr 3.349243380521792 9.881634167297081 5.788595508187146
