47
Energy = -372.14487454 eV
Cr 9.420917931845363 8.289786155867064 6.567261677171843
Cr 7.60304581628653 7.279228312429169 2.4501258617766
Cr 9.538002732528652 6.86986770930877 4.436244254767083
Cr 7.888232743928315 7.268844755097396 8.272158026621224
Cr 5.600551099786576 5.760307179235567 2.4160585880671612
Cr 5.4624769060848966 6.446281808946443 8.576713032133558
Cr 5.5932147630663245 10.506855246635626 7.476700805875141
Cr 5.695558953011535 7.154452616605805 4.3529491111909415
Cr 5.320202987099181 4.21194117741903 7.407429191577784
Cr 9.19170785672927 5.639182479756367 6.542027408457582
Cr 5.581242525920711 8.623559406675973 2.7655450264667314
Cr 1.6769063575210121 7.443513537189983 5.64857394156045
Cr 7.896861091582595 9.636467120633288 6.988206726478435
Cr 2.2341705665872733 7.6909901950516995 8.286024425306
Cr 9.688165458049134 4.136240701539978 4.736878711876108
Cr 9.1755927040616 3.3421398414120262 7.430173466739539
Cr 5.309784208425395 2.2475306917018956 5.980984781882199
Cr 4.009360687934287 6.486454328317671 6.44009616813784
Cr 3.348187409068483 9.498219743252141 6.458329297804073
Cr 3.7614505228176207 2.660449628936727 4.087207480758966
Cr 3.195828361106005 5.175404661568083 8.41367961067983
Cr 7.357500354246295 3.780945516370063 5.79051750198472
Cr 8.470384737874335 3.0990216783754976 3.299132173421028
Cr 5.313531056131266 4.088159483906585 9.777794392682686
Cr 3.3249776533170277 6.509593674754756 3.5980398702257657
Cr 2.360795883414444 4.963101877765238 4.441194887744391
Cr 5.942819235281977 9.904564454349087 5.104577624081905
Cr 1.4044337745357642 5.802699721612479 6.757153556772579
Cr 6.796276396645566 6.125138049462143 6.379021764721704
Cr 6.973575870613172 5.913913342035428 10.239578324008152
Cr 7.53253981443411 4.637661908922084 1.730136195897864
Cr 6.314284540556916 8.796454103288044 8.942702586426451
Cr 6.84358619250552 2.1954800169123962 7.915709389184479
Cr 7.653045279419109 8.273926704781491 4.599089468535702
Cr 9.504608810312018 5.745496349551429 8.948193492343565
Cr 9.568558078807387 5.577521341832018 2.4250645405503044
Cr 3.1461489963669713 3.78600719154429 6.327282240935439
Cr 4.029200246011633 6.355253494102908 10.240411225301946
Cr 5.018380965962684 4.81569374797635 4.948325657651679
Cr 5.712059517334705 8.239110128873449 6.6584119050169726
Cr 7.949591645762301 1.6941230672853256 5.5665963225828134
Cr 3.9439542896733535 8.574037871702874 8.670398296059119
Cr 7.649988161616161 5.595103859698005 4.060933271010591
Cr 7.487274218486145 4.629290379140413 8.359709213667609
Cr 3.9719061485848397 4.013389186444396 2.582056480818593
Cr 6.242022812920439 3.2916632074784187 3.6889690451978234
Cr 3.7478476767539797 8.675686385261432 4.666387018854989
