49
Energy = -384.62432273 eV
Cr 5.662544646069734 7.013739535300659 3.9874368226710684
Cr 6.803276917431717 11.898565020759941 3.8958206101663593
Cr 5.090095986507747 9.511453814623312 4.1809540846092075
Cr 7.444057650295642 7.9839405869873925 4.993134443800431
Cr 7.575493677054577 10.109609256583848 3.6385984200308656
Cr 3.707509567440238 7.347539008454795 5.305926270698242
Cr 9.4232489619491 10.474776048879205 5.730640473188382
Cr 8.407460744859806 3.404261817939567 4.815636542051262
Cr 7.90772869018435 5.39313514164334 4.666534664354979
Cr 4.855317126618267 11.669647102208861 5.612432093031867
Cr 5.727785881214519 3.8036114506354104 5.53722641601906
Cr 6.633584940332789 10.3933564417105 5.9674626831905595
Cr 9.85090483714913 7.38978513061662 6.0601341515212885
Cr 5.667749179071121 8.293111432103576 6.479724595783811
Cr 5.803555985580193 5.924692075737832 5.991904335994075
Cr 4.066458393031385 9.82342252141737 6.874879874358639
Cr 11.931556772265209 11.16781882668704 6.708238175479021
Cr 9.95502722023537 4.758751504187322 6.46497015144211
Cr 8.238820146744068 9.069881236715428 7.191578959784404
Cr 7.93925955583166 6.3911716464229045 7.003633702970532
Cr 11.735053841605472 6.596636140447151 7.804139783949321
Cr 7.545274115903186 3.9562162846654743 7.109904628072038
Cr 10.574791847203757 12.49048723871189 7.196199067042844
Cr 8.215515400830403 11.70200592640655 7.80561481096253
Cr 6.20272412088552 10.435213708942594 8.348833281616798
Cr 11.119524156241464 8.836028552977766 7.384847307277727
Cr 9.988358183222172 5.438894039742368 8.552935762840187
Cr 4.937566321607128 2.917288372589805 7.62481756106521
Cr 9.960263269758782 10.442567751978325 8.606683194477728
Cr 5.599850308448697 4.979772635558529 8.057756401087532
Cr 4.75566675816986 8.83111858615477 9.215253010499705
Cr 9.458824369252362 7.819598614287407 8.805014059208466
Cr 6.976659351655746 12.8791267428429 6.5678452390816044
Cr 7.763771251311741 5.589004440800661 9.376200009547974
Cr 7.71673319469595 9.78985958870267 9.753150879265023
Cr 8.545332995297102 4.599177486072898 11.189060891351271
Cr 6.7056658428273055 7.8379417311345225 8.700820527752963
Cr 9.32082076332515 3.3868622178362497 9.213306620204403
Cr 11.763933208650155 8.528059782886697 9.698597884194283
Cr 6.413012835197149 3.4873221761962645 9.875962406927819
Cr 10.209242484140397 9.17717739607681 10.698362016594793
Cr 4.238363527307034 6.868045979532201 8.171854566376384
Cr 12.07419978721687 10.889466611898449 9.241940621663941
Cr 10.335624661699693 6.392953443403252 10.77278686830273
Cr 8.13145433027108 7.368830535940263 10.87925826382985
Cr 6.922414118772439 6.005117050631985 12.405802951165617
Cr 5.938123795951854 3.811756634467259 11.855694087717659
Cr 5.661180720964496 6.285196253633248 10.392123271513034
Cr 6.144425319538939 8.481812237685949 11.234174317084053
