49
Energy = -389.70013511 eV
Cr 7.49880875581426 10.57762941779792 8.734663726770524
Cr 9.043873639817777 8.712554058070205 8.341164435268185
Cr 5.650011381612791 10.454582531522227 7.852658762755692
Cr 6.517311537111655 8.384535051708996 9.827134909616737
Cr 8.242560873174092 6.776035460192101 9.234170814374481
Cr 8.158392194899925 10.134187353489699 6.107771431182802
Cr 9.201713956329137 4.572062556829616 9.056520982239267
Cr 5.903419124348504 9.054290219019673 4.977327695019833
Cr 6.883396719488272 8.385652249623769 7.266134162601304
Cr 3.834373199271253 9.287509646801663 6.556300174939476
Cr 10.716074109772897 6.926462332729449 8.455676146914007
Cr 6.674650299184489 5.5618982781195925 10.453921306298168
Cr 4.4151704938895024 8.233687931279423 8.668519863507141
Cr 4.692796413826706 6.2448089825025255 10.392320094213819
Cr 8.470263329112827 6.302547136419822 6.962590344587156
Cr 7.1431960837813415 4.372485870552291 8.01534469630007
Cr 9.592818178353452 8.014780833495687 6.060407465942132
Cr 3.95632821841425 9.632402856556206 4.295067348380819
Cr 6.734348159565241 6.734392247144863 5.257457853089124
Cr 5.915256801499328 6.406200808498426 8.045523441500505
Cr 4.46472227260624 7.215996231587169 6.151816282455971
Cr 1.5298161855965995 9.307404011400111 5.957915941881039
Cr 11.608498454697136 5.064218032865653 8.181608868395285
Cr 2.2035151934641477 7.3251228948424245 7.431958919807269
Cr 8.25362377209317 8.722004128625294 3.9056067957047387
Cr 9.51292145796314 4.314252284611213 6.601868108096929
Cr 10.997737899581798 5.9255617220700865 5.852134825595333
Cr 4.953923276751786 3.8995683671882997 9.16708779335905
Cr 3.505719869860395 5.721023006494367 8.206929651309999
Cr 2.6731064850429664 7.612410304838232 4.781813716999244
Cr 5.070137199188628 4.6864030821193055 6.418153205665874
Cr 8.869377849544081 6.335719248366805 4.314054707090444
Cr 7.120985354630972 4.539363246456511 5.391333791580831
Cr 4.636509676288203 7.456410085916931 3.54769619777624
Cr 2.595655896698434 5.358018844054661 5.719649463274175
Cr 6.915040659042789 7.643232184060423 2.879041595203437
Cr 4.867502856214512 5.369430136504623 4.197447464917149
Cr 7.867605988651209 2.432729690047891 6.685046775432871
Cr 5.2279801926224065 2.4956575756125607 7.713146021485921
Cr 2.859347745065351 3.6783021449619233 7.326077480256116
Cr 5.568312968221949 2.5417302207643684 5.247627897682579
Cr 9.388594161649719 3.8195157954296586 4.167366330681174
Cr 2.6547660374090905 5.69006430119349 3.090928272014151
Cr 7.325954425379691 5.103948966927104 2.966898010186002
Cr 3.357671584747061 3.335510337146431 4.64616764993186
Cr 5.333142644303148 5.80786266198292 1.7060379668337728
Cr 7.919399586998564 2.399529975142439 3.94287701629004
Cr 5.7765621275337296 3.3167495678314123 3.107800265698934
Cr 3.5176097671440156 4.052922045285251 2.258980963611615
