42
Energy = -328.8370569 eV
Cr 7.606108146360813 10.505582461839653 8.298045196064738
Cr 6.151897495215542 10.502646149438247 6.30997764038742
Cr 9.056198202586478 8.315179444539181 8.40318183574104
Cr 8.078689546059774 9.040702325537067 6.016260320919813
Cr 7.1235136651794875 9.354885658086342 10.070556934942609
Cr 4.808756383636469 10.391983434925935 4.448605966914856
Cr 5.085961997462416 10.0358701189739 8.788258233954206
Cr 10.291285789766016 7.251794689293898 6.314829207885956
Cr 10.435730016206625 6.032735725971311 8.367136654761085
Cr 6.946877153525974 9.283612041735354 4.099728137451115
Cr 9.03696545194504 7.555768906654116 4.5260703506379425
Cr 7.945048241504413 6.932757838613039 9.501688317511539
Cr 6.422611261632224 8.252669455164261 7.592284138883193
Cr 7.706313393491619 7.754391432253958 2.3671970388930723
Cr 10.790648039756018 5.498554528944872 4.355659823250636
Cr 10.556139905068605 4.504868766767371 6.240161233478566
Cr 4.043051982856068 9.609966291117974 7.056425757974712
Cr 4.758882501865324 8.34496478512294 5.249208488133466
Cr 5.413828281123098 7.504304922086671 9.643705482171457
Cr 3.3534502686075207 8.14877453529827 9.031081948761187
Cr 6.561608236502312 7.053537830713832 4.9249804468141525
Cr 4.545696742493932 6.7959308318637035 7.2583368936781545
Cr 8.402539232152167 5.160148610793316 4.889459021959666
Cr 8.187734602582253 6.446788962402791 6.909490751945285
Cr 2.4812460713647497 7.550839949442208 6.449219594808514
Cr 7.961131193104995 5.787013623792959 2.6765854953311115
Cr 5.405614316203927 6.919076842635225 3.0214951037681232
Cr 8.909467621886625 4.4541954388077665 8.703426225185003
Cr 2.159927175773018 6.351971029544528 8.30597354757705
Cr 6.4703753617047735 5.280419709021575 8.321461645742621
Cr 4.181452779496862 5.638480323480906 9.181439885443892
Cr 5.81221248272634 4.930477589865684 6.1134820291356124
Cr 8.01001225104627 3.719740807225324 6.483635184658892
Cr 3.9859027537913265 6.062977520099968 4.747792991703213
Cr 8.326393395991982 3.3072201461354127 3.850461884956777
Cr 6.128537936914284 4.567769239340978 3.8046955151456006
Cr 3.0452339200899607 4.945993278214855 6.645995859080347
Cr 7.146585614016635 2.8522868009209295 8.0964282385281
Cr 4.508215640922448 3.4984720383397585 8.084269535050474
Cr 6.287480010946659 2.350813455407679 5.371137702511562
Cr 4.181559624795157 3.3458451518754653 5.434158891603545
Cr 5.047651532953401 1.5165235290197212 7.404547067963623
