49
Energy = -391.31987968 eV
Cr 5.75316582225985 6.082468046576919 0.7742837407995693
Cr 3.3556730258499874 4.7629051725606715 0.08501103855272228
Cr 5.331352080371271 3.458600038015816 0.5583432086303448
Cr 2.75463920627843 2.7693930376780145 1.5944552936017882
Cr 4.73517854102132 1.3107031825236313 1.5422093215448056
Cr 3.202039045844955 7.248518569743302 1.2733055967933944
Cr 6.579030598660837 4.747381972332096 2.702897364377924
Cr 1.4484267029994184 5.097800130605858 2.09471739382898
Cr 7.465863180876965 2.611278839550842 2.03768011348356
Cr 5.5564471296129705 8.405608050241412 1.6324216224985952
Cr 3.934457891570598 4.946945120711544 2.1272696270646883
Cr 2.4324159155338534 3.6337168860529294 4.084470132261065
Cr 4.999451543332121 3.030634337721654 3.1520325374802303
Cr 3.3067465636163758 1.013864533607575 3.6130936938536804
Cr 1.2911971797451518 7.718016153094486 2.942689087226048
Cr 8.515670730348722 4.616768608349066 4.136397686044787
Cr 6.034089025280907 0.5114118302680466 3.3637713173595065
Cr 3.591943546979377 8.89830037134592 3.5373062915969387
Cr 2.8056299343707676 6.428892409307791 3.7300731006461514
Cr 7.625032200905971 6.914527431854137 2.607141550845758
Cr 7.290136814899469 2.368607351200167 4.209700277714669
Cr 6.276508355262172 8.736836132467598 4.406043564966123
Cr 5.115762812112853 6.9459676807570965 3.0536533123067797
Cr 4.586715182838735 5.02884462502543 4.613472030627932
Cr 6.786476860506079 6.408421393402929 4.896458219984524
Cr 6.594557087509927 0.7395386819152977 6.03381637475445
Cr 8.80115980551458 7.437214825309153 5.232853862383866
Cr 0.7023161783034417 5.395847018314759 4.713048410174596
Cr 4.645526583730156 2.1684313089739793 5.126400260611298
Cr 4.4189642031614556 7.614855963311195 5.458936706325946
Cr 1.8915606693492877 7.949548086826881 5.519881779034216
Cr 1.0797308035086564 3.7598396297260406 6.563761287159564
Cr 4.571267243847222 8.89830037134592 5.23573649718748
Cr 2.6506734267934147 5.743412799021851 6.079306380427657
Cr 8.417644840059877 2.7320411439618035 6.452188058293716
Cr 2.066805549070708 1.895374935470273 5.7328312262392345
Cr 3.6515704491609084 3.6055112433003917 6.635042418988633
Cr 6.331659976543981 4.039293507081028 5.582921691014782
Cr 6.422792046811562 7.49261800321921 7.030504272033734
Cr 8.2964692991578 5.354150700249118 6.766106878343356
Cr 0.8632974793113506 5.989647399212625 7.53638078715339
Cr 6.023742878035417 2.554524472323054 7.449060966683426
Cr 4.204048245187491 1.1750559844929132 7.33454259751913
Cr 3.6156997929487162 7.233268323784115 7.709305865227153
Cr 2.126974449983433 2.785852859756478 8.410440590096192
Cr 5.117964144199808 5.563714173548005 7.081307423920391
Cr 7.2623213975206 4.742105706444244 8.165440174110001
Cr 2.7942276825339945 4.9811654101381855 8.539192731307482
Cr 4.808392596631446 3.884742909109994 8.97551235687413
