45
Energy = -357.65819075 eV
Cr 7.25137349768921 8.109488037944784 9.43973967159253
Cr 7.848923482744159 6.283708370851134 8.001506767805282
Cr 7.012743115273446 5.396394742910905 9.883065224815875
Cr 9.205360931555957 5.988298966133259 5.805370948635826
Cr 5.202723311583731 7.231509278479734 10.957652816339404
Cr 8.376319927243381 4.028994362715941 7.822878753536611
Cr 9.003898919452512 8.216714628789337 6.63688322249505
Cr 7.055653049229606 9.02498095756846 7.2777431049538395
Cr 9.437769247251918 3.9712284702731 5.1909190133798395
Cr 4.920520897063366 9.512080847267962 8.409176857184754
Cr 6.764158895405054 6.858319982783549 5.923654337215608
Cr 5.2914495600025875 7.153636972679906 8.315699997872292
Cr 5.656184889899977 4.762842934223215 7.9969435505779565
Cr 7.7397949396034145 1.9384839702827428 6.077806172723334
Cr 4.376377431997919 5.001883189754441 10.078256115758954
Cr 9.820715016832326 5.776738050593348 3.034117772615116
Cr 8.503029694822015 7.744068585039473 3.9935590556009557
Cr 6.073994536688918 2.497750084142224 7.824159903974661
Cr 3.326877518580954 7.489580414857139 9.837551902356342
Cr 6.9910588278824175 4.394288957924609 6.024093858217009
Cr 7.04905211933334 9.359590364495014 4.711785105638756
Cr 4.845842310075719 8.62068175510907 6.085987112352094
Cr 7.585530150889623 6.961112462850108 1.7790676613021659
Cr 3.3843341478915416 2.9114388366377204 8.583359994468186
Cr 3.0904878814389862 7.753899336834761 7.191882229512908
Cr 7.519787304172874 5.490745019422411 3.7753446133597333
Cr 4.301769778766567 1.4349713296000237 6.45913639813583
Cr 7.759605383414846 3.214627641944249 3.6909333413344285
Cr 6.662540125891491 8.679080999355431 1.9999043593027126
Cr 4.367275910882544 3.891650030825894 6.4089067472446954
Cr 5.674329111885667 2.275050446708463 4.989785677207594
Cr 5.687482007537775 7.233527620025842 3.795105079133893
Cr 4.829507397179195 9.787794120666545 3.5896824559910234
Cr 3.1103396784842814 5.431632631741294 8.180788525095961
Cr 7.7773605453724635 4.510332063852051 1.3019403422565672
Cr 5.43257188967563 4.814887429745244 4.285369605102193
Cr 4.56777668991849 6.13914130492611 5.961364147545122
Cr 5.592945076796781 5.983597387112974 1.8305128214897814
Cr 2.0102335837978287 3.2151457843855136 6.532369241518888
Cr 5.527887133531629 3.430834585348238 2.4913893559985536
Cr 3.297447013432085 7.775949271496642 4.544758741294719
Cr 3.3278291537374765 3.1547448389450667 4.235041391729696
Cr 4.032944324806848 8.108327641777406 2.0470037077779284
Cr 2.2648606836473166 5.407498808274821 5.719673941791066
Cr 3.3785485001293383 5.670299556719625 3.5030448330494304
