42
Energy = -331.52939341 eV
Cr 4.38024854036061 6.388007093888082 0.25474672946566446
Cr 5.3348063463332105 3.6427605372543392 0.590428629511471
Cr 3.3584508096364303 1.4231427393189375 0.6347715423993778
Cr 2.5457576043848498 4.285194983268939 1.0359538993565238
Cr 5.969789086559142 1.2986289742208494 2.0855745335484643
Cr 6.891373598493072 5.756527797242173 1.6323775465730803
Cr 4.503235660475356 5.408942828656663 2.037808066421006
Cr 2.374838489915584 6.761412982333645 2.5013937049112775
Cr 3.9560865830047494 2.6910285248392096 2.3505012306897695
Cr 1.4877687907537238 2.293516360076728 2.8536105096685325
Cr 6.539453453597688 3.585116078348923 2.761847865258019
Cr 5.077220519410606 7.723509772900069 2.7149194011402757
Cr 0.3357436713979167 4.900913935748694 3.018709289693054
Cr 3.5844603474523224 0.4240791908456381 3.3685959084175563
Cr 2.4092689547686086 4.540719382840776 3.495048637443693
Cr 7.819045594217765 7.624819813419057 3.7418031928438245
Cr 9.702374086690629 7.723375683090172 3.4873579435549225
Cr 8.422994843637666 4.729576085390757 3.810771560479084
Cr 6.434321643366967 6.088742848163136 4.031255411431431
Cr 7.861119791474263 1.9836156812999828 4.057857129410948
Cr 5.36172711831587 1.9426476646010469 4.457509100420879
Cr 6.12114096317576 0.06557101247528786 4.407125870539841
Cr 1.0674084040206393 6.339853590806884 4.79438892124179
Cr 2.8210015249122242 2.251607556608433 4.803402365357676
Cr 0.49686464198940516 3.733083314053304 5.037089093801799
Cr 3.763264718145512 6.566442830516163 4.364330426661511
Cr 8.898089509376293 3.4240818134388955 6.403172778184397
Cr 8.898089509376291 5.459261210048413 5.180158418876798
Cr 3.9471482597309784 0.6863311516385806 6.153355178953054
Cr 2.742926515737077 4.691390024422548 6.002138949620574
Cr 6.9120214784252045 3.785705717555805 5.508433526838198
Cr 7.528706523710188 6.089683798333504 6.235564997772807
Cr 5.485308468880975 7.818626203112325 5.4892965869885755
Cr 4.636495487231184 4.242364101254818 4.414831828927049
Cr 2.9815218935893175 7.018028939844653 6.511763294724141
Cr 6.567799644464118 1.584548696271521 6.62705570577311
Cr 2.127703632253854 2.603463554004579 7.008164394331404
Cr 0.8605155407024514 5.173482649121139 6.965444602216412
Cr 5.179224341251329 5.677271970513579 6.538561638256377
Cr 6.3668970924826 4.136520296513615 7.885536146332429
Cr 4.601632312244007 2.953464837053854 6.776869779751194
Cr 3.6849074451732853 4.6942994614538165 8.181835349003073
