44
Energy = -349.047512 eV
Cr 4.377226407561935 9.109997150818854 6.511188274777353
Cr 6.0037928047328375 9.25769103442072 8.36249293747381
Cr 6.790695753172548 8.904550626699608 3.5947795385284724
Cr 4.2420777214558285 9.812168857878564 3.8838311463223114
Cr 7.819209322673559 10.781291793243776 7.080387554750765
Cr 8.688909057374353 9.534570850696557 4.981288204819934
Cr 5.057773744500224 8.06075146107894 2.1907745499890625
Cr 6.043761100917098 10.283113829928432 5.498878240426634
Cr 3.1090721665899124 6.652861058612372 6.410219101167042
Cr 2.80624838854723 8.533660257987092 4.660673843381174
Cr 7.813913589823723 6.981666140295431 2.198381606927556
Cr 3.5902718312389634 7.905902615126172 8.62055928993487
Cr 7.327758519655336 7.594327742518104 9.167288656640844
Cr 8.38153993902831 7.045905403741316 4.479435501016528
Cr 5.554922899657031 6.721428217513751 7.407050436858792
Cr 1.8507214678074317 5.3367746178714 5.066582629890474
Cr 5.2199299108674015 7.620689610374865 4.940846112848968
Cr 8.912738107465062 8.879534695778505 7.865518574816194
Cr 3.5512602748081172 6.234958658037148 3.6042950068664044
Cr 5.895492444620737 6.119756978009285 3.3594415806260076
Cr 10.227634913264595 7.325342652901445 5.881316668543571
Cr 2.724997633534147 3.993982050359577 6.637233939842061
Cr 8.323427409301628 6.352894088067697 7.18833760144133
Cr 2.9637316824638105 3.916433844304752 4.030178312116851
Cr 3.842580682322465 5.264740329830452 8.297706592500687
Cr 4.394081521594022 5.017275998733914 5.372701755560921
Cr 4.93174531828035 6.977608830552737 9.880266233399093
Cr 7.153466821802435 8.260521322956318 6.404302915360684
Cr 6.986867904020122 5.378699922145728 5.711340868762926
Cr 10.089624989515611 5.71241200997051 3.4817041755878693
Cr 7.949631326608003 4.605469105026456 3.54932209603588
Cr 5.523361017258833 3.8582418000769287 7.397850154264028
Cr 6.553377206761044 5.292733475080498 8.692772834158744
Cr 5.604885114035235 3.826918147977867 3.3612697107783536
Cr 9.731452462227185 4.9794285906613975 5.646267665186665
Cr 4.311009498956179 2.38029444763813 5.731185020088007
Cr 3.82165552174137 2.496649767893654 8.546902099705905
Cr 4.9954736174578205 4.162463387715713 9.904804109526149
Cr 8.13226328860869 3.7652610938421116 7.365735115967477
Cr 6.469206762031933 2.8287262382891134 5.244768992440494
Cr 9.03458403692199 2.8910635183280027 4.863159497223612
Cr 5.382546595045361 1.2865261604046776 7.431731507599897
Cr 6.363751068609081 2.7599168224008364 8.92617623694725
Cr 7.689164568433627 1.5682664142539984 6.872307817695914
