49
Energy = -386.49214859 eV
Cr 9.994727779767649 2.853193912202079 3.9746877067028255
Cr 7.222566861489243 2.1267862801071273 1.4675584091571403
Cr 2.8530463086312277 6.611180232463658 1.771205566062615
Cr 7.490943852003172 5.475511361422813 6.531556130421985
Cr 7.178590842896985 6.323772472621463 2.23667371820649
Cr 1.887556945709158 1.431503069990286 5.719709327441494
Cr 4.281837426257716 8.334319039900334 8.286471684411897
Cr 2.82230032989503 5.9483191544467875 4.325063128008956
Cr 9.548745511766644 4.1864568177723855 6.81394702344369
Cr 4.577084936113952 3.864701010082629 8.463780122258694
Cr 3.731824620552824 3.606534287854615 4.507011033783721
Cr 2.769942409545829 5.950776568043392 8.675174190531793
Cr 8.933831914944367 5.479548421518438 4.4200795956880885
Cr 7.035004781450076 3.352661270469646 7.5355144468095006
Cr 1.7928277476611965 2.0022519834262127 3.6609344339013177
Cr 3.1798328963568063 4.582629306813148 6.704902928224228
Cr 5.994937505617453 0.3588690388599215 3.4440859509539727
Cr 1.257399552060943 3.951341220106128 4.999986602598154
Cr 6.446525747582111 7.715061471683876 6.771051095585513
Cr 1.0882647796793061 5.956550296378119 6.42553135740677
Cr 6.028208319430852 4.24053627094065 1.3131517614345194
Cr 3.008457997680307 8.263824837601524 3.963968641932129
Cr 4.143634314293449 1.3960439267606837 4.324941558644374
Cr 2.233564247556431 4.073663114978927 2.457926845078372
Cr 6.985369417447952 7.508994499704035 5.001353255023558
Cr 4.272505816406999 2.4168171006912966 2.1380559958118965
Cr 8.124580653844445 3.2663453590248466 5.255998470316859
Cr 3.96351580991375 1.9433116236981405 6.669249139322388
Cr 5.632902135122613 3.713380620637642 6.072460912380283
Cr 6.636301144180159 5.115618791310653 4.073017614743071
Cr 6.401905724687066 1.2773035785776383 5.701124570480235
Cr 1.0749098366406098 7.864445294656906 5.2748885760232795
Cr 4.921015377904813 6.711650993689495 0.7771495125449278
Cr 8.16106785157246 1.2527356538716519 3.554031505923728
Cr 4.573993005471441 5.042392905833909 2.8613557872719597
Cr 5.0037676167396805 6.027722835446301 5.431181364893017
Cr 5.224204753657272 5.705384916365134 7.945331941842699
Cr 8.646025286020851 1.2512789589383073 6.0716264267738085
Cr 3.3944366924822647 7.214505429090237 6.433633731667418
Cr 0.9021518970145399 5.2768430776770705 0.9142200607072357
Cr 3.5164700237486066 4.464691447958211 0.5032210433943863
Cr 5.071500738008351 7.2918559082099055 3.2046591660015817
Cr 6.211631817049231 2.8741556649220295 3.663201007474374
Cr 4.655898911268811 8.711281257008903 5.490773689952597
Cr 8.384136548349238 3.8483562259278448 2.624633026991422
Cr 2.4291859988313473 9.592987761507892 6.3870729517488565
Cr 1.487078583670727 3.292846322588416 7.257670695557501
Cr 0.8125374941613964 5.914825610960044 3.5645310459976174
Cr 1.6810193065321806 8.004002864929683 8.004415318137358
