49
Energy = -391.2140485 eV
Cr 9.67261456214185 6.729339073407235 9.416942838577032
Cr 9.075984191121687 8.201934906319725 7.4896327851184346
Cr 10.239830292167742 5.573501334587063 7.307134272077363
Cr 10.735490302485067 6.886653901855445 5.831997081914496
Cr 9.060938687602832 4.485366484621053 9.286359081335954
Cr 7.492952004784477 7.747373535920955 10.031130304792661
Cr 7.318115766269387 5.308211995000968 10.47913950767529
Cr 7.390199529028531 6.319850092652358 7.8997078406429315
Cr 9.928813461928092 4.486216815339015 4.777113939860547
Cr 6.783878007799351 9.091651066970174 8.151219458051601
Cr 8.348018410468432 4.073022216784417 6.654459354848524
Cr 9.254700958672244 8.754080322146933 4.822068614352756
Cr 9.186828823152279 6.8077723613653225 3.16000625716914
Cr 8.445034894056981 6.4379047105186356 5.653355395242152
Cr 6.6016768627920515 4.143986475171276 8.522899593086604
Cr 5.2959071762507826 6.877194444598334 9.565352966248323
Cr 6.197140442666898 5.088288077367178 5.874877587662695
Cr 7.6831320416508655 4.94756803190496 3.909138813312249
Cr 7.520127151063779 9.106142043183485 3.148724751723219
Cr 6.832822330656483 8.062548377405571 5.807335094572321
Cr 7.792483228407325 10.317534833545846 5.724607173476543
Cr 5.158393749490865 10.04171141599427 6.564159356933267
Cr 4.632586347450701 4.708527956599288 10.266707595295037
Cr 4.73241450222652 9.04239724181816 9.238717904030352
Cr 6.430561797491997 7.054643393393068 3.953515479809969
Cr 5.937248980375213 9.936324709758479 4.077916722587332
Cr 5.026235217996323 7.409044627874692 7.198175441882917
Cr 7.372787873737129 2.6735494203407053 4.711728261243697
Cr 2.996339064058609 6.693646198712693 8.9186817165375
Cr 5.267108670322828 3.5583476076738525 3.9511804451863455
Cr 5.920459015496535 2.828623616961569 6.617920952874684
Cr 4.128179969455767 2.7383771973620763 8.072982182994318
Cr 1.9076043123192448 4.458022246743537 7.3275993892927165
Cr 6.703647167613448 3.7399693394473896 1.9871292134642211
Cr 4.631782622724893 5.115122836881679 7.714242905465057
Cr 2.8089304914969015 8.751311746601477 6.923920064959721
Cr 4.30214830937334 8.220655004961245 5.0705004616193685
Cr 4.350128540261393 5.98589341772807 4.6962202464504905
Cr 5.544602809281346 5.77578101424567 2.201822377613694
Cr 4.490537120305642 8.050888617313445 2.6018954002573396
Cr 4.448478767634923 1.6485527390150791 5.429773688803922
Cr 5.120667288447371 1.5275584260055486 2.656794548288884
Cr 2.6931724916545496 6.530190969614988 6.528778962995064
Cr 3.5479912564849063 3.8944342343235427 5.895315175834566
Cr 2.177038528563962 7.415730518167439 4.382696991661764
Cr 4.152419965974596 3.3495034521839826 1.489803715796248
Cr 2.8257558897765005 2.956931683243269 3.6390654909001943
Cr 1.7104267680688192 5.025008808970877 4.442503105137623
Cr 3.266321791542383 5.404950976649013 2.5840967957679455
