44
Energy = -344.78306756 eV
Cr 4.618770640027505 7.675358439666805 8.184934574901614
Cr 5.721412001860501 10.645583374359415 5.300694501541465
Cr 1.7620213566118712 6.828786575536878 5.894831502278743
Cr 3.440431319648793 9.411856414643557 6.442267713945917
Cr 4.867381768082722 9.294155869938075 4.054944279577422
Cr 3.342585362932931 5.6227929012432405 7.6083054470833265
Cr 5.479556421945339 9.917767211541241 8.061930412602338
Cr 8.283955630187197 9.30313852016664 6.404894944832019
Cr 2.4162681285158047 7.883007903329458 7.983710369043314
Cr 6.365386742924917 8.565846309454896 10.203288695726517
Cr 3.9544430872172103 7.218829571862126 5.757891920826792
Cr 2.7008186132421264 5.128490458830833 4.095563340552878
Cr 6.167639953344777 6.964818787095882 4.3625760025221965
Cr 7.686955448990857 8.86117196092415 4.092027288822736
Cr 5.346414285800484 5.928543089648781 9.645305112902909
Cr 4.976328773337542 4.8955665186853405 5.122571821386947
Cr 6.109977442949967 8.433430913190541 6.272110600248475
Cr 8.964284320300028 8.551452838276301 10.174118866906953
Cr 2.503822915334677 4.02798235548159 5.735674132548563
Cr 4.4204355887853435 3.856815577724129 7.828857034204666
Cr 4.0488680249160955 7.001582622723841 3.393823529973937
Cr 7.123392881877236 7.728530988869847 8.348955941333715
Cr 8.159191459894204 9.998375676215627 8.641353479639216
Cr 4.038418239098849 3.108989254516886 3.5796273975578763
Cr 6.060306725048555 5.793171108177985 6.9210769472155915
Cr 5.147898147393423 5.013906559713633 2.667547637370277
Cr 8.119871398975924 6.781434743712245 5.851412140484266
Cr 8.672471655861257 7.350575094777028 3.3859041903227323
Cr 10.14022390230788 8.384653011836956 5.4153355159509475
Cr 8.11763433854994 6.430093390824581 10.225557631220246
Cr 4.3251069203606365 2.4995746819155182 5.732353970037758
Cr 6.602597918351517 4.390959135616641 9.24004375616325
Cr 10.531973194318304 9.575452154974872 7.7723109936807875
Cr 7.3373625569088325 5.083592183098408 3.671483946018172
Cr 9.501448868225852 7.664489365299072 8.107678551294022
Cr 6.686289368443595 3.4299371770828935 6.746093217176498
Cr 10.559697886317311 6.251126183750765 6.547553712321
Cr 9.378247344655684 4.11694865107136 9.62263923878518
Cr 6.461718566152843 3.1486368008479593 4.297343088775809
Cr 10.11226134721578 5.58082036942649 4.4615282825935125
Cr 8.483521722559606 5.28407775315704 8.021370188967818
Cr 8.475708210132847 4.466141810379298 5.622909433629445
Cr 10.343918832336824 4.015840655818029 7.053683434517867
Cr 10.493686483947053 5.936400830481948 9.496621008402947
