43
Energy = -338.36634359 eV
Cr 7.634812679573896 1.838015289973131 4.531719440635325
Cr 9.088163732482174 3.7025278986086314 5.313429473080333
Cr 8.765787095595256 5.5205932778957925 3.3925227222187346
Cr 10.852802046290293 5.4224021830726095 4.726532973995501
Cr 6.432087510606485 6.020094838706262 2.4537618244486583
Cr 6.7430911696856235 3.99066133797906 3.9067041898604287
Cr 5.9348630845486365 0.7404724204215871 5.691132346892113
Cr 6.906603572380963 3.0387138189064595 6.43041573886264
Cr 9.848435409976942 7.023226087106554 5.361301035112823
Cr 7.955070139532255 3.10449857036457 8.369108830068654
Cr 7.78823687679444 7.618190874262553 4.034582107938621
Cr 5.017578408033862 2.4753729811750995 4.6060235929841875
Cr 7.234978155538927 5.640970487969293 5.491256962895415
Cr 4.247638946661749 4.773583677878233 3.4945693278919228
Cr 8.875908069154582 9.352530404828599 5.791116450212812
Cr 5.179302952276591 6.682352635381334 4.481378387335976
Cr 5.686696371159613 8.484261894185876 2.813975793326933
Cr 9.133686107148709 4.9883084627135466 6.898207959258241
Cr 4.008181470116495 2.386978002734485 6.793869943188607
Cr 5.090602517989228 4.503324851760364 5.917028852965838
Cr 5.699063454130224 1.580417628135429 8.017682278181404
Cr 7.304106513505735 10.210995191252474 3.7691977396837326
Cr 4.344519785333936 6.633503175218529 1.9254672140757705
Cr 5.296603462892925 3.970909599702319 8.389684662523736
Cr 7.941592414022387 7.447277697839952 6.992866995104526
Cr 3.061351644112512 4.90817580225323 7.597915371207807
Cr 3.262885605182936 2.660071738719641 8.972440456382204
Cr 6.277287144151106 8.452843028871522 5.671568804475165
Cr 6.70345465322201 11.059058720171421 5.499440867046096
Cr 7.029881482508335 5.230805769933872 8.152471764813674
Cr 5.285128952192193 6.446903430224051 7.135242721668386
Cr 3.163583502898424 7.594326954459113 3.804325105275869
Cr 2.9726349363437694 5.792272173370412 5.752132820030346
Cr 3.5674722266205117 5.098647816942138 9.890842106310535
Cr 4.6508298227848455 9.60396914987043 4.275602734540722
Cr 7.408460862378915 9.929381652031042 7.665962381681854
Cr 3.697809678490654 8.137601176184333 6.22530501102023
Cr 7.2587333416395925 7.55517844189656 9.125608119929229
Cr 3.126840269176714 7.399662601920756 8.339773157548517
Cr 5.246661723987846 6.264868565307378 9.806549921649614
Cr 4.7604690582247295 10.301183095828318 6.947509704264511
Cr 5.278095707512808 8.405188976710342 8.346683255966935
Cr 6.403399454473569 10.31106602751648 9.367841825010663
