41
Energy = -324.20497267 eV
Cr 9.274025969837332 6.25993486283094 3.684468553780664
Cr 9.364565049808323 5.567187967673541 6.298110807021328
Cr 9.340700818800208 3.328540208154667 7.027836363876993
Cr 10.093060459674492 3.3258689126483345 4.384156280209547
Cr 8.428943318748008 4.125430655740874 2.242456259930575
Cr 7.524286187295278 6.97195975258524 5.527940888002835
Cr 7.525124904030569 8.468960687491295 3.5583951082778893
Cr 8.35963142484736 4.5856991876333 8.92319251063573
Cr 6.970531122426853 6.283508787741443 2.9806017852344957
Cr 7.4849106174430435 7.128669727699594 7.793999219930118
Cr 7.757693537796701 2.410537183524777 5.706688533855271
Cr 7.8034151310345345 4.430964550669043 4.801615821733648
Cr 7.826161343971213 2.0180997681971498 8.33387274300783
Cr 6.168364206766489 9.006785486488011 6.121439867746469
Cr 8.212571704959661 2.2105059519692323 3.221560625817568
Cr 6.995743871062845 4.69848851287794 7.030478131566873
Cr 5.828224333628702 8.427685893156346 1.8204937890143982
Cr 4.838787759351192 6.206244624885434 2.1448995290162904
Cr 5.087846065902054 9.900531598488408 3.63188551777709
Cr 5.205001258320618 7.6625555115131485 4.253072649768358
Cr 6.15323838923946 3.3114131099210935 9.245471234980181
Cr 4.628359450057217 4.44844350388857 7.180167887575695
Cr 6.083141643398093 3.968972175032495 2.8296398656037756
Cr 5.527747795559128 5.622635772096946 9.027372799829783
Cr 3.209443659094041 8.901003581837452 2.8908456673938496
Cr 5.40451619666287 5.396577430457574 4.943434241454163
Cr 5.2782427465402515 7.04285591889302 6.971868062676047
Cr 5.376293898643396 2.255115132312949 7.2132280699257585
Cr 5.650315942693254 2.9318868697096447 5.021566048770406
Cr 3.559046802227644 8.806795867796714 5.626746703011094
Cr 3.0864689994166854 6.800294088902109 3.689030003949638
Cr 3.1601662985528787 6.1164965587340765 5.782379233195271
Cr 3.3966399020649414 3.499265436197375 5.598924958048908
Cr 3.293944406720814 3.236793003366493 8.872424476114167
Cr 3.5108588282211763 4.375188545577351 3.553738364533364
Cr 2.8354372365916194 8.140045918812413 7.559430663817372
Cr 3.0445610497091127 6.043009917491251 8.532496189872075
Cr 1.4449504965293196 8.054303552412593 5.03699706173998
Cr 1.3610640541938475 5.219865144944847 4.678980125666134
Cr 1.726053534861275 4.569374696890727 7.425085135108501
Cr 0.8210523236629065 6.6925083144028905 6.9039507684928685
