49
Energy = -389.21161126 eV
Cr 10.237027329521256 6.038906713562349 6.771925907044413
Cr 8.67331376266797 5.668567788167944 5.195728072562179
Cr 9.83799580344482 7.934069313015027 5.475492666556896
Cr 9.33128623026253 3.740548156167568 6.956699941346862
Cr 8.599750079329722 7.219112661779243 3.198514843532153
Cr 9.703232813185833 3.5885863595644274 4.760091763875136
Cr 8.546684018623912 9.144872131006672 3.6814285021424795
Cr 8.530760979614707 8.104217048480537 7.281983384253823
Cr 8.94956593733405 6.28202613929362 8.83302297123198
Cr 8.188478375093425 1.742409544205326 6.1515365580492665
Cr 7.598504775294073 5.483943465795403 7.236015441537085
Cr 7.6298871932408066 4.732932466556663 3.313850787238115
Cr 7.96360872927584 10.138342694951493 6.02239859302142
Cr 7.220486068390951 2.867223779857897 8.249407329718943
Cr 7.275892966964066 7.671774542446048 5.298281548754963
Cr 8.152982446658058 2.176658679228334 3.6774852982720057
Cr 7.080382182561242 9.120850791261175 2.148939941621372
Cr 6.185086886299479 0.9512377203428142 5.253298369960718
Cr 7.338325835342119 9.695850164154502 8.71485778495578
Cr 6.7372183169971365 7.506519498140145 9.068361295453737
Cr 6.6861564933723265 4.926654216220116 9.505495983172427
Cr 5.18816574073438 6.6575339324692715 7.3216204623830174
Cr 5.334112384811033 4.191557869260455 7.290800927166613
Cr 6.23787464733276 9.75193576107973 4.301989692256624
Cr 4.7147564796103065 3.055335680379399 9.3977466706748
Cr 4.649133114709146 7.870823520602358 5.2075204516021625
Cr 6.069606429372056 5.737138980225451 5.094793141761616
Cr 6.966378475978059 3.466021506242335 5.552954820465853
Cr 5.682612261886486 1.5901281703416685 7.380247470459941
Cr 4.564060306061775 9.210294132892585 2.9612541572650213
Cr 5.59516787692576 4.980126751150134 3.0559028000372246
Cr 4.596291210641404 5.894847348329821 9.823345275623815
Cr 6.386435303963588 7.379144085742046 3.019080582424268
Cr 5.590899122451943 2.791724913373677 3.715073825729796
Cr 5.942180664471858 9.099650953805964 6.969428660618764
Cr 2.8996388649456386 6.937505537855742 8.580033422389512
Cr 3.845800255494101 5.108218579789557 5.39013469513783
Cr 4.303008766674259 2.81902393437797 5.767469533777856
Cr 4.709271343009633 8.573875695900227 9.045908551156856
Cr 3.720802341338823 6.70028165364794 3.595300691785648
Cr 3.166016106562114 4.847266697221419 7.845320421508879
Cr 4.47997527784816 10.358011883086427 5.686192404680401
Cr 3.21759668778427 2.513670663887874 7.804657368197718
Cr 2.691386649620115 6.926371252057696 6.246315067892445
Cr 2.288934880021293 8.78107902000346 4.683678907659934
Cr 3.345723655492858 8.988954734410585 7.000906975675537
Cr 3.066593685481667 3.824276883006089 3.411656670366636
Cr 1.8539056705809065 4.252123747319992 5.881342710637808
Cr 1.5290040470950381 6.0597317117165845 4.276466130733983
