48
Energy = -381.50518843 eV
Cr 10.327748609731962 10.487925093254548 7.026044391895341
Cr 8.555141040080775 9.409304175125245 8.298798974023093
Cr 7.592467584741642 8.318843441634813 10.447033367533045
Cr 9.141029654381038 6.998281587825604 9.002949138647704
Cr 6.278374696348365 10.13681449873457 8.995427677854053
Cr 10.775208030762158 7.86822820602692 7.217948331581882
Cr 7.727549932728016 11.20405367612966 6.985105223007331
Cr 5.07172165904504 8.146080344670258 9.332649631280127
Cr 4.010585005733272 9.171297782157493 7.4436599517526725
Cr 5.678989825317477 6.257371103766703 10.898667587284953
Cr 5.256016370335538 11.187009521177693 6.7932643463062075
Cr 10.229542806439031 5.259403728907911 7.613309481779335
Cr 8.398749750552678 7.446345750455054 6.575612657289753
Cr 10.659416836339101 8.331283125660722 5.233213204414913
Cr 6.174710083737064 10.243335784319756 4.909737281381454
Cr 8.398980739473382 5.345357986541393 9.950240281018214
Cr 6.656359237405047 6.88304982658285 8.455137559428058
Cr 9.841671588709776 5.8994059443294615 5.37601916445637
Cr 7.96068094117468 5.177040290839075 7.283336462984505
Cr 4.147256224874168 6.113333516183325 8.71039133755175
Cr 6.307070888396504 8.917294103112306 7.0046845053650415
Cr 8.540346037792379 9.604782651701543 5.525695351585838
Cr 6.228409362766043 4.552426191236849 9.420280243392593
Cr 2.893520161219252 7.097627122737691 7.281478611876117
Cr 7.8292327558366965 3.088696838963739 8.097054162350423
Cr 8.755001925360732 7.244206541402935 3.7906373042753754
Cr 5.648512928060732 4.697450206083317 7.129643365765698
Cr 5.036494290478493 6.886268469591804 6.307173598202638
Cr 6.682741171910399 7.996195227007759 4.713033278349621
Cr 7.043548773359371 5.626767466123243 5.022493771323112
Cr 8.906364598916927 3.71538907717376 5.354690013212055
Cr 4.258011779524835 8.893427443201253 5.372947779639315
Cr 4.053532214654311 3.495079439538342 8.864096251435877
Cr 3.374543324126917 4.8204248536046626 6.786596175747828
Cr 8.660435640015324 4.827277949290765 3.1716340591438725
Cr 5.527076188261463 2.1721616405813795 8.291153720455217
Cr 6.664274578337796 3.0491064184518346 5.835352529144512
Cr 2.7665542278656408 6.520911892297041 4.953305924988027
Cr 6.643935249243349 6.113973112281583 2.79074907597987
Cr 4.718192689482886 4.720544935070654 4.578852965064549
Cr 4.956300036724491 7.0136844702314205 3.6691616698620066
Cr 4.307448959077547 2.703708721260586 6.248396462863331
Cr 6.846372769521877 3.562258869342161 3.503403104067173
Cr 2.34522411162197 3.7741936634927513 4.828840575376419
Cr 4.779740644523466 2.3403781466651195 4.013898677955665
Cr 4.872258096800497 4.635107854975394 2.2448137937223196
Cr 2.8022723776018927 5.945791797508685 3.097919254432023
Cr 3.0067349015107485 3.437450813651125 2.889819023854327
