46
Energy = -366.29013538 eV
Cr 5.435040002017842 7.0713023562944235 1.333443434977093
Cr 5.7231125481283875 4.760898938179369 2.947146358536833
Cr 7.5799763741850406 6.317578067914288 2.307675441426759
Cr 6.702399560497493 9.086564513397814 2.6633195777306042
Cr 3.715883924022275 5.551872656844465 2.7927161844040733
Cr 3.9023456105306713 8.342997613182689 2.262273882214716
Cr 7.661529680150299 3.6783716082042606 2.6021960895409926
Cr 9.267698049665873 4.919984126626522 3.7564609076051028
Cr 3.572936492500201 3.3412269546001556 4.249567257560973
Cr 4.639075071811549 9.934471636940984 3.946063885053734
Cr 8.223580077975095 7.748110455668443 3.9319228978137133
Cr 5.789179371741889 2.938565508229156 4.473385527852343
Cr 5.612345160793298 7.235779553342211 3.9606014513790875
Cr 2.9317059803887053 7.050351609297599 4.191843966398842
Cr 4.798889225505254 5.381217846455488 5.435688841116543
Cr 6.834202940907657 9.585825306822933 5.274114173744463
Cr 7.183731090873142 5.284618057881928 4.868178745178572
Cr 7.964723155561109 2.482264862742479 4.600548309613879
Cr 2.8085321479598644 9.301858904151235 4.713870060494221
Cr 9.20727824854914 3.789397095207645 6.108232696620621
Cr 2.4261772546342733 4.722796591365715 5.2997824336150074
Cr 9.54627289695101 6.580704868698007 5.4314203192299075
Cr 3.630534186049342 1.0903370903562384 5.53844054747815
Cr 9.175865213723604 9.212250791936846 5.616150505444446
Cr 5.846882897037749 1.2592317537846374 6.155621698630347
Cr 2.267546561560784 2.678808158351354 6.778967026943723
Cr 7.124690596233864 7.4210570969323255 6.147928822801707
Cr 4.78378753069867 10.186355919454833 6.697787817442367
Cr 4.7906284907825185 7.942906121181495 5.830632941045995
Cr 4.500081094030513 3.283356140557908 6.744742184060204
Cr 2.305497019313878 7.175716401853561 6.362730991599068
Cr 9.426679563761171 8.18855985791783 7.485718189839147
Cr 8.603383284673491 5.610472551629694 7.308869861766643
Cr 2.9050196793858913 4.887763517585026 8.001302223997968
Cr 3.9662587475733595 0.7571263096458499 7.9789272828171915
Cr 5.969080045996483 5.8512292913299415 7.3770015691972946
Cr 6.883462091957639 3.6866744566747798 6.723315367731517
Cr 3.3199039280955414 2.4506510248226427 9.088671518015108
Cr 7.411993223868312 9.679253234382566 7.573781271196864
Cr 5.7836712768696055 8.438289417135412 8.28408380165624
Cr 3.8013052099351827 6.962856844138719 7.963978998559532
Cr 7.686939876429859 7.159220471621177 8.8185962939117
Cr 5.141285416756491 4.110608336914435 8.895334626283944
Cr 6.171927882873429 1.9627146278364003 8.479373612163176
Cr 7.6204078576970495 4.329915791241972 8.931137977917096
Cr 5.143707389960157 6.355039591281205 9.85360635800731
