43
Energy = -341.78355944 eV
Cr 4.2800976756484514 6.442756453049506 2.1186334717855395
Cr 3.921191658830321 4.895362078647311 0.20920224994574582
Cr 6.293387132992613 3.1030123233634503 0.1610091813948146
Cr 6.42374322768314 5.996827934862305 1.2431761445452796
Cr 1.3753433055502746 3.7557345731819263 0.8494946426790718
Cr 1.9201444618382257 6.465781700605588 1.4040702102766052
Cr 3.628253859354762 2.1532292493747645 1.1843905751449844
Cr 5.781288779557815 8.138221376676297 3.191681230577278
Cr 4.229621570606954 4.836999763600512 4.170172680045424
Cr 5.354656422163798 3.8899652663923225 2.0054370505689163
Cr 7.791231034518194 3.795451015060766 2.61197072721078
Cr 2.7691772765099674 4.2519284579011725 2.393830314984209
Cr 3.1392854221147566 8.425898992444576 2.9899531425943873
Cr 6.041622707223545 1.4920710776580672 2.6667604635492586
Cr 0.35128222154076644 4.734400073895325 3.126533954880074
Cr 1.4550416047435082 2.102020542728143 3.0084013013819533
Cr 0.5357552436277468 7.797285032772411 3.7811990692793267
Cr 6.647942533124246 5.774284094298809 3.55309005067023
Cr 3.7616503919791673 0.46917324911886166 3.349382887690379
Cr 2.141159733227903 6.289977616720602 3.852973250276102
Cr 3.876196213883398 2.4959655589619287 3.712065640660934
Cr 6.209048977853874 3.3070305503722572 4.451312042095839
Cr 1.9482207642659137 3.821824649922301 4.865456865774229
Cr 5.429659232635914 1.1037146207435535 5.388827243455894
Cr 7.665507586184413 1.8960035333609428 4.927709059187728
Cr 2.541365770100099 1.4798656674842408 5.605152248330885
Cr 0.12402631861936571 3.0142310412408913 5.403558329705545
Cr 8.083179575706637 4.566745948083691 5.344766343038353
Cr 4.531359640335521 7.219246638736202 4.75146530923607
Cr 4.234057773101276 3.2209819234838117 6.0818319793290705
Cr 0.881875687321209 5.8370897922077205 5.825823861663361
Cr 2.54085958284911 8.110190354754417 5.6207778295910495
Cr 5.852125653622342 5.2899874384392 6.0631423295441795
Cr 6.99432404080904 7.225459331909194 5.432103553154092
Cr 7.113675790337523 0.9218420431554726 7.157058484621562
Cr 3.1267756451068607 5.656093585407573 6.339220097700517
Cr 6.705211753727982 2.8844578712687845 7.027128313796985
Cr 2.265197988838446 3.778041338321295 7.372404289135356
Cr 8.700798840948176 2.832767692155558 7.046693125821326
Cr 4.599430493467934 2.0044267822240367 7.9138300577690766
Cr 7.113248807741072 5.073885344785276 7.982948053388172
Cr 4.816776762199456 6.91612366563461 7.4318803861442975
Cr 4.695009543618909 4.423452461104802 8.273290663485604
