49
Energy = -384.54028375 eV
Cr 3.4277081102924205 5.685228554090274 1.214585427000539
Cr 4.0872269975587425 3.7844190313435035 2.5496927912757967
Cr 5.355856781616007 6.165109670488542 2.441763100499187
Cr 7.948658412394891 6.178609937000333 2.9783562063488707
Cr 4.210959596424406 8.1792810041674 2.154781564588046
Cr 1.926183488480459 7.255482138937525 2.1350464378507383
Cr 6.3941396079328205 4.106108149650949 2.9274673372976676
Cr 6.482868160911178 8.571826193046482 2.67257950705416
Cr 8.694679639131675 3.6010728830847865 3.231746200163797
Cr 1.623987562800808 4.784232818711909 2.9341789065994863
Cr 6.403239923023383 1.9388200078853446 2.8588835211131713
Cr 4.712170433758772 2.4916816462617217 4.53187630150776
Cr 9.958229010325459 5.443941717786164 4.119411389850015
Cr 2.1412195781287235 8.66801430103023 4.094307111092181
Cr 4.276159504020097 9.12666849259379 4.242586781189544
Cr 3.4766041086654234 6.345606165815861 3.790346453789393
Cr 8.19008895864356 7.9682638515020905 4.707070618212784
Cr 2.3078632051793067 3.995318990840982 4.421214212640218
Cr 4.8859338224549544 4.906870306760669 4.879470220745579
Cr 7.494223480197971 5.426909298474068 5.036742474066036
Cr 5.854180744463955 7.416243042634346 4.565421330783582
Cr 1.430921120436667 6.62392376379209 5.050666999954994
Cr 8.67314514726607 1.747010907951472 4.550074099802603
Cr 6.984303157309035 3.063262888750576 5.176992202069999
Cr 9.604370593938377 6.278492486270774 6.292126685766789
Cr 3.6009671169365123 7.522340268193634 6.097564832397124
Cr 9.52987634023748 3.6324411523031177 5.841110194756784
Cr 2.8462269737002037 9.942054554196512 6.244818871012137
Cr 1.5136823604088305 8.789940708376948 6.705172580685878
Cr 5.563001436185532 3.804068073577755 6.971818820838668
Cr 5.59761222977684 9.00309312352192 6.733828005087271
Cr 7.832508217129108 2.1229305669109007 7.13704553370544
Cr 5.7359672143494995 6.283938616654573 7.031248695350429
Cr 3.2606009997441285 5.312255928856771 6.48958948083816
Cr 1.8138249712681542 6.447456218989295 7.882955774022634
Cr 7.692482666549087 7.618290733340222 6.546709646383952
Cr 3.3533040975943034 3.027373183779074 6.466087170849744
Cr 7.964064999414388 4.823947002658975 7.457741545770021
Cr 10.520480937928703 5.006169127637593 8.011215580169447
Cr 3.4994340351767104 8.693943710872807 8.341702575941506
Cr 5.564944894223527 1.4016560736072268 6.66271085016913
Cr 9.508989063334434 3.094777178531958 8.564965678500183
Cr 4.099471374257483 4.477540322106755 8.744451884771657
Cr 6.031906161181706 8.370203187387194 8.430914644115052
Cr 3.8503916604187207 6.833061661336462 8.705343716700998
Cr 6.741444564071084 3.200578950529415 9.021289695953751
Cr 8.357908624926935 6.519690105328014 8.798058207717201
Cr 6.116892590836918 5.522190111373194 9.21861157840866
Cr 8.538767835441444 4.477333701505548 10.017329065038833
