40
Energy = -318.40137852 eV
Cr 4.8840561952604284 2.7943416828635343 0.137459479893672
Cr 2.8206468414726724 1.2403998386752333 0.14480600488968184
Cr 2.422533107410868 3.9975002674125193 0.6247249923325747
Cr 4.058719862995582 4.887455465226021 1.8913949163075336
Cr 6.219540798417728 4.8187499487071666 1.1710385043308962
Cr 5.034753769156523 0.8391151621928394 1.8498664622508445
Cr 5.072048298870183 7.142014022490497 2.3581843134653666
Cr 2.292165817745147 6.612657986812493 1.821715951735067
Cr 3.1388152646491103 2.3244519090854 2.1758110918583973
Cr 2.5081243415699532 0.25137553145226 3.1420060349357777
Cr 7.732481362447018 6.332361629582639 1.9742744453651513
Cr 7.271680024295896 2.2979879056802957 1.0092918909057256
Cr 8.245699334264687 4.932438899724001 2.3584100457278927
Cr 0.674132532144724 2.2966132210025965 2.2310566183698537
Cr 1.8468453948362853 4.386966202117958 3.0549749820292424
Cr 3.898752303192018 3.8144616287253457 4.2225476890885005
Cr 6.854432471471525 1.2971263899567673 3.9690109309251222
Cr 3.2745743765454955 6.201916101631171 4.04432599268784
Cr 5.833547645964637 2.979854448623957 2.708803669736678
Cr 2.840386807641946 8.610550793032413 3.819593801365403
Cr 4.3953020914051875 1.1709883685078382 4.321594268441024
Cr 1.7926437613095823 2.2046986151678802 4.468920495658561
Cr 7.606666267531682 7.128362929822301 3.997060710309016
Cr 0.8244515225588288 6.426287526874804 4.2273430184054375
Cr 8.187420710568471 3.7617766088171507 4.561561428215254
Cr 6.066788413864692 3.1904225456886306 5.32764254701638
Cr 1.8449725222569713 4.668898043734659 5.6964867026078645
Cr 5.006102737732513 7.483340720276587 5.216965504460923
Cr 7.825845829896892 4.165246237768944 3.465121593872391
Cr 5.881406835434059 5.538931338730159 3.949414917045217
Cr 2.72478066821619 0.4434177963926595 5.950313819744888
Cr 3.6502281734419415 2.802257841664136 6.2334970033769315
Cr 1.0739463939532448 2.5779416243719084 6.807977165377501
Cr 2.6100043600222076 6.854111863298807 6.340258297764707
Cr 5.449869137175856 1.159109572075301 6.431159671654642
Cr 6.95799072570445 5.257003133340423 6.097754824528648
Cr 4.501198914329313 5.241150812921314 6.274034521830749
Cr 5.490429832145553 3.550355639078002 7.734742305312549
Cr 2.816736206711623 4.546647750615166 7.942356659945464
Cr 3.1394854039398084 1.8225685312476214 8.298353261621086
