48
Energy = -371.3781749 eV
Cr 5.2773456900063085 2.2754078320295785 0.39231081298549797
Cr 6.993626319814192 3.8141149750054035 0.3871728220472885
Cr 7.2368560522580685 1.1908550018257678 1.1435387517151208
Cr 5.199163624094368 5.154705422406856 1.5242505897968566
Cr 3.23898830346426 3.413051243765787 1.570926013196652
Cr 0.5407850273309599 3.5309096711597983 1.76307680661424
Cr 4.73809667771519 0.5471792935314307 2.178147772799521
Cr 8.125014120214622 3.2328050388079337 2.345221881982267
Cr 3.6652438589186263 8.100263476375442 1.9679879762023589
Cr 0.04580783862062674 5.76537324738838 2.231627370483576
Cr 6.160604578479936 7.966632463160334 2.0147616696927826
Cr 5.782364884162809 2.899135442660949 2.6575508629526463
Cr 3.43109516804881 2.1210704047744837 3.7035674719200857
Cr 2.5231218446303814 6.027083684967431 2.4270290851254606
Cr 4.102152844874202 4.3606232694518186 3.73179137737756
Cr 6.770969691103714 0.8748399478833947 3.4433113776801005
Cr 7.35297830789742 5.806322125529432 2.0479988483985845
Cr 8.80704987112572 3.578126200565319 3.686342107196602
Cr 2.926105157441434 9.706553934914767 3.830049204658995
Cr 0.9803594649813469 1.5441446238267518 3.364102908907475
Cr 1.2883167296643314 7.83670009782672 3.498842765629979
Cr 5.0623718481104945 6.604831585263215 3.529292290149862
Cr 1.6833109801103605 4.064142755703201 3.7416519172025766
Cr 5.639458905916389 9.190504663828902 3.977455097699665
Cr 6.581065459698076 4.868858028769209 3.93332703145176
Cr 7.553922098551012 7.206491805586339 4.370672058561298
Cr 2.8833172443524897 6.124968948408139 4.961042938512397
Cr 4.886630142478961 0.2680511950892569 4.940234263919687
Cr 3.3654377230125267 8.257102990885961 4.516842402967365
Cr 0.45095431140350134 5.814573968994617 4.669953375796919
Cr 1.301824423258291 7.634006936909783 6.3076659357937
Cr 5.385869499097084 2.501841653325066 5.178378804087111
Cr 5.1685632566682 5.01064581815964 5.896592899758753
Cr 0.7511450806599147 2.8384408317244283 5.425304808853267
Cr 3.2727876662162023 3.6168401806145285 5.896567572434407
Cr 2.448556175926636 1.193109703749704 5.856960087251103
Cr 7.580048692432609 3.0008188957428996 5.030121577813259
Cr 7.77799242552267 5.45322992497402 6.17739550830209
Cr 5.717449078288249 7.329421132411104 5.666356657751201
Cr 1.421874752225305 4.906878177973707 6.948073724514158
Cr 4.698054033940605 1.8779812904644786 7.34436877891123
Cr 3.5013636787664955 6.301865079134138 7.068106879721843
Cr 4.161738635115745 4.388517381391155 8.31956095972266
Cr 6.182343136868887 3.5933750685947534 7.482633960350695
Cr 2.5298389263913283 2.753143590390148 7.8177718486964975
Cr 8.348507079747918 4.609833472656839 8.711039829834652
Cr 8.80704987112572 3.4621945730732753 7.454279077910977
Cr 6.40158799834648 6.131542127402211 7.888651861436453
