44
Energy = -346.79592959 eV
Cr 2.8493650149709904 5.434395822542909 2.6023825860750955
Cr 3.175259085069597 6.625455153396203 6.108193390914272
Cr 4.867492376572888 3.763177778535144 3.0496402858158884
Cr 2.532869715817906 4.6933322805945465 4.525083339507231
Cr 3.034753404435215 8.322668254400826 8.3046385612484
Cr 4.929262850967035 5.699328076759283 1.3360740478085675
Cr 2.614568259241279 7.539975972303931 3.857749172261039
Cr 3.818937405709017 6.395358261944771 8.56602256687984
Cr 4.670245750040712 3.3500874401119893 4.987762645669525
Cr 4.883527673702032 6.090356924466079 4.389310527819706
Cr 2.970325899025241 9.209382767949927 6.0460818906560885
Cr 3.3559779041996047 4.37651677166661 6.946618965415735
Cr 6.9633280113723135 4.37710325222271 4.8233415621563775
Cr 5.30452913979255 8.791947235982702 9.068907197124023
Cr 5.503479956170708 6.714460772340326 10.760768962458872
Cr 6.790400712511931 5.783565922216275 2.935544181323345
Cr 4.669537370722916 7.530421670760722 2.2013815619099555
Cr 5.065290837124989 2.4510324190370523 7.384764554228926
Cr 5.163228218983273 7.6709583053570976 6.70745623309987
Cr 4.925031670678047 10.03245905950387 7.075953006820529
Cr 5.460526624162595 4.988355605305922 6.836398804137993
Cr 5.028939563032542 4.4692533301525295 9.3588422096472
Cr 4.826905392006056 8.538259402226053 4.605122498914819
Cr 6.99841418343263 8.048364417755797 3.3936967639030313
Cr 6.4490448336101895 6.5900591930261365 8.441507758351147
Cr 6.883865980096267 2.688447855394454 6.46735764930106
Cr 6.630064498041148 3.790026606027819 8.87896228819917
Cr 7.350812169451454 8.375418384855726 10.50702349878892
Cr 7.223910418576664 6.947512439443943 5.5753040835228
Cr 7.324144660996633 8.970570472880295 7.781920952727374
Cr 8.063409003350879 4.896516183001687 7.214132680105974
Cr 7.916244523357732 5.726932861303973 9.918932434656064
Cr 6.979034452698999 9.538874311569874 5.6718197283377485
Cr 9.036741025609473 6.028599471494255 3.795845690169871
Cr 8.957490026315186 7.127373915195207 7.6690433939812745
Cr 9.1918373609255 8.189352777530486 5.052137379118946
Cr 9.202292151286139 4.152018013842382 5.387085848933628
Cr 9.23437474189374 3.619257746074789 8.966053737181158
Cr 9.26785488087014 8.375574195848724 9.654748413810951
Cr 10.314746344813605 5.27404167700948 8.67282159338827
Cr 11.588537185315223 8.420780155246495 6.197971386166374
Cr 9.500763027292841 9.530296158237745 7.1798279632050095
Cr 11.45659978267898 7.673117077663904 8.158024349386373
Cr 10.149601298460063 6.312578992201095 6.0613090402541365
