42
Energy = -330.56899614 eV
Cr 9.060264985533832 3.203824644475018 2.063629767683328
Cr 6.601679612778821 3.5865627823681985 1.9650983936727933
Cr 4.8366290834758 4.246258413401407 2.4054467502235615
Cr 2.423784330432792 4.752289714195654 2.0745066084288384
Cr 6.335621328226411 6.361418626260589 2.892515697368718
Cr 8.52391298299071 5.599807295120014 2.2580764257132717
Cr 3.7493624180344463 6.416781110771454 3.131708249002635
Cr 10.217740700962288 3.6535374966831413 3.525615817134716
Cr 7.810528156255225 2.1630074460604747 3.9209626381073357
Cr 1.7179130220197076 6.593155996515421 3.8948492944938953
Cr 5.548450473566276 3.02948045282575 4.614325050275932
Cr 2.9556331984666135 4.240061683084224 4.354019943056639
Cr 0.7661762938553472 3.9065980554914534 4.229435522249227
Cr 7.832071721932525 4.4559762385694865 4.195606068075848
Cr 5.060329909828259 7.738345127902114 4.579334430270079
Cr 7.697976591879137 6.909435383855492 4.574566183480437
Cr 5.5087067575364115 5.255209660468816 4.8441911923909275
Cr 3.2650358926957943 6.446372694966192 5.91523687781731
Cr 2.8240605998595147 8.70087938851615 4.51132348249833
Cr 9.901145304768134 6.256685363605689 4.028700154391726
Cr 9.230576172700307 2.7001725131223013 5.801372008579006
Cr 6.995032385911184 3.354725603253345 6.29102184321823
Cr 0.5889400610982922 5.7964382936980705 5.733211809226077
Cr 6.589168784620664 8.467077347224546 6.278623498460849
Cr 9.204203559741313 7.611072802701441 6.450789804237055
Cr 4.518354042082403 4.114260338389475 6.66663659940542
Cr 3.9502829233844317 8.925006567067816 6.597132458368583
Cr 1.417814216558787 8.025473198014682 6.204750488538714
Cr 9.410793140082928 4.956505542289694 5.806213380009571
Cr 2.0546070402424044 4.244810178491179 6.592526913842022
Cr 7.262797427641583 5.685077101562801 6.742166525281836
Cr 5.198340738683243 6.644024810213751 7.272788604917165
Cr 1.4840014006750204 6.173821713549097 8.159002157604492
Cr 8.753352871614467 4.083375395299609 8.214403222928203
Cr 6.1262078504483855 4.3340654667917144 8.657678203558074
Cr 3.882342493504084 4.998485565379618 8.373362054731299
Cr 2.9152561852864003 7.472411204978206 8.461095671126346
Cr 5.066321934832822 8.671515285665317 8.661570171476638
Cr 7.3126443280547075 7.854386899491702 8.402919107927044
Cr 9.579892769740624 6.420708811019741 7.949624927918681
Cr 5.080595013658934 6.665566009818056 9.891988099677476
Cr 7.344061670846559 5.88794215334941 9.41458427913909
