40
Energy = -307.80352981 eV
Cr 10.717573013410574 8.768089055675421 4.78682131381234
Cr 7.976667690311688 8.078321373210418 4.838905712996441
Cr 6.08719385686956 9.750418014401742 4.72385677448388
Cr 8.827688517939144 10.268228592134633 4.808354393218459
Cr 5.009361833383666 8.138339821505825 4.904277528685664
Cr 10.674533509760543 6.225664120462544 5.966239915382131
Cr 7.857001620291264 5.853719178571058 6.520941452848298
Cr 9.416142995407666 8.241559338242967 6.734728212112003
Cr 7.677196381722872 10.21475703313926 6.591525685853239
Cr 5.001716469657172 6.238864971070811 6.662380838715686
Cr 8.945051562174948 3.5000133712555037 6.919590826821764
Cr 12.14834880637871 8.294937071040476 6.730537693291695
Cr 10.443853009305608 10.519418275814925 6.7699882643282745
Cr 4.981740985356006 9.815648381219452 7.186973569315683
Cr 6.621749541596312 4.063849879632868 7.197490700093368
Cr 3.3674657785469093 8.302884025001967 6.92687008544787
Cr 11.232317611543678 9.819420551688042 8.78799141548721
Cr 6.61112959279599 8.061312491836237 6.887023984370417
Cr 8.31459127450211 7.139503782541573 8.798661401874709
Cr 13.365095550479081 8.772949150056423 9.379874588622794
Cr 4.522528137740163 7.837651888440342 8.869181904820245
Cr 9.60551277738108 8.20173791792763 10.467357802762985
Cr 6.537955342666063 11.238713588342481 8.984350545445935
Cr 6.183351330252604 6.197139519387887 8.770150121348426
Cr 11.001323718654646 7.456098104832325 8.511046240353657
Cr 8.900696949580372 9.800908730746086 8.902268545559496
Cr 6.86825429919879 8.881346387612425 9.653296464047086
Cr 7.849799064668078 4.5088474819463755 9.270041441235668
Cr 9.719805882325149 5.426855163698358 7.991450455429068
Cr 8.754678890831656 12.148416741464281 7.8811041888221
Cr 10.250193349409992 12.070599745505426 9.08505764048593
Cr 4.459368018886924 9.9306309642626 9.671141475986998
Cr 8.250455701794571 11.265999216692169 10.594896688079054
Cr 10.049991685995796 5.81864334530605 10.585932903663563
Cr 5.497787684403513 5.195813734213469 10.570801103924786
Cr 7.5957708652352665 6.4799274491836805 10.957175055504766
Cr 10.658314610793395 10.275556134110312 11.04740325174937
Cr 12.173468782171339 7.989464256670002 10.712250660809975
Cr 8.011565900426037 9.141425569646904 11.821259846465692
Cr 5.619697554597456 7.853265729954403 11.317739454189132
