44
Energy = -344.11902242 eV
Cr 9.541510941209676 7.7784913980871195 9.726675535247976
Cr 8.000972229087283 9.28501534394339 10.156617369739786
Cr 3.616324833044452 7.069083156953868 10.300687629352
Cr 5.706989517346045 8.415366713729236 10.068419134722225
Cr 3.879340641898352 4.862628148746735 8.525154212330545
Cr 7.295459713295294 7.221197745187207 8.47739084071646
Cr 9.201852200658449 5.631516219430175 8.411741091774585
Cr 5.79489464399248 5.789083665913478 9.493206083455176
Cr 7.1516162047507095 4.528779334969868 7.918876523956434
Cr 5.224509996320603 3.0528928732188194 8.0380530747888
Cr 8.60565237277974 3.791829175943215 6.233273676815039
Cr 6.572118586767075 2.4897952308827866 6.128047121016767
Cr 3.3540615104606575 9.023328929320195 9.019298368026883
Cr 2.25935167460534 6.5701944392186675 8.485728401629466
Cr 9.768767220857082 7.444202134735661 7.138646336883432
Cr 6.018156671962854 9.747280180682358 8.199416699241132
Cr 8.416748543886706 9.375803072619298 7.645777368307709
Cr 2.1334395218500286 3.9870604941185626 7.594998246415505
Cr 4.536438268926537 7.381643039808967 7.912520753068376
Cr 6.284215292830555 8.147808067785595 6.493271669179468
Cr 3.997245842291232 3.4199104716763085 6.272778658913898
Cr 8.06817098406183 6.174802732900038 6.19695840365362
Cr 5.4923572081260135 5.384337556864663 6.56071272953337
Cr 6.762197542417847 10.593426268804429 5.860632405005078
Cr 2.880023098873325 5.851235155543879 6.3026242997314
Cr 8.12779769742237 2.0111976113020353 4.21672555232663
Cr 10.428500973081112 5.538178779653501 5.7895008309487315
Cr 2.3323978736668254 8.489574905975402 6.9909907022679425
Cr 5.4801250158317005 2.836112444781351 4.275368344866425
Cr 7.253920878232525 4.420770903467642 4.386669999843562
Cr 4.2211298266238915 9.757629792504556 6.554266991833639
Cr 8.201053817195763 8.718093006817298 5.292447796601962
Cr 6.972709242253649 2.663902935999737 2.4561812761411574
Cr 5.438530019775697 9.139434430670567 4.395280687875274
Cr 4.597025221673396 5.1379379978986455 4.23755896828486
Cr 6.534427696709654 6.79939059130982 4.544501638393933
Cr 4.046814553436812 7.4271067100802775 5.350088288104856
Cr 9.834078332566692 3.7661936845867934 4.337274559169978
Cr 5.7203583227614905 4.609696809609429 2.2677991776223094
Cr 9.164721909678468 6.454957755018457 4.068006220400223
Cr 8.588517239916028 4.417378324661203 2.6206530497173612
Cr 7.649510499052086 8.396201211022655 3.1679936477831805
Cr 4.975910209550954 7.143230557460575 2.7942333938345763
Cr 7.13989478609421 6.32621956564876 2.1177730108095254
