44
Energy = -348.77671692 eV
Cr 4.41657692414205 4.7997246641317135 10.172181939767018
Cr 1.8238542952075658 3.7550247833665042 0.18078599623832337
Cr 2.696120111617293 6.84510508205503 0.6034970844080173
Cr 6.181908483603878 2.6857711022472963 10.347416522111095
Cr 7.007963750576211 5.598000621377915 0.29290507066496063
Cr 3.832355080903759 2.435964983243755 0.7793460107515983
Cr 5.070017029244996 6.633046269230303 1.2871350063063227
Cr 3.1375638660019183 4.957342441870893 1.715476447602197
Cr 0.8293955958274132 5.248936186769525 2.433431072766984
Cr 7.381887048640296 5.676079395552225 2.4859193310822287
Cr 1.575000542779784 2.849552594865704 2.31690447340258
Cr 5.6551853491983435 4.04732930010153 1.7051274656049782
Cr 5.851360200986821 1.8166959459307466 2.4664827420819972
Cr 3.103681034845202 0.9844227749343417 2.5668085842779047
Cr 6.244928953508213 7.684453250609607 2.9875827470871594
Cr 3.1225697078484442 6.890014130022324 3.428833923544703
Cr 7.984478489335226 3.4970691118977437 2.118166433661332
Cr 4.0015276127289585 3.2035455310593095 3.2764535905252856
Cr 0.3678473060524179 3.2049727613188574 4.555763606107216
Cr 4.829298568663483 5.647637303201788 3.786081145554572
Cr 8.860648549226834 5.004603719077887 4.222902370187099
Cr 2.1567274546870867 4.71709879874917 4.120869812249162
Cr 6.510014214603791 3.752397681594779 4.318883509590947
Cr 7.599499255860411 2.230041259829314 4.845006765264424
Cr 7.319284529261749 6.446801200606945 4.9472627722144775
Cr 2.411714821678516 1.9276026617021984 4.737238751189331
Cr 0.9630039442313799 5.882340622557549 5.800416555362289
Cr 4.047295966813873 3.76239811032906 5.457738181198981
Cr 4.922845217469145 1.5273021648583422 4.95886665234677
Cr 5.065569067887213 7.5070072813216795 5.4058842740032516
Cr 1.746847160420566 3.819655189813294 6.555077765386159
Cr 7.731782584410263 4.299463262856893 6.548431393129992
Cr 3.2294931916044893 1.886998163143557 7.078643686613377
Cr 3.1904139874692214 6.178801872487441 5.926097856414548
Cr 5.642586012376861 5.392384872265511 6.471863612615585
Cr 5.915525843288458 2.7395072699013774 6.895948252233708
Cr 3.7807541908733113 4.328015253866096 7.721889454764327
Cr 7.270052809591087 6.9934588966672235 7.167480909554612
Cr 2.014013542388371 5.784914646803647 8.402442280613332
Cr 1.6864960042270116 3.40172680493098 8.93961467487814
Cr 4.338671001983664 6.866780807406863 7.978267709852813
Cr 6.1141236191664605 4.529592951226308 8.737480327300073
Cr 4.214734023792404 2.954315029305698 9.398697855247017
Cr 3.573216626581681 5.024936816516379 10.172181939767018
