44
Energy = -348.58839376 eV
Cr 8.107726095964198 4.346994212453549 0.42925560533610335
Cr 3.7028425121414306 5.795965799201246 1.8234086080385983
Cr 3.785684424821933 3.2981033790436043 0.4076374436410192
Cr 5.426301171483985 5.021742111572615 0.19545163597609652
Cr 6.735086780769587 5.656708706810346 1.97994558427661
Cr 1.944595494134502 3.8887719546578006 1.8507766794172293
Cr 1.0035045781353338 6.130486366521508 2.9913472119884106
Cr 5.072425749824337 7.545462035026515 1.517940101330432
Cr 3.46316410554991 1.4629759390790587 1.9403279470050432
Cr 7.0961901873365605 2.8620773907633024 2.1056797895212123
Cr 5.864151236616918 2.147768853894714 0.7971121857016101
Cr 3.215806676692929 7.811404279917024 3.844503834404101
Cr 2.808924131524694 5.186790695765398 3.891271606430831
Cr 3.3041334201158157 0.5019161198208908 4.60658646005723
Cr 5.29602921642195 1.8618248207277242 3.9786685053614574
Cr 4.700301708953327 3.8293150593897085 2.53889435177409
Cr 2.796830472200071 2.7390014630710255 3.9496771337667114
Cr 8.809760481408075 4.446829983433573 3.137605616256191
Cr 6.812750606354516 4.207194574811908 4.244911140742815
Cr 6.059730411890769 8.164401081446004 3.486742204679039
Cr 1.0819866957171052 1.8269573340082461 3.1701375626999093
Cr 5.1924067718165166 6.140646471712049 3.8407766603656417
Cr 0.4606506729979586 4.002842044732945 4.254682084529126
Cr 7.686699553668203 6.61781277449251 4.502287195412493
Cr 4.623061669374868 3.998852090969303 5.195569812988749
Cr 1.137515095234286 6.455445072714331 5.458161305503844
Cr 7.660986998222777 2.0501408422290037 4.5529562689348895
Cr 8.247061107046896 4.342870877238954 6.133029470083791
Cr 5.467412066221706 8.027259879765285 5.783092511967141
Cr 5.708298584214289 0.565822384942224 5.856513435267894
Cr 1.267416768225105 1.8492865101383067 5.84816514995956
Cr 3.7045388426636734 6.26236902074796 5.889161803925411
Cr 2.211848230757056 4.180337619266866 5.978516491065206
Cr 6.189562902505857 5.647023749570813 6.338827936111536
Cr 3.708483728414558 1.9631124599538095 6.267861418688506
Cr 6.295938814769202 2.9120396732084473 6.430905185424993
Cr 0.21116483537455197 3.948728136597617 7.325353967500482
Cr 2.9754890108870367 8.015758513448809 6.691119283678345
Cr 7.634978097930989 6.970665177478764 7.432074282177062
Cr 4.242503837814028 4.349681835174148 7.641585592343449
Cr 2.231955231286334 5.747500019193284 7.940386120915411
Cr 4.810172356218891 6.639633211691175 8.154522324019643
Cr 6.498978110662042 4.3807292227436445 8.331188026161655
Cr 1.6727514424855372 3.1265511374248396 8.19318335142147
