41
Energy = -322.10911641 eV
Cr 3.3003907191540574 8.74570259862007 4.147713602523306
Cr 4.361225133596553 7.417965779841353 2.690173651992078
Cr 5.648915598631437 9.393247603861564 4.379861962361858
Cr 2.7371182626983006 7.869527621319718 6.156859523293575
Cr 4.70698823485271 9.163137557425488 6.42692724331913
Cr 7.143318979940954 6.206713680316161 1.9223598384105238
Cr 3.1454528755537146 5.930754687298254 4.566843041418096
Cr 6.507791974970544 7.515631594755789 3.4326171470725093
Cr 8.456787281158945 9.502534561612872 4.894611024724611
Cr 5.245200806599325 4.961534292020412 3.3852818566427114
Cr 6.744588271965422 10.142692123164462 6.933022286101574
Cr 5.493903566755164 9.621592090059073 8.99573529086216
Cr 3.4403506397689667 8.656510570631134 8.659011965121056
Cr 5.10813337335422 6.881083518783802 5.321605921787007
Cr 1.8477385662168637 6.774022671073255 8.138511966572487
Cr 7.3272662977674194 3.77389119621967 2.5741418654536283
Cr 7.654466045152347 5.496012313471607 4.561077312850108
Cr 3.4401016434723557 5.434802191282748 7.02464889877251
Cr 8.93665999052788 7.4820869474718785 3.7516089756231956
Cr 7.084719079040475 7.728083674664924 6.024713113839186
Cr 9.563924653969806 5.335237805985147 2.448252268524716
Cr 4.986364290219229 7.066071520442128 7.9660584652466415
Cr 5.127212978901483 4.3750087315021755 5.839642321456137
Cr 3.550287889705783 5.924515990716906 9.632916793157627
Cr 9.152695001441762 8.890707838342147 7.1882715988046915
Cr 10.379333659821889 5.276688430258596 4.388302679305878
Cr 9.521636071732425 6.96206641440614 5.806655726200105
Cr 7.0902403886501215 8.027541453745531 8.492046428107333
Cr 6.732906654223201 5.438244485361529 7.002038361934104
Cr 6.858861174806209 3.417714463296209 5.087561250252415
Cr 5.318245347477744 7.675439075844587 10.471206270270933
Cr 5.074671396768795 4.455576251896795 8.605168662487673
Cr 9.173156925651133 3.139487455763387 4.088062184532852
Cr 8.878902988283706 4.414803557152948 6.358640085836089
Cr 8.657852123329432 6.367286482037853 8.043282809091334
Cr 6.760498627581289 5.8391593147091045 9.656640106947574
Cr 6.207262135453244 2.7985554109902337 7.471963437927017
Cr 5.417854175118691 5.1708784572274755 11.065348735710367
Cr 8.29914862992494 2.419023755121635 6.570754429983078
Cr 7.70131559722063 3.8547660099013448 8.59591759017447
Cr 6.105395677748677 3.342583550612892 10.122827034517156
