47
Energy = -361.14099467 eV
Cr 2.4827292568763357 2.3268497970415787 10.92297170742441
Cr 5.301780369176447 2.5491286544564042 11.109133049546148
Cr 6.00702023992233 5.005008897549416 0.3135878470800064
Cr 4.317485147353972 0.21953465702260178 0.5438152434632142
Cr 3.7095795534909803 4.345994724281793 1.1114560601654377
Cr 7.474134258454883 3.5227080937063784 1.3343864423096985
Cr 4.442597362095074 7.036632824575467 0.9536984602652936
Cr 6.876114171094624 5.939661862230762 2.3379497769458473
Cr 1.7189280666978395 0.31037949173580104 1.9213027842183277
Cr 3.6428071684241914 1.934786261946728 1.8227438302982701
Cr 6.24874660376372 1.0109693473558137 2.045933344087439
Cr 1.4916107452632152 3.149098085794621 2.3758061442295544
Cr 5.694998349792179 3.469377716216899 2.4323760539907804
Cr 2.4193224323471734 5.602998937849478 1.6141791537583465
Cr 7.832970955230439 4.109388267754426 3.947395031318197
Cr 4.757832439417366 5.848050159963286 2.9088968189108444
Cr 5.787391065612614 8.250001552103079 3.237157478688669
Cr 4.114553823184945 10.673594201830753 2.9621069370864364
Cr 3.233509996798483 3.8684598132468873 3.6885848882880667
Cr 7.293021117610121 2.5391792638342348 4.212496757103388
Cr 3.214745983558938 7.989017063262882 3.002074694140696
Cr 2.2748521260092267 1.3508444004321984 3.9769451957211266
Cr 4.730883462747534 1.9069150048441212 4.041731788011857
Cr 2.077967421208492 5.95259305575405 4.014056413008277
Cr 2.216101176835442 8.020674320026668 5.707909055819548
Cr 2.2867076052987825 9.795254289481276 3.86365243359677
Cr 1.530929914090929 3.440323991448748 5.245409059060905
Cr 1.7507355832590636 8.274621503615993 8.359354726554907
Cr 5.942885563781125 0.05019370102839939 4.485708060615594
Cr 3.7106348571115486 9.57367229778534 4.486192291512223
Cr 5.275319034137744 4.278673349883303 5.071547485128255
Cr 5.9985553669766745 2.007420577367837 6.3742126455447385
Cr 6.669578490071899 6.305791899937308 4.753702895339954
Cr 3.551413807070623 2.4495483367924233 6.030986506343076
Cr 1.2615795478390572 6.0404068898707255 6.8996149011534635
Cr 7.220944191354807 4.094824670093286 6.4797705141735475
Cr 4.187472893565103 1.4682844927449543 8.236910039731505
Cr 4.335760293456392 6.982911017281441 5.041921697154751
Cr 3.6681926169490504 0.06604107968414819 5.663757591387737
Cr 3.1868263955734615 5.1489861394501295 6.182073624925321
Cr 3.727938914121198 9.795254289481274 7.198800246181213
Cr 4.896853142294795 3.837089690653538 7.839926040680644
Cr 5.493856585958877 8.713344876516109 5.86450685134481
Cr 5.830506662910012 6.0337737875351545 7.061485963393885
Cr 2.4640635403272437 3.5674263136890665 7.851727817029586
Cr 3.780523662017547 7.3153112098565085 7.66800164845261
Cr 3.61841108628999 5.818691077243947 8.791733941071243
