43
Energy = -335.45248227 eV
Cr 10.472105419984938 7.64368690461437 5.271036867517513
Cr 10.674094708461283 7.597472043067218 3.21145252674182
Cr 9.506897703382494 5.717610299262698 6.4544210715202075
Cr 10.961645682387687 6.422725124033293 7.9976530874450384
Cr 8.204183840381432 10.062143372163828 6.26638285118208
Cr 7.393006942874252 8.674658826814607 8.513516076248523
Cr 8.770681994777163 6.558771982437656 8.840476710148687
Cr 8.31737823313326 6.6773276975000995 4.243726229430562
Cr 8.615422592966462 9.085752426787531 3.9221042448751917
Cr 9.861746203738358 8.475341868876379 7.454298545232988
Cr 9.272319997834343 8.606494870502486 9.626769271872735
Cr 10.247377921982915 4.993909242652671 4.219996522006675
Cr 8.7345951522562 6.473364803433762 2.2756127725954736
Cr 10.331569449218156 9.975043397410445 5.228240665609932
Cr 8.631856501420673 10.833870345603678 8.40787138008745
Cr 7.932132312556685 7.729352749996659 6.363746166895142
Cr 8.527811381528977 4.040265029738462 8.723240558646426
Cr 9.134369003734847 3.2712036188910893 6.332693361383002
Cr 7.978774920716713 4.031770350690527 4.865593144506259
Cr 5.700207988051075 7.4147264114464475 7.0547392783849086
Cr 3.657775675856314 6.484303884998915 5.6680331142928635
Cr 3.742574124155423 6.76840024231392 8.496067566055704
Cr 3.146695811441908 8.189582557060652 10.763292450000616
Cr 4.050128463860174 9.024175788125676 6.890485417345482
Cr 6.9306156839404345 8.015897304582792 10.88828751362324
Cr 6.352361501224085 6.29375514606179 9.051457513815377
Cr 6.077889610173299 6.175029610172768 5.166957196102417
Cr 6.079293532354492 8.788706954022206 4.899686010936265
Cr 4.941373356186296 8.635449754958223 9.231049544240452
Cr 4.657548585321232 6.475861043024756 10.865650611465341
Cr 4.778011989296596 4.884390483325096 7.356599930199904
Cr 4.11507625503557 7.072223610945065 3.8315181369887292
Cr 5.8007334413974245 10.10785685073056 7.055536077571461
Cr 7.310871698374409 5.217084551259664 7.0255256335135465
Cr 6.674347674269881 2.8107501304971954 7.058249550821496
Cr 6.270050193954282 3.9785686174190373 9.112570656291197
Cr 5.462643708174413 3.9297053908350272 5.430294363576534
Cr 8.030200904373315 5.607071635883748 10.78855563371638
Cr 6.339184661909607 10.355583649737559 9.715848736336063
Cr 6.824828445307567 10.762174373258361 4.56518488122191
Cr 6.2161901961286725 5.317990898957601 3.077294334120746
Cr 2.0304240117443366 6.203752025925106 10.066203228940996
Cr 5.423928146970995 8.797119752818274 11.90300618933076
