49
Energy = -382.80941641 eV
Cr 10.882895640592356 5.45124141857704 4.1738100332501915
Cr 8.864686675823371 9.768728564104617 3.12295256351432
Cr 8.98275411306738 7.435129022361145 3.340703145643275
Cr 6.101036226401858 4.77188942213712 6.009892858168844
Cr 6.6389440087954315 6.88700001568727 4.535685169253717
Cr 8.49063393552061 4.9585678123453185 4.895906291300435
Cr 11.564343626539225 7.061860824410505 4.727409642487674
Cr 10.17391738895928 9.351983917564903 5.010880587184071
Cr 4.9039222359319545 8.323967926739247 5.47245522574942
Cr 9.20822768702709 7.118492885611933 5.577929919623173
Cr 7.471294841350403 9.140687571641436 4.864023775957179
Cr 11.262500183150415 8.43688438462276 7.152754488459106
Cr 10.123972019226109 3.3147335739313295 5.461901797310371
Cr 7.022601790858168 7.308796299517461 6.858678364782947
Cr 10.53926328733082 5.402849240535814 6.847791010847049
Cr 4.762225845752162 5.965017325184239 6.476510841897277
Cr 6.0363965274909726 9.544456035661556 7.1362584654743095
Cr 10.554533047736948 11.194951326934723 7.109927737432588
Cr 7.916908008544039 11.340108414958944 7.013055343158273
Cr 4.9016406761518105 7.840035242930898 8.27893070175606
Cr 8.704269238985122 9.341298382350207 6.7787456902942
Cr 8.040409204922735 13.599932687740802 9.176528278276741
Cr 8.499946019287192 3.1805097280649868 7.125344356553473
Cr 8.132159894377406 5.307212098082872 7.350787748708238
Cr 11.614903250723598 8.608927264658277 9.489072899757486
Cr 11.755428113891321 10.981294165515276 8.496515499066863
Cr 7.318539777251645 3.339029022800073 9.41639825372282
Cr 4.718263897913577 10.420769655057265 8.918181533798467
Cr 6.007310650547425 5.143175283112312 8.715142866028625
Cr 3.8512808250930695 8.924873751510171 10.005051685836657
Cr 9.52109107088534 9.7974199715016 9.039196960636279
Cr 9.382004437298772 12.340963581750252 9.254347479177271
Cr 9.429016301419615 7.4526227391629645 8.230246729827446
Cr 7.3292584817718 6.826376354784196 9.550890319121079
Cr 7.2363721486203305 8.999872819865589 9.17745095945747
Cr 10.631146642829487 10.83041159037867 10.989710560297146
Cr 7.026160451662558 11.30784021821265 9.444220126489057
Cr 10.984958934116666 6.36283180878422 9.504395396047656
Cr 9.058785668751629 4.925510181042212 9.431385908003666
Cr 7.097210879596828 5.091772305727799 11.386578481004875
Cr 9.30008113251198 8.12063949097393 10.728345621688085
Cr 5.303930405366778 7.172930022302364 10.837490903793654
Cr 6.304514478168056 12.246130021262037 11.149451122721164
Cr 6.96826044674905 8.224236810799715 11.760277668110875
Cr 8.65466923856362 5.997165354100561 11.74628435462472
Cr 8.352908835987623 10.509009483963645 11.306718013549371
Cr 5.812826335547393 9.830836574773295 11.231508669486537
Cr 8.715507352639989 12.757130117588643 11.752580502081724
Cr 7.087719854790168 10.983529025197026 13.181325185110442
