45
Energy = -352.39697483 eV
Cr 7.754162891982363 2.2426488466970107 6.872014966567161
Cr 9.718055351200412 4.171839136038127 3.7730020887429605
Cr 10.098488940490641 3.1179179294095025 1.4339619623219648
Cr 6.266924775630659 6.086521367147914 6.07698565579316
Cr 4.151591336035892 4.612685056271981 6.887243838685403
Cr 4.201464846564585 7.296780129898403 2.7511512010874246
Cr 9.334234508078191 4.45710771318547 8.113274949759115
Cr 6.179548256232098 1.4381007782983968 1.884255527988504
Cr 2.793734784217953 0.6633869557000186 5.198121665649759
Cr 2.0600630937610744 5.872523381976041 7.211724265684413
Cr 1.592059868280696 4.4235610819496305 1.1852272311030239
Cr 2.8712417861129325 3.6368002797833916 3.0100293005243657
Cr 2.2381215215249246 8.255615714555791 6.8677334795388285
Cr 7.208552431309086 5.068898704056009 3.850833529196358
Cr 5.515017128940532 8.561005955061054 6.0248492187727605
Cr 2.1209037384980554 3.0289366403594684 6.747854133693923
Cr 9.718055351200412 2.8450948525326205 3.1786146707005747
Cr 1.2162175395209225 2.3549533905581628 4.443693149442646
Cr 3.7023142251653813 1.1517038115858196 2.8792009537135304
Cr 3.7656908956279076 6.870135492878251 5.425494595618288
Cr 5.647382319018967 1.2612916682334379 4.656105677832576
Cr 2.578844808114974 6.218370052534881 3.0681223496672807
Cr 0.998262508212046 6.941596603698748 4.934531252590101
Cr 2.15751187228664 4.770632757383641 5.193537109553289
Cr 7.803352561352782 6.814423640134474 7.357717501168258
Cr 7.9800072492494305 2.7126246423083855 4.176844622977622
Cr 3.770720133699282 2.46496115341949 0.941984709178884
Cr 5.557813983629421 3.107215593281032 2.975997219370461
Cr 8.876636662210945 6.328781949168091 4.74676363260726
Cr 6.360808450917858 4.4653560425902405 7.885414771913012
Cr 8.44175572695703 4.496546266120875 6.234940842744302
Cr 4.595454819285748 6.698819662095788 7.7694045022522396
Cr 5.9994228508065435 3.198225075003814 0.30562557022207587
Cr 3.1506242877154365 8.768507050969347 4.42679362773897
Cr 10.623231225719982 4.327236177753809 5.427853089289585
Cr 4.734357617800469 2.2910124422487486 7.166788537124957
Cr 3.7820380157806137 2.7052242227043126 5.006740492131499
Cr 7.906128330416743 3.8327861207230143 1.7629276727580048
Cr 1.391409298011935 1.9089496654181322 2.2962096101948353
Cr 0.5528452001038779 4.799954852528666 3.1487704877383615
Cr 4.6430516046121015 5.016737814043502 4.256460982980299
Cr 5.91417279318544 5.480518328497792 1.7806658677220042
Cr 6.136798744615063 3.4085953662857467 5.6323599443043575
Cr 6.211424997661954 7.130209161898091 3.8882184854387702
Cr 4.1876117380785995 4.982087849960784 1.430836432864737
