41
Energy = -324.2167838 eV
Cr 4.159318539756542 9.092230121518348 5.875557906078711
Cr 3.243082746564685 3.9604844431553503 5.145251680363209
Cr 6.657551464159946 5.49767321987648 7.406052501230664
Cr 1.9208858802764965 5.025152021763484 6.990820563779218
Cr 6.4228035589466925 8.988128775230036 4.478685499675006
Cr 4.297531069505412 3.543882877654328 9.407776707581336
Cr 5.823025116792326 2.36583979379939 4.499464799536298
Cr 9.165128787531858 5.047366317673876 7.4488796798901475
Cr 8.192750373732789 7.493516512269299 6.226315256395563
Cr 2.6307551956310844 5.365398936548364 9.271974603276295
Cr 7.315079756220103 4.987498002092318 1.3961722322649224
Cr 10.036090148950187 6.047212588590821 4.961525102334254
Cr 3.5180862902190215 6.672411496256346 5.595403752653219
Cr 7.815433450816518 5.330272402836241 5.254967382118635
Cr 7.429741352360188 3.1634551697768782 6.126787504808156
Cr 4.500178780813116 8.105284816618973 3.3516117371124006
Cr 5.404699805889453 5.868810482921354 9.682385837204873
Cr 7.884545395051794 7.261903654165406 8.50268412979547
Cr 9.65353155850824 3.4628991538234426 5.169182017406393
Cr 6.586770749931119 9.281704683225465 7.14346056193391
Cr 7.543680962740068 3.8375651100258867 3.441752948539601
Cr 6.473758806556841 6.324963847894567 3.175528381838557
Cr 3.9319390837743686 5.8102240123050235 3.4419199450370583
Cr 8.453612722245984 7.597195612619391 3.9229321248076063
Cr 4.780416456262968 2.687559091789786 6.697679229151549
Cr 4.224877675136982 9.61354164126039 8.6986089900748
Cr 5.052560192230869 6.484385313148605 1.1464172792026797
Cr 6.479270140284816 3.467448231848974 8.424323802746327
Cr 4.461679360970215 5.057388912465813 7.215807784708279
Cr 2.7269066378784936 2.973454845734638 7.629132841753294
Cr 4.9848952443591426 4.05093514926565 2.454741131670336
Cr 9.277345772157945 5.293391729061323 3.1977244170114365
Cr 7.5372968183881905 5.27335618661996 9.919360442769884
Cr 8.525754033858732 7.197921503260316 1.6864269233131095
Cr 5.792206640584184 7.096134479729033 5.4607671934797155
Cr 5.454654475737529 4.67582584550792 5.07565829974487
Cr 3.0298976657448358 7.356957009680587 7.576464284128563
Cr 6.766612206158618 8.326313172232357 1.998185336454242
Cr 6.219378185394992 8.201056308179037 9.949397286245178
Cr 5.176874464852102 7.523978077115041 7.684565473252072
Cr 3.544175746662738 7.5587417063638656 10.138084222089123
