49
Energy = -382.16136758 eV
Cr 3.4877606218450143 5.302622459205119 1.8580324834290889
Cr 1.8501279683919976 3.8669168291799485 2.1800233339220094
Cr 6.066644313442225 5.814953912475164 1.3170249839016195
Cr 6.257074384963493 7.731063587809003 2.933692390459654
Cr 4.466887742134887 7.410999138446807 3.0958234570218677
Cr 5.995811610468771 4.027459742462887 1.4070024731193271
Cr 7.85270963882451 5.285871939222393 3.163530661352451
Cr 2.284673439665202 6.190405181773858 3.8191429199695928
Cr 3.8159315789802735 2.6284052755711906 2.3096652849748387
Cr 8.73824487974566 7.514151437790126 3.5801990397728
Cr 7.496663066246371 8.690821361553255 5.052983743170074
Cr 5.104437081210487 8.788002583407616 5.246513444968317
Cr 2.04654555112884 1.75604180349598 4.024175181418324
Cr 1.0695092726053292 4.0575670081302615 4.325564915568372
Cr 5.327601257199247 5.0986404163638595 3.694377024348096
Cr 7.344184165157447 4.087149000930044 5.507025009337161
Cr 3.5125706947063278 3.9429993798634455 4.269850601249671
Cr 2.6200600619657948 8.516484302084459 4.61337882824349
Cr 6.680996938471051 6.4090225720308025 5.152221396004936
Cr 6.083781080029128 2.9377121554464507 3.8290268668202136
Cr 10.810018322599516 6.814186233800012 7.0162727188114955
Cr 0.4553359257470345 6.5394555423482155 5.179912453803797
Cr 4.2741668684142216 1.6580745931488325 4.730892968667891
Cr 10.028723241426608 8.797769619345102 5.774713408433579
Cr 8.969806856429347 6.2932501572184725 5.481398222018154
Cr 2.353254615589738 2.6732115736221944 6.266556713368915
Cr 4.038439280609146 6.495846078550147 5.5658817053066
Cr 4.4425479445530005 1.661710226351448 7.120003215068883
Cr 5.079461769603264 4.369342794709214 6.364488734672157
Cr 8.15043983018489 7.78147512514583 7.161331015931776
Cr 9.694534426451982 4.419821574486312 7.096632513820306
Cr 6.7175197731664475 1.5018467456905178 5.744829824018321
Cr 2.248485415894997 4.9209508396763555 6.400965362866009
Cr 8.38689287506988 10.412940327718593 6.530052049710219
Cr 8.335221753920713 2.6732790489295004 7.407907067358661
Cr 10.252558975643186 9.173926353550979 8.26570277886662
Cr 2.025914512515176 7.532650968714851 6.5724948998183095
Cr 6.452247873829422 9.429107945156698 7.41556737364237
Cr 3.927451581609195 8.737379276365013 7.164712992417269
Cr 7.513192620092738 5.297665695249095 7.462309866030141
Cr 3.5146880011659856 6.252203486967572 8.23941362876362
Cr 9.500858446156085 6.634427921723139 8.715157862197609
Cr 3.5781375007993788 3.626062572505357 8.376443705569534
Cr 6.218698338426655 3.0808369741307216 7.872560698710268
Cr 8.659579066349089 9.342853761372108 9.06066189026893
Cr 8.00075237264407 4.308031802906662 9.5052515799015
Cr 5.561036451388026 6.986650214704365 7.304149103376911
Cr 5.430149809526292 4.946955421308588 9.103983696380055
Cr 6.748037287662501 7.0511641220126124 9.190864995799936
