49
Energy = -390.6392551 eV
Cr 7.591194731360959 4.320505200675459 10.414185839919885
Cr 6.989607516558297 8.169275961655227 8.12782213618393
Cr 9.315681502331623 7.84373367466542 7.855308846812096
Cr 8.29641276476895 5.758533949247001 8.417019053756386
Cr 6.071967595732018 6.32433664917131 9.539401594135308
Cr 9.167998160156579 3.2307788715889987 8.370714008547637
Cr 6.888787729071586 2.4857121041262173 10.157237765803657
Cr 9.996141368391323 5.374080979673386 6.826810602849685
Cr 6.499587605669897 10.399982134077936 7.601222558363263
Cr 4.68346171634416 8.447234335069915 8.164289749676787
Cr 4.887344817595812 4.181036002751844 9.569616002579712
Cr 8.042036231764396 9.03356521367442 5.83930758906862
Cr 9.55940126958493 7.486385164646928 5.287727349851784
Cr 6.604763758880512 4.140061303784087 7.874311841295623
Cr 5.293385792204215 6.221977769891084 7.15883375414031
Cr 7.5818482121416215 6.470864864639625 6.2798426040229804
Cr 8.098118428811008 4.099434035362636 6.021818795928312
Cr 7.762178990232588 1.8762488962750343 7.686318010802342
Cr 3.442216182519856 5.934199130974162 8.403887592784365
Cr 4.235060009367393 10.390887656801988 6.754975602023598
Cr 5.91295525649768 10.600230726059625 4.960991554291136
Cr 4.919220270480594 1.9169799365854705 8.521447631669703
Cr 5.745250470680451 8.462029191805241 5.788775244902591
Cr 3.1146844045903817 7.771638905469645 6.50134382033481
Cr 7.70579326916182 9.337261686608956 3.8213255109888244
Cr 9.120285019626289 5.299029372681639 4.136972836070677
Cr 7.155163385910572 6.894813239646602 4.100193877947717
Cr 5.401246398536685 8.672032905795371 3.2361774296682286
Cr 8.750360499309807 2.329388342555743 4.914724082815087
Cr 6.014692043396714 2.13145796600463 6.120967871507594
Cr 3.5453246585907645 9.201854953595674 4.738082585725051
Cr 4.473412824285129 6.592264944113261 4.473383924108369
Cr 1.0548817156297963 6.189188852933569 7.000720303756116
Cr 5.8308452156332855 4.654963823001379 5.167344425205607
Cr 9.1327464098288 7.526974186623469 2.6523530449967065
Cr 2.206842479683483 3.5024735712266186 7.55320671162191
Cr 7.411935389672272 4.273775735132423 3.3731847271045665
Cr 3.1450694023952908 5.292110033941325 5.908236363391015
Cr 1.8520781201378578 7.098478763920454 4.578910453614525
Cr 6.186874851605884 2.199489007554576 4.152257797751929
Cr 4.369557982382712 3.676795282930605 7.110096314966625
Cr 6.578661907028912 8.130137497608954 1.6119625639777675
Cr 5.6152724458854255 5.968336789241953 2.5604038513729375
Cr 3.4214317724813044 7.666786430253074 2.4084825925740176
Cr 8.079766286206945 6.052297630909195 1.6873841458987124
Cr 1.3664535048472934 4.46593233783941 5.099027170780033
Cr 4.598675281996636 3.9458827329285917 3.1662131652751926
Cr 2.8855847589611505 5.147991780825416 3.2271827293706346
Cr 3.614889793156255 2.930978921983963 4.953611760045188
