47
Energy = -364.35708845 eV
Cr 6.001531365897975 3.6294068766230376 1.2365293968981925
Cr 4.201051554811018 2.0939096385731015 0.8955905657451241
Cr 3.2273345407957876 4.283284812759983 0.9858308705061496
Cr 4.88018826036448 9.972251478304809 1.8446761751540948
Cr 0.515573693079553 4.537385533663499 1.3543617617503627
Cr 6.250305520015728 0.9633955477027065 0.4296819856918049
Cr 3.7257335415987916 6.796219317193674 3.64361643499923
Cr 5.523542729123475 6.098877516542732 2.4023195687768846
Cr 2.615064137433058 0.3757972672960259 1.3318140221054708
Cr 7.060203850307509 3.902135618525332 3.431483127846723
Cr 2.4588249245918625 6.769695470604241 1.7321060435373683
Cr 4.253189804130363 3.909255087733988 2.9265089301038096
Cr 1.8321057985924691 8.44076170073637 3.79407628274891
Cr 8.26444096913944 2.381507802015769 2.297812757417407
Cr 3.6912704089551593 1.254203949488369 3.3359862674248504
Cr 7.05855390056775 9.94440961491744 2.8355795021396184
Cr 1.816459449041558 2.6670117495322128 2.138295329380963
Cr 1.6962941491546422 5.100276784037663 3.3130163472205636
Cr 0.07074890169955472 3.2315665116351227 3.7677436172150025
Cr 3.6175158467394555 9.179335074567398 3.694324662281219
Cr 4.469707808430997 8.811690828396095 2.733646441028911
Cr 0.03993369774802312 6.271155701293592 4.0052902048046155
Cr 6.013904507368368 1.7353872192937962 2.7118825753333216
Cr 2.498685671565165 2.91272979737042 4.575094167689064
Cr 5.551761763360359 10.391201239521264 4.613388128617529
Cr 6.114718191870627 7.923860959015224 4.286287413196727
Cr 1.4053616542248237 0.732189158470074 3.8408058625788906
Cr 5.0452801550921 2.8671097979512163 4.947607033467125
Cr 7.92024102319698 6.00808128458348 3.9077243262620365
Cr 5.659666308231453 5.401620856094251 4.684692345178765
Cr 7.244522073232721 1.5413120731160959 4.788588548389792
Cr 3.686733692990316 9.120709631828502 4.98417384111279
Cr 3.4290730712666844 4.950843391688976 5.318313160007186
Cr 1.8799178258049318 6.973063944226039 5.621515564009908
Cr 1.1133204877306202 2.0510423819115147 5.927067507574282
Cr 3.5551520941442116 0.767324442307585 5.685766767581257
Cr 1.1211012114095145 4.585636991753158 5.953256886165992
Cr 4.487916344021757 7.053334743526074 6.214440313955557
Cr 7.165902579822817 3.956886213583337 5.991507735515341
Cr 3.3856387255876106 3.1708948796756884 6.957796276520204
Cr 5.641441873865377 1.8921161237966564 6.77182061005843
Cr 6.822952274322857 6.631726932181349 6.368984934015053
Cr 5.6959856923789225 9.179335074567401 6.278487108443888
Cr 5.268248807131675 4.712067108747184 7.24657253435176
Cr 2.80493486812237 8.569539200136505 7.116760878233427
Cr 2.988964876439211 5.79311767680738 7.591058509725293
Cr 5.206698662143945 7.072757807743589 8.463815964782196
