40
Energy = -313.17770113 eV
Cr 11.028596064124084 6.955173493361892 6.990847547390234
Cr 6.227636493596335 6.393104482121321 4.046053613747008
Cr 10.116098018149698 6.134189573304368 5.0643297699574825
Cr 2.6110568835085552 7.76453348124541 7.822077644592543
Cr 5.536507843672177 3.4021470014228723 9.521496345743556
Cr 7.6586282354821495 3.194920189497859 5.068113357980123
Cr 6.336754398772507 9.53315495292134 6.54758190269306
Cr 7.264377814667722 8.225967320625188 8.404237455049676
Cr 10.013466001407423 8.707583977226813 8.149736328109595
Cr 5.237587213628961 11.01040950541028 5.273703727102501
Cr 8.52729729112635 7.757307785848623 6.452537172966676
Cr 4.936541094373269 2.5822195125693783 4.914778423440281
Cr 3.950292999867886 5.017669113834669 3.739709627237818
Cr 3.8039192535455566 9.018668844960018 6.583949160949792
Cr 4.054146738224166 6.0491361854122 7.423022539024867
Cr 9.190260476749316 5.218698285010806 7.386032110200145
Cr 8.31283169550439 10.422512501760384 6.938724814444922
Cr 4.203938151492923 3.833206067464739 7.661037047095967
Cr 3.79580290914754 7.138986288530369 5.323167754518221
Cr 9.90589518467774 3.91478684375507 5.046672545484277
Cr 8.766515351213412 4.74019270639293 3.187959226218843
Cr 6.462249030450233 3.9548066534523514 3.5392466928157145
Cr 4.934472514628649 8.055011660438932 8.685213340554453
Cr 7.799422959478044 5.430643754484889 5.431406282941527
Cr 5.5534282816288645 4.568408850255426 5.925080298659873
Cr 5.02776248531826 8.812605199417344 4.0995902794993935
Cr 5.894256251824231 7.195557021932577 6.036250674817125
Cr 2.954596596608987 4.556920971605508 5.409734717904131
Cr 6.928485221520507 3.6147451335342624 7.561037005723522
Cr 5.485507910155819 8.860533471599698 10.590575568566715
Cr 9.123465795908901 6.778918848239491 9.039359022050341
Cr 7.35312179616688 8.869785858429317 4.593415217349005
Cr 8.745889566592727 7.279993527017866 3.6123710684829176
Cr 6.7975163341054055 5.876258112010363 7.941000865268731
Cr 5.698779403720133 10.538319751414747 8.447919167053106
Cr 10.2274365288645 8.820026978339074 5.274957855348596
Cr 4.790485370965044 5.7778497876811405 9.70854736633006
Cr 7.492686258577788 4.814499489917787 9.95495260733705
Cr 8.061467846076596 9.814294664911747 9.76451910062306
Cr 6.774349629272968 6.9497820474394665 10.422584649525099
