46
Energy = -357.59010413 eV
Cr 5.474448444046393 5.0433460167333894 10.104596334791886
Cr 4.01474345919074 3.132391249665237 0.5410498882068514
Cr 2.8471554452499004 5.459090308493657 1.011981281222006
Cr 6.470865253709007 2.8753024909736937 1.5938658488651127
Cr 2.2869233251845 1.651567427989351 1.7423698963694865
Cr 4.7165196138689405 0.7736475270137498 1.074960180883776
Cr 4.86365589165136 7.479907645187815 1.9290578035143617
Cr 7.242526594966953 5.7904313163183625 2.1476627562807153
Cr 4.9406406407219325 4.947640020355863 2.1064157178413643
Cr 2.1660243488724196 8.435491688066742 2.8916268920808954
Cr 2.3971221629376562 3.898673218059498 2.772414609687603
Cr 8.510283516033706 4.029507322470463 3.4509520597022525
Cr 2.696632431501074 0.578575086290708 3.1303433189607013
Cr 6.8517048843814665 1.7442188254112594 4.104767053216971
Cr 4.399411421919871 2.4768983806386533 3.2092267950637865
Cr 0.7599608172159585 5.772527314035191 2.9614533517085206
Cr 3.04432284536031 6.445859249053081 3.1759158520050366
Cr 0.8587394921693534 2.5716705090337912 3.939505685834318
Cr 7.0662763912961335 7.946812970967617 3.418048941626821
Cr 6.387686383212939 4.1417485461609225 3.9748606009512315
Cr 5.489934360859517 0.16572858119790637 2.5554977831628976
Cr 5.643372990176491 6.55905880035891 4.044074441896158
Cr 4.086475296873152 8.653434884042003 4.30225031229953
Cr 4.206703441276073 4.593907643992687 4.504401062117496
Cr 7.996223531133658 6.077668105210304 4.838715092090034
Cr 6.599735648094529 9.65014743151594 4.711627832355137
Cr 2.817820785803143 2.5356578290982297 5.13373644134817
Cr 3.7830835819020705 6.639335302214579 5.695258465330841
Cr 2.276418931379972 9.65014743151594 5.465221811584748
Cr 1.597819868865484 7.307354138973063 5.2004269497912015
Cr 6.067569015447105 7.8542373515730795 6.105283716676873
Cr 4.5787917523039265 0.5396276483907886 5.046901560807695
Cr 1.9471792926218852 4.820293396547442 5.107655667684148
Cr 6.100004189001294 5.330780192208279 6.3658474020478195
Cr 5.254372568434919 2.8418809495625372 5.767622440124078
Cr 7.813804774721475 3.498733297232338 6.03276095720249
Cr 3.535068247691683 4.430266985655629 6.987438909450173
Cr 7.606571125031179 5.895425406725023 7.737900827397182
Cr 6.173923553860062 1.1768713405023503 6.600201174489636
Cr 3.5416693684054597 8.283138918925868 7.133045274953827
Cr 4.7030797441139445 6.272079924396834 8.154183473847988
Cr 1.620223535798364 2.8408782097647145 7.04908710995698
Cr 1.9849704110853914 6.2121296026000135 7.548260193854767
Cr 3.8050322325153068 1.8385997927617803 7.604435711777486
Cr 5.722743016480029 3.5708181615708656 8.088387564790489
Cr 3.1306741541845606 3.7860481011480913 9.158259494750528
