48
Energy = -379.5839544 eV
Cr 10.804125896319885 8.234783458335242 7.396660997840731
Cr 10.397454458226896 7.821889630479761 4.878145953062052
Cr 10.26528165917844 5.2333125815708295 4.0284600775614905
Cr 9.910665967078097 5.9570029270718114 6.3953558419171275
Cr 8.49573306607824 8.795615604109287 8.848244908881375
Cr 9.52043153006092 9.670041555154059 6.836244621290615
Cr 9.48816201875409 6.744603316285425 8.911192789846977
Cr 9.68920464886473 3.5456615285425976 6.157623550509128
Cr 8.767465279676717 2.6707441499291553 4.361645432703539
Cr 8.381536600653698 7.386427701662144 6.59995060731178
Cr 8.43524391625492 7.27253116020636 3.7163197989965484
Cr 8.687693609090694 4.785809936953591 2.6101080335063718
Cr 8.05196825154698 4.8058033655054455 7.709980764181768
Cr 6.930857314443693 7.128166685353956 8.742810182826418
Cr 7.898298504992847 9.224057422659099 4.678101047717416
Cr 7.856281109623892 5.30940035990956 5.113401554586364
Cr 6.900937191499404 9.463709440259072 7.209524067378866
Cr 5.408107278157959 3.6254919825461887 7.835277701202331
Cr 6.939444081438683 3.3988277192812166 6.0502269471214865
Cr 6.055151174983469 5.819224842025197 7.131455863973204
Cr 6.5825223288604295 4.924427453969551 9.598285007786293
Cr 6.673783084588021 3.4468986488748903 3.4341775156341927
Cr 6.340064019492111 7.501107607129286 5.399243436359782
Cr 6.284868529623286 5.830003731698201 3.2137091572358667
Cr 7.3653555166171065 6.370957229087616 1.3447636778922478
Cr 3.6346652488053297 3.6957539029566764 9.438111212423532
Cr 5.0772194331321865 4.889302477402005 5.183443042114931
Cr 5.172894762092774 2.1843469925830763 5.134228954200975
Cr 5.03586093659903 8.349897769339435 7.798387259351201
Cr 6.292884040341919 4.182111272720169 1.3137379007997192
Cr 3.6819855423601093 2.1133521074656745 7.141458438301911
Cr 4.133906658920264 7.081641681430821 3.884095565721579
Cr 4.495444766178302 5.945517208057715 9.04914284649499
Cr 4.754078251531503 9.302194900525516 5.260614367538625
Cr 3.9036400494805608 7.039278551682336 6.39753294217991
Cr 3.3268632595060836 4.77594490527658 7.040580583531138
Cr 6.044465711648505 8.156501559530694 2.9539128346917534
Cr 4.180202057530269 4.004143361139944 3.3466382610678482
Cr 4.439147284427618 5.961344441892877 1.832063708549254
Cr 2.8211787480222457 9.238555857469493 7.187603552170613
Cr 1.8997472931971564 2.6000410305641637 7.911629625355453
Cr 2.6582792384879013 3.2125152414379645 5.371795868580647
Cr 1.8309962826742707 5.013213933594851 8.788074016858769
Cr 2.5031388006819157 5.713065214327131 4.557011792352541
Cr 2.6462212167492662 7.234460339539252 8.557646149401245
Cr 2.2864113877950576 8.318864950505432 5.309214354581771
Cr 1.3482395902513715 6.86195613110845 6.808838605089017
Cr 0.8653080619100196 4.393467092948016 6.398995988669988
