41
Energy = -320.25389715 eV
Cr 10.422873113231004 5.1356871964803394 7.722483832461263
Cr 8.468894723921883 6.106124682621314 8.870446512870181
Cr 10.515038535373238 7.163060468276182 8.786309344854239
Cr 9.153047529586301 7.924144652792171 10.592705586610641
Cr 7.14820564796732 6.662013216438619 10.47613737386302
Cr 10.081345842344907 3.172586437877109 5.799629963878928
Cr 7.875617963712385 4.578371858465149 6.735035979792201
Cr 6.483341483332771 4.59760864629927 8.89017969415299
Cr 11.183048175006189 7.527894776086446 6.406731497408049
Cr 11.017203158120756 5.121500245030097 5.309695197160124
Cr 7.707002876652349 2.41248297616943 4.865862533097018
Cr 7.605435449085885 9.136613553263842 9.733227044484492
Cr 5.238036837304573 5.141206221614266 10.572852749465127
Cr 9.014102283691951 6.689614001446724 6.47333069819387
Cr 5.987670729763277 3.15464272193474 6.577708327284835
Cr 6.6841299057476755 7.202046618045784 7.892518267266186
Cr 8.873003891963595 8.570921242543204 7.960195069616788
Cr 4.455738294840276 3.5630967986949407 8.452222870797446
Cr 8.481994288966465 4.573299234342372 4.474585305072555
Cr 5.470367973549999 7.937119904163448 9.786060345656754
Cr 4.360341708510308 6.102594229467898 8.881855599092457
Cr 9.337202299729277 6.711754789594846 4.168689213729602
Cr 6.814535690512279 6.573956709441689 5.046606872618258
Cr 5.286317259703029 5.395373758411028 6.842882098105209
Cr 3.975860441442734 3.41462221041407 5.639480860407381
Cr 6.415688224180644 9.673767328517583 7.678415072657231
Cr 2.8512809701007735 4.548186736428125 7.283211256092835
Cr 6.093085754764016 4.594725468754894 4.385898143118476
Cr 4.291774710014781 8.76375813743571 7.88908540446901
Cr 7.063230836855238 5.880082657045066 2.617523077785537
Cr 7.412256499531736 8.938209314355163 5.867624446798184
Cr 5.134214804132637 8.020122732702522 5.958473620251103
Cr 2.942161284116783 6.954827457350762 6.872301732184042
Cr 7.4295475448771215 7.978032787301613 3.1474179752527633
Cr 5.0965148212275855 6.8378649897270245 3.1758674192299616
Cr 3.944126006846726 5.866996669517706 5.1055953819143705
Cr 5.195268986907227 10.678030902612292 6.0101457785586465
Cr 2.7224660265320484 9.397737280681566 5.990551243977112
Cr 5.6238269294855465 8.954949114325744 3.868967191137024
Cr 3.054833460623677 8.110664168552876 4.109553967757764
Cr 4.0101074425304155 11.049394366191882 4.106666703861775
