42
Energy = -329.8005087 eV
Cr 9.933877669636818 8.92851651955543 7.81065161396429
Cr 7.3781816596192655 9.78043005332718 8.000716999085133
Cr 3.627692155572881 8.376989919757289 7.353261325251236
Cr 8.768001228469089 7.761536340198324 9.390701172516257
Cr 10.288639823345573 8.295571722241162 5.567550769636976
Cr 5.794787381091856 8.870170082188945 6.54312037304878
Cr 4.071358151973431 7.0563597431053955 9.647799887020476
Cr 8.275401595807546 9.745891090925248 5.852570055084494
Cr 6.527593585078288 7.481855036879075 8.843120896043725
Cr 4.340679576107599 6.937664627713789 5.028900923383259
Cr 10.405312796615345 6.303049771639589 7.5973493964183545
Cr 2.770487025000091 6.472510835224432 6.893126076308183
Cr 6.598617970483663 8.477282597699398 4.513602924341174
Cr 7.880458359914461 7.427365847926958 6.8270811029993395
Cr 8.38142189687196 5.494984435046611 8.490817959036109
Cr 2.0520960777152037 6.929046716508586 9.23942565480838
Cr 5.347190737037865 6.484077081949879 7.262513269054906
Cr 5.848276499992353 4.932178350216599 9.279968373032473
Cr 8.649147873145932 9.88279019167116 3.376084313812831
Cr 8.685255217013484 7.632916094759829 4.07710233632503
Cr 9.461687846773325 3.5935017373151457 6.921762809003654
Cr 6.937269740546364 8.047916548628088 2.0996348085455145
Cr 3.615668242987376 4.8329524537791295 8.26591927920834
Cr 6.695946684519641 6.155871171770009 5.057173277177141
Cr 9.22450007214828 5.774821610824268 5.745066356303076
Cr 4.350074133699238 8.88154791940561 3.8769424515661974
Cr 7.4672935669166245 2.74026099240522 8.121820944810244
Cr 1.960819807981924 7.41320677820643 4.696764807577524
Cr 8.20828867007735 5.618673921090198 3.1133254736590223
Cr 5.136173594883062 2.8528538056497137 7.747403594175277
Cr 7.029564513101072 4.70741578122324 6.699715795313882
Cr 8.189458245659873 3.6728373039357725 4.737913956210595
Cr 2.4743438671208127 4.677979225234336 5.252400164480674
Cr 5.487596677979641 6.632084960096905 2.7247700708390306
Cr 4.954084259942372 0.9250166471849117 6.804686111482211
Cr 2.9136556917436147 2.9260178904036303 7.0291047445506365
Cr 2.9023975389605017 7.143057929983454 2.740205127105884
Cr 6.123378703586932 4.0574735792930525 4.0285270064055485
Cr 6.807256203852572 2.2159406651299878 5.83942424161679
Cr 3.6854566518772796 4.96299040737502 3.609795446802146
Cr 4.771479724475715 4.504645780235245 6.05671902097954
Cr 4.138037253754121 2.5506548053761526 5.394368064097986
