44
Energy = -344.80002033 eV
Cr 8.330059658799579 4.017178268589065 8.432889927509551
Cr 8.68533179480385 2.8722921868766225 4.758579447928087
Cr 7.5961881770296165 2.3372830638431332 6.466493576938451
Cr 9.450028606018163 4.827693563904074 6.468213946977061
Cr 7.351777772454585 3.164290452569786 10.573155931022036
Cr 7.563751381263154 3.3464459353963356 2.3654721374858245
Cr 6.1819891122525945 3.3623083395089215 8.140956867750354
Cr 6.259383938558287 3.7316624648878105 4.378601626366963
Cr 8.44021907266439 6.574841087984219 7.821729999072271
Cr 5.026743232746855 2.979275477980896 6.057183496133345
Cr 8.660464269468374 5.023987563015564 3.776884523448643
Cr 7.296553430697599 4.923501574100418 6.207214732407164
Cr 5.685945180668882 4.2441571095100326 10.597846841312274
Cr 8.914409730294585 6.745211301956922 5.2296745073434145
Cr 7.645253407837938 5.859386253553999 10.01923977686758
Cr 5.380905780568527 4.518714612472111 2.0486761028918843
Cr 3.852367720962075 4.138241108460481 8.250685759998975
Cr 7.4235643211465865 5.592821515732797 1.3811473474531986
Cr 3.8768449664709643 3.0042433342742894 3.9332760432064506
Cr 6.165238605494681 5.5978644156830395 8.451205674726257
Cr 2.6403756368835904 4.080773876337657 5.719716735890047
Cr 6.497085621167608 6.105469277234381 3.951033714786114
Cr 8.272202233785855 7.519526844241723 2.3742227784440377
Cr 7.559465509783642 8.304278481123697 4.382570679176988
Cr 8.56581251996874 8.542704641108516 6.887603232330941
Cr 5.299506392928572 7.088602164035201 10.469956113225564
Cr 3.813319572984383 5.735898653008435 10.001208743679774
Cr 5.8828323859563225 7.772788084340852 0.5985443998641505
Cr 6.5146975604278134 8.041419057886168 8.675683190179123
Cr 4.070335767359723 5.137950819994492 3.7360801664376413
Cr 4.521179302989264 6.89007349244265 2.0553070054265095
Cr 2.265268835765152 5.688142819266348 7.508568050891039
Cr 4.190658619417347 7.023162717170699 8.046486673786658
Cr 6.425663359689611 7.44589184800843 6.37946613187805
Cr 6.059653689680044 9.046725166196735 2.806136363774029
Cr 4.7777138288607715 5.307301442652023 6.187548055663346
Cr 8.617964010668693 10.103433413355388 5.171542810073557
Cr 4.831625463598009 7.704144173963212 4.383474684692784
Cr 2.9204974938997603 8.2892917517474 9.486542343369878
Cr 6.564220705870416 10.135351037013944 7.189049916077503
Cr 4.783923251067545 9.55605249373589 9.15226324457369
Cr 2.964405015116542 6.894250728602189 5.560316208389431
Cr 5.941071725744764 10.026605828910332 5.183199960397764
Cr 4.337324349008523 8.802584570145427 6.83817354297306
