45
Energy = -352.89952795 eV
Cr 7.972167005822518 7.3394979945489505 2.9393761161792398
Cr 8.163117953524617 5.085171484548204 2.949499308296596
Cr 5.89540824576339 7.994518808961523 2.12427275668728
Cr 5.9852247934245595 5.612236057168222 2.343374915691486
Cr 9.204496443460645 5.852513060644482 4.721645202682373
Cr 8.97785037804504 3.1167142435414465 4.677848217300085
Cr 6.5035792939591595 4.290535778831526 4.572190968640652
Cr 9.66764008793614 1.5494799483303539 6.508924870259961
Cr 8.679832111099996 8.42173454029974 5.2501593704637814
Cr 10.217645457698845 4.28859354276514 6.225307797893129
Cr 6.953577820928393 6.444258887462499 5.007183825528149
Cr 8.85837505024533 6.865355106125589 6.903996065763475
Cr 3.6875119190021697 8.485890437671719 2.900447618496735
Cr 7.083856854456755 2.456321476360352 6.1835229667555796
Cr 5.503190873379719 4.726222981750767 6.651100211065564
Cr 4.095260121015383 4.231332723928332 3.7623617890731986
Cr 4.494823965484836 6.475400476821538 3.889186575692089
Cr 7.503756140146689 10.55211811929696 5.34271613328093
Cr 6.086543546353773 8.587839514812247 4.1844906616489155
Cr 7.994756564338892 4.532291321584094 6.673463989734514
Cr 4.521603967877769 2.825539536660357 6.010152786166663
Cr 9.11590127749167 2.6250013505220995 8.006908158215726
Cr 5.56906218131475 10.852253133412729 5.5930939175906556
Cr 3.0514091610763225 4.978698418880675 5.794824772936887
Cr 4.59047622254124 7.017986123881159 6.196672079605416
Cr 6.753004247541586 6.60806164788095 7.8016146401017625
Cr 2.3029844242081325 6.968358171059459 4.698887896661124
Cr 6.3224253968292965 2.9666803208475216 8.220670068212598
Cr 8.365734954928744 9.255188847805838 7.737230863508224
Cr 5.233964589175766 4.96060587212441 9.37978283663682
Cr 10.384391244334774 7.817574424928547 8.645995727326696
Cr 6.41806150103704 8.502673746808503 6.6714249927348
Cr 3.871079425662958 8.902791612035871 5.203763449069164
Cr 1.1325940801444974 6.570872569073792 6.948499951096547
Cr 10.058575087056102 5.261994179015628 8.470342653416138
Cr 3.761186933714975 3.294295943694154 8.122230721386172
Cr 6.5469312819698064 10.683306416232709 8.120272464295036
Cr 8.540934912139512 7.249540146268932 9.507430962054087
Cr 7.944325497069286 4.845960344291179 9.002264393980976
Cr 3.2005445513115234 5.614344032732862 7.991776267603442
Cr 6.23191757505116 6.39720599439998 10.425451062716487
Cr 2.3101783557963205 8.145736499328848 7.222616292817308
Cr 4.54691528112146 7.490662507357053 8.566115095010252
Cr 4.402880161382696 9.5901656197167 7.531602169090208
Cr 6.335337244912791 8.7112508179652 9.30384756281941
