45
Energy = -354.73160509 eV
Cr 3.7457225668194836 0.13380086912597774 3.1322764237032894
Cr 4.397479860163712 1.9425841919688152 7.564922083098623
Cr 8.620047167429236 3.1872962869324555 7.52935539929993
Cr 2.416986607642956 0.9336538772669584 5.997918790476713
Cr 2.40681268680669 5.516043812980519 2.285979053988361
Cr 0.38211409684532194 4.895114763658128 5.9031440504543635
Cr 7.139531621023919 5.502193887088884 7.280111665872897
Cr 3.198690239019326 7.955233255580622 2.566138544885423
Cr 4.11353351498304 3.818731607949834 2.6843421407636106
Cr 2.4730227300345735 6.910786359032552 0.1223914111572463
Cr 8.088749855316507 5.674096431967359 3.0513088112196125
Cr 5.244383143993707 8.318108796560471 3.557564231065798
Cr 7.546305826517761 2.0449872363549084 5.095023174813167
Cr 0.8115567904736599 3.1071263439029657 5.079935242914675
Cr 6.389753435781169 3.26520560627153 6.744509357271985
Cr 6.47664134384321 4.2925709092435875 4.302488178886016
Cr 4.536803876533783 6.333225003697919 1.3186907674578896
Cr 4.606591823775817 4.528287883209649 8.263678275134232
Cr 2.5256429562787877 5.949700987853266 6.931223094907871
Cr 5.485768540045383 2.0042446284495155 3.1698465014251394
Cr 8.955175438057644 4.975496078167286 3.243888168169983
Cr 5.121539407961822 1.0773536809212676 5.623088025607318
Cr 7.668848544143638 3.0151376797081952 2.8651405351161636
Cr 1.1170461591627407 1.019026583584239 3.270035025666726
Cr 6.717178025649042 6.993200399052038 5.028313845837249
Cr 6.859461041421205 0.8869564213735177 7.595587828775663
Cr 3.895233376783941 7.663904256668211 5.249873443559616
Cr 2.9178305191291396 2.251069986072952 4.276580331765913
Cr 3.2185776727976263 1.8974803424477145 1.6357875639251156
Cr 0.6682838582073204 4.6712619322767 0.580033693969474
Cr 6.387457513521874 2.66489837456404 9.118268979313052
Cr 5.393074187098912 2.3543198805439456 0.8962883321685312
Cr 2.6991114359249004 3.589603418556165 6.780482156410311
Cr 1.3537656769792012 6.926349288119873 4.46107266147511
Cr 2.6088025071763106 5.066745110744361 4.555174782322198
Cr 6.166560900024204 4.362645735278582 1.7031915893065341
Cr 8.415707944068824 4.691576410175706 5.490639379861243
Cr 6.8473478391847395 7.07850387208052 2.1494116782022092
Cr 4.808499657649759 5.865606425719206 3.5721343977501347
Cr 0.8012296636157629 6.917352720706945 1.9531459401028264
Cr 5.323792326359598 7.233027916320791 7.134922213167835
Cr 4.4264092609635295 3.309526964254 5.269974550119603
Cr 3.666850693604846 4.242445540912011 0.33966254733684376
Cr 1.4730669324893422 3.4230307438802687 2.511092765476115
Cr 4.828233392028631 5.459832587952872 6.064707454974726
