44
Energy = -347.14590165 eV
Cr 9.222768444786679 3.1369078557178596 6.107293685120675
Cr 6.730291537361004 2.8453021892944728 6.088322451414874
Cr 6.801437087456855 3.041345876473897 3.8872940965266967
Cr 4.864397229408587 2.704827721680678 2.5624281386459486
Cr 7.889565026290663 4.6889798768129785 7.229019745262522
Cr 8.470683932643556 4.8452915990258925 4.632779105931621
Cr 4.9109165740461975 2.193132263506577 8.020251332485827
Cr 9.783175816641311 6.164696694000469 6.15957696025589
Cr 7.172007296878842 4.826895713325826 2.325978354573333
Cr 5.3432830504252085 4.38907920607476 0.7289306859415206
Cr 4.92428100559034 4.420267195820003 7.227083815406718
Cr 6.589023918609889 2.9764759229871482 8.605927101841807
Cr 9.765746083523457 4.914326579510598 8.613982922388422
Cr 4.637884791743044 3.0164214150822772 5.29395596566021
Cr 6.3155210696443795 6.0573847662574485 8.059347824038806
Cr 6.6757600273541 6.970121082088879 3.3483595206290193
Cr 8.995608279060356 6.855564537998694 3.7232713117987326
Cr 4.6999448612159425 4.837671076052469 3.3093305166491067
Cr 7.558712354739758 4.991246596431734 9.97153655596692
Cr 5.03208432248674 6.47064445289839 1.5921934685660342
Cr 6.113735532555786 5.245521685308889 5.182416766465115
Cr 7.453999697467571 6.961988138305368 5.9585825664563385
Cr 4.215641845729565 6.985295115156126 4.191881877874963
Cr 3.3599868458383995 5.21509297647195 5.35903643217648
Cr 9.145404147421571 6.436274969810392 10.78293666880584
Cr 2.6468732082005375 3.4809862042704736 7.190084710195582
Cr 7.759797194411382 9.161391775248084 3.690363471069481
Cr 4.702986181412342 7.0885927540832 6.620837377239097
Cr 5.029001824347268 4.736820917940302 9.956108854456563
Cr 8.83788086915543 8.682800340900679 6.152762760666831
Cr 5.143283855665072 8.913705975479038 2.826650672679166
Cr 8.608536630672427 7.06628761679745 8.42437767073881
Cr 3.3522563577557523 5.9239366906163955 8.050161067810771
Cr 6.641333857264787 7.3015257001105125 10.31253829393254
Cr 2.331705549432598 7.465520933833234 6.08243433048894
Cr 1.3457673338553102 5.287308761457854 6.993173350762682
Cr 5.553200493118128 10.610910701471349 4.2576669267807095
Cr 4.85559804958156 7.706888017526479 9.240438352847454
Cr 6.679859191324794 8.685561545912483 7.8684685218640436
Cr 6.036199386071728 8.625064178075919 5.4092194392202835
Cr 4.1891683948164085 9.42508658879558 7.129123723264017
Cr 2.5110922706404057 8.043067291893303 8.20625284404274
Cr 3.56333032314184 8.967793365081944 4.9277682074085
Cr 10.376802475282721 8.472529359481072 4.5363857787185315
