40
Energy = -313.44269469 eV
Cr 2.0665522394288907 4.012397964640446 6.28333940096544
Cr 3.9273751934061143 2.3544852484516223 7.56477581824662
Cr 2.780620006116298 2.3332440896053397 5.232830937758711
Cr 3.3321288423154685 4.762674514769845 3.9738257774541275
Cr 3.4676933120419036 5.203897336761533 8.129698201699348
Cr 3.965656160092121 7.71727228005778 7.712941764028334
Cr 3.4055781984055145 6.083128474615612 5.835181269768798
Cr 3.6142542608591857 7.274723297033607 3.39351184880379
Cr 6.515234953487283 2.8627167071950503 7.115570091902268
Cr 3.4151381701935724 9.236349250832147 5.895317360788865
Cr 5.267597125998384 1.484195005277777 5.864912192404262
Cr 4.696949506441887 3.9747434812251194 6.167833575930332
Cr 4.960378392818956 3.0235500028229305 4.067786775993496
Cr 4.934815162880267 5.230183114532789 2.022155949908463
Cr 5.219622533379338 7.159206413045266 9.314829198600469
Cr 4.778262197072953 9.565538567490044 3.6010050334849333
Cr 5.2237033305405465 9.741606108115786 7.984985934709394
Cr 5.978785134486086 6.046297318376058 7.012653610134411
Cr 5.306711479838303 4.3410951656480785 8.943590968060372
Cr 5.503686399046275 5.614259965750068 4.369209598769969
Cr 5.770857900511806 7.535748851801139 2.8791663866443615
Cr 6.846835128500128 3.7619859211687317 2.855363192722448
Cr 7.346843258702523 4.380524507723806 5.5348714559781556
Cr 5.018114531854663 7.911035959183196 5.291302016527017
Cr 7.485780138614816 2.1885961867930623 4.811094962608607
Cr 7.68491551419298 4.326185923721288 8.608485772698828
Cr 5.517555348998252 10.434990130129211 5.870117091460066
Cr 7.255488756681002 6.357807522411854 9.354196987969738
Cr 7.201690482436716 8.980250766528817 9.667921947352673
Cr 6.863399840396978 8.300977632288369 7.158370655105652
Cr 7.79223429507216 5.5642710262866 2.98150561965708
Cr 7.398238587397497 6.950835490052573 4.911871961968775
Cr 9.420539668203485 3.754915076469313 4.108723387987285
Cr 7.7954135045524335 10.463104762206797 7.233101038471585
Cr 7.041144304692752 9.160790857922672 4.682179598437453
Cr 9.21969489003923 3.7175358248557373 6.693459828109266
Cr 8.885120565242993 8.284551127522597 8.773960446623994
Cr 8.608369402352759 6.206240549925208 7.134796961007089
Cr 9.208529659437394 8.18431623776861 6.148897702276691
Cr 9.56373220099564 5.697903740958135 4.933391772366359
