45
Energy = -355.49890345 eV
Cr 7.116793913892531 8.668429500295245 5.447350028671846
Cr 8.753748156257883 7.413464079455542 5.659147056460518
Cr 8.753161967750001 8.396515036507186 8.02009881373016
Cr 5.807194595217894 6.539622434243176 1.4098178334689944
Cr 7.293543610468368 6.63108861795347 3.786694509290946
Cr 9.211539408533092 5.694139618137148 7.185167602838063
Cr 6.5286003418452365 9.488706624655157 7.939714316788186
Cr 7.877623852013431 5.048126355339866 2.01999022983022
Cr 4.934713367191284 7.885809372684983 3.5108109230332345
Cr 9.362412837723143 5.104387147204122 4.468962320675843
Cr 4.860243367804659 9.066846301324057 6.387509143660719
Cr 6.731330726797495 6.898543883838174 7.4021410246395485
Cr 6.482567307487598 8.211405501328848 9.74846435890681
Cr 5.448302213446145 4.332951361969858 0.8209689623422223
Cr 8.100071541656305 6.672379055091858 9.470358868959181
Cr 5.223615561228952 6.787026496007446 5.478515554559839
Cr 9.564029680354908 3.3068719341454176 3.0521933122645666
Cr 7.078605127671786 5.3161455314777815 5.652545613295814
Cr 3.766818234148574 6.3153369478468635 1.649244078632532
Cr 5.501965938932156 5.296154844049945 3.159247093704698
Cr 4.293317139965941 9.6829582559578 9.15621470606368
Cr 7.401786989645276 2.7483868643475176 1.5616780042462193
Cr 2.7971500112071035 7.9039110993273285 5.517044307053966
Cr 7.849621904788921 4.499359089072003 8.02042279244752
Cr 2.812443172961497 9.468756526434637 7.326940626497924
Cr 4.45399091648957 7.436468825487826 8.052931813970401
Cr 7.245094733528569 3.474784379019317 4.057395079841444
Cr 7.695391561129844 1.536875483489774 3.5311813252003144
Cr 3.2547852456957798 6.1432667192173716 3.956371555604585
Cr 6.055923651807136 5.512726784030662 9.601443735011786
Cr 5.213291601651943 4.980604338183803 7.554920958805093
Cr 8.800732647808736 3.2471437799215734 5.789892453383572
Cr 5.297297936008697 2.4442030285650866 2.9542460526758867
Cr 4.751022070171199 4.045517612379394 5.063955793512535
Cr 4.174068648557032 7.242228529645858 10.557978497865577
Cr 1.8498559001286887 6.767261742273591 7.538466402239457
Cr 2.292402317526534 7.84881954541442 9.415945432982605
Cr 3.5080154909580727 3.9301768869098033 2.568960882586131
Cr 3.1973416315250054 5.5659007526962 6.264676858176234
Cr 6.458437430968783 2.9944336446260165 6.723721399400401
Cr 5.9310248592113215 1.6194471290589605 5.2615356803625755
Cr 3.380786354348961 5.395976560480292 8.890938408480672
Cr 2.231092392387658 3.8516853275724374 4.499091669872145
Cr 3.8420478092313513 3.030723597644362 6.954994985623974
Cr 3.4454116457611295 1.924881387520983 4.438697199326979
