47
Energy = -373.70356074 eV
Cr 4.085161212877286 7.377770172609497 8.849899577346344
Cr 4.028052732264058 4.800031142104634 3.381100180094497
Cr 2.9808968475416013 2.6741916092568925 4.545522444435221
Cr 6.051587649204636 3.569006501117297 8.191691591728537
Cr 5.537637656879219 6.330370700751907 7.246245276757427
Cr 6.071934671317417 5.687230174999788 9.790339598445383
Cr 8.275753902765207 8.961216976236996 7.719147748687157
Cr 5.804763183546509 8.156974342826357 5.247882103284525
Cr 4.270594913396068 4.31143506570605 6.103576087183604
Cr 1.4815836759629655 7.447710506932483 5.640350236215757
Cr 7.551482073553845 3.511315779398842 3.564968497964676
Cr 1.2121984393727723 4.210570477696797 3.1782796919792937
Cr 3.590676263870073 8.489840712265666 6.69362930868018
Cr 0.16978113610036993 6.459103794039585 3.6062026718266655
Cr 7.768045358266383 6.834500720762075 6.140062994109623
Cr 2.5925318355306732 4.685501151279444 1.2888420524282738
Cr 8.050975261600767 3.797191459617597 9.95145682565424
Cr 7.995777066172459 5.446950247721721 8.060240437821777
Cr 7.976774075124557 9.292337590166127 5.3222502219288685
Cr 2.7015676642537296 6.030448992173155 7.370732596807049
Cr 3.3762146192187106 2.5179531363782535 2.6217707159509795
Cr 8.776525797631042 5.805554603905593 10.586750985326209
Cr 8.813870401001685 4.724099942327067 5.452063474263731
Cr 5.9016534115585175 8.74942939812126 7.298969119350275
Cr 10.560010579542483 5.482367733649781 6.862569598335257
Cr 6.25276302631625 5.296015350345311 2.0655557631420205
Cr 3.7697355324047592 8.944997890274776 4.31157033867528
Cr 8.879587377267665 3.2133714887897225 7.3474578072878485
Cr 10.459230041530018 4.529711921841899 8.801583546165393
Cr 2.4270854292602078 6.8107891195969446 3.0967156245780543
Cr 4.892751221026085 2.0977366632917755 6.524852273897931
Cr 3.979920153167532 4.569441187348632 8.589787394647336
Cr 5.487883998838723 3.0038735597647417 4.168516919347601
Cr 1.9893105110188558 5.0599271652966795 5.083644320513684
Cr 9.397996529287504 6.924122635296969 8.684484476316808
Cr 6.8873831855125545 7.352808269804451 9.357696456991237
Cr 2.0788742779539153 3.611045327768221 6.85126246700712
Cr 3.916173143260202 6.5491551444808405 5.23766374257304
Cr 4.095123502993892 6.141106378094509 1.0222208702297342
Cr 7.417447341988008 7.6436464351822355 3.396422954316266
Cr 6.705685194615506 4.140360221673026 6.126404655825589
Cr 10.237719412486792 8.120655155135568 6.475920925038266
Cr 5.276040686877836 3.54391097885951 1.5124699935467114
Cr 8.426334598733186 5.841491395718995 3.3069470580383427
Cr 4.78697992241005 7.262546423634439 3.0116246646954323
Cr 6.181095974905104 5.6570605099870965 4.5852743298201055
Cr 9.826986044086013 7.331281380261337 4.725536915232376
