46
Energy = -362.71210206 eV
Cr 6.295838256275378 4.362677580549716 1.1844571043542707
Cr 2.1792038700092213 7.8834146334346205 5.094659219266983
Cr 0.5764614618017724 4.005925637092817 4.489653883453217
Cr 1.437266618323325 1.5341338863874636 4.5213658642591295
Cr 3.2806656793396174 0.875350939712933 6.479758017745108
Cr 6.122344894964119 4.252377104228624 8.922675968958696
Cr 9.273363668913904 6.633012145155429 4.0466952251018
Cr 4.977841401839379 6.653486207009124 8.211008022984734
Cr 5.6829155424438635 1.8294462708926273 0.5834092192265274
Cr 5.865460769545157 0.9624343324420757 2.6577048838862516
Cr 7.731397944310624 4.303349483975616 6.592871391972621
Cr 4.726565022416498 2.6618248429854785 5.2155857564026435
Cr 3.326195921637596 5.116024727840021 2.323847565213179
Cr 7.167882037858981 6.1662201183286784 7.842988266896209
Cr 8.468105444612984 4.791568837323184 2.449924972394083
Cr 3.3618291690809867 1.236547920304631 1.9069746794225197
Cr 3.1390245795254628 4.4828567243421045 8.169282198943598
Cr 5.809720290429405 0.16972686490034966 5.086970385965061
Cr 1.7894375231115491 6.870713552595802 7.8170579453061135
Cr 7.107592306690484 2.3368289331366583 4.898926478293836
Cr 4.279497279498923 5.603324001366823 9.216218106504218
Cr 2.685404187312215 3.47907943339781 5.9975844752678205
Cr 6.034308590158153 6.4007403786692 5.68234763448812
Cr 4.659471119142967 8.122755303889857 5.989449970069823
Cr 8.395948413883758 5.90061993719678 5.158727338469128
Cr 5.137321301246233 3.07672091448048 2.8133971351013245
Cr 2.0444910798314266 7.441651111857063 2.329838153301635
Cr 4.147793501384877 7.284008948793775 4.080243518667627
Cr 6.7433627819079875 4.5138571495449185 4.046740459872824
Cr 9.273363668913905 3.6467301357601047 4.415229131983274
Cr 3.6616797143291575 7.567433694960319 1.5519030164057608
Cr 3.553755253281118 6.219761571226603 6.390484985798228
Cr 3.631850298230465 0.8885225953314575 4.15819249968013
Cr 2.4613050318545526 5.616450055925384 0.03980913415114933
Cr 3.801599021487704 3.3162573848620047 0.7629759084197124
Cr 2.5021497427543804 3.200909337465835 3.3250646244843356
Cr 7.636810702886432 2.5165314505156906 2.52777701565587
Cr 4.413250865092392 4.835149451872101 4.452104807534736
Cr 5.666941332377444 5.844215877480187 2.389404039131139
Cr 2.0742005360782274 5.642283293433749 4.410430770760003
Cr 1.0575716526208234 5.617359494850813 6.754113049036209
Cr 4.423031182045895 2.3590489984987997 7.958577033332237
Cr 6.167371876925258 1.967655877400447 7.260845568834045
Cr 5.312717205795732 4.471365811640071 6.77250712068411
Cr 1.5349743207355495 3.2849128521629583 1.1337513902656027
Cr 0.7318588448061241 5.130004595881826 2.2376079697669367
