49
Energy = -390.47114435 eV
Cr 9.999710249557676 8.434849333730808 5.382084432430909
Cr 10.626441807297683 5.879215572883983 5.70598915481567
Cr 10.603776130701949 5.646574202341347 3.6933703680575056
Cr 8.804843925956897 10.594338065248165 5.278991575881789
Cr 10.05264638262697 4.854804683674108 7.814091391166918
Cr 8.553853814573447 6.992588868329424 4.339199258679368
Cr 9.584752008505736 3.654266575590743 5.1698110845741585
Cr 9.074390668469427 7.176556235260207 7.385931519345322
Cr 7.839914806325655 9.060514212172595 3.6826910149826353
Cr 8.224760707017204 9.391914227460788 7.225986938204972
Cr 8.893880831931558 6.3948363140451585 9.816038013525278
Cr 8.737038444463085 2.863909388276763 6.857959335571146
Cr 8.731350377190065 6.276312499941315 2.0254841123745426
Cr 8.078807057327172 4.511080381631945 3.5541296639057385
Cr 7.476317556928094 8.487504553018418 9.644943510265767
Cr 7.9988208676392505 5.50604561277665 6.09055156005514
Cr 6.741726552105523 7.410249997266717 2.3025861887134256
Cr 5.949597742862802 5.921519062496695 4.5418899911158235
Cr 6.857776959376793 8.15420175328692 5.9722416562112315
Cr 6.30302000803226 10.434519119234226 5.498440732450422
Cr 7.924521112043337 4.80420605780291 8.522221171001597
Cr 6.465460768083784 7.981508143355708 11.430552790182977
Cr 6.793847964027401 3.3927324981897473 5.314566988730894
Cr 6.7723839356929645 6.940203270154099 8.155904689544844
Cr 5.249968804503266 8.17487615496733 4.075464290091103
Cr 6.168493570903382 5.178593547291613 2.148704500462342
Cr 4.151389239574918 6.795790311966691 2.1431503804134704
Cr 6.6137271011553835 6.071036698820832 10.202258478377718
Cr 5.338026344216881 3.4351739468550893 3.491411192119299
Cr 4.145800465984882 4.604069910708481 5.3540772125376614
Cr 5.646494161726681 4.800511310662728 7.161786506625041
Cr 6.47954483890348 2.591359304964545 7.883542539726741
Cr 3.527801450434453 4.999914435863859 2.889641028969385
Cr 4.879638389985973 7.906222303815575 9.417323680549655
Cr 5.6117615495914235 9.375463970864613 7.935718827850638
Cr 4.607319407002247 7.114882613902393 6.730919792014123
Cr 4.201925283172214 9.277441996468603 5.855943084592285
Cr 3.3344003904797166 6.757038434925824 4.622747068523373
Cr 5.784836088375843 3.6051309901450206 9.59840015786222
Cr 4.796160595633312 2.217590768811499 5.997360619897577
Cr 3.0794825676600417 2.5333277383104544 4.078067440946439
Cr 4.553263398422281 5.670228055414987 9.10700917896415
Cr 1.60014063773369 5.193239581495102 4.965718898542387
Cr 2.5411876916639304 7.38531590735798 8.945778307531466
Cr 3.8065672594900106 3.3239096113328053 7.838996898996666
Cr 1.9495397302448618 7.761323156488263 6.294295489188878
Cr 3.051795963914985 9.149349148198757 8.152330249261928
Cr 2.8136447120960546 5.556059600253637 7.202663028829098
Cr 2.12487039676904 3.150236608223173 5.97006062376742
