41
Energy = -321.47167195 eV
Cr 6.594529424547946 4.528260012711866 9.900977864803997
Cr 6.115293810118779 9.077259032048964 9.150626489459482
Cr 6.766354754853242 11.042663682946397 8.49034741401464
Cr 7.466642356463534 6.751915546562994 8.377572695361064
Cr 5.4491581707089285 6.636619015748218 9.62831432224225
Cr 8.14693611372714 8.887221932862085 7.765629109816724
Cr 9.50275523936247 6.202298944040258 7.087641885792376
Cr 7.912414276144439 4.25171084497313 8.307059461466464
Cr 9.751570360473378 4.109225203242843 6.389329879805544
Cr 5.387818295738452 3.0113057137805765 8.013508738608412
Cr 4.447102099143122 9.962241618928331 7.964278778852533
Cr 5.40244411534278 5.296621652125568 7.5272552722786505
Cr 3.798597228243824 7.5238008743305524 8.369198014746935
Cr 3.3314518572229344 4.977440616812959 8.932737506850746
Cr 7.701134373022488 7.733922414102052 5.486858731143961
Cr 5.755858863081082 7.713834472999153 7.09386388421149
Cr 6.274377469521685 10.054346212589355 6.599204438816846
Cr 9.018708936366854 5.528169867216284 4.23411160651587
Cr 7.270865052246167 5.452727982194461 5.94297086039213
Cr 7.0476873263812125 3.0679948380194877 6.28395549746984
Cr 8.637199618765385 3.2002114848556236 4.419979253970775
Cr 4.832698912571703 4.024662691827989 5.531978596994878
Cr 7.053599971080677 6.60872696007905 3.2530703360840363
Cr 4.4660000372875945 1.8240152228698827 6.092362907838929
Cr 6.201680448318658 1.9684703309668632 4.334730969031096
Cr 8.364201861264071 4.558726458321044 2.0321048623794695
Cr 2.990006765627518 3.8322485607235004 7.232209625615168
Cr 5.659599773385239 8.7498610706775 4.438658340284847
Cr 5.2022256499283 6.494959854416658 4.937340020645476
Cr 2.607131631703113 2.587680021375874 5.005752020387453
Cr 3.3467146778386434 6.324078027766804 6.4197448281504705
Cr 7.394329853675355 2.536620122548125 2.275686113828072
Cr 6.285666579506551 5.174528040448262 1.3767703322727984
Cr 4.443771882260516 2.815382092100303 3.306739120141075
Cr 3.829790667969895 8.677185347770251 5.853386480647256
Cr 6.582389772776661 4.332371844738863 3.877633688445845
Cr 2.794619988908102 4.7910252648084235 4.637804310064116
Cr 5.049948517813294 7.508387267890686 2.4094000114341374
Cr 4.525862663941928 5.309915818095415 3.008071591452853
Cr 2.6712937009218223 6.994755815580981 3.9199163925037745
Cr 3.1901788545378387 9.147219176694128 3.3618296979700704
