44
Energy = -350.04591226 eV
Cr 8.502196196722975 6.37591356065282 1.8293645781738586
Cr 9.691286086581261 5.166203353178977 4.240198576499716
Cr 9.33217619544009 7.819458653005385 4.425371278838712
Cr 8.449608724190908 3.928635572317833 2.7627847977576945
Cr 5.897958872587361 7.241130194535206 1.9719738536307672
Cr 5.996965230644951 5.097553038260969 2.3583957267161892
Cr 7.992420678847671 8.486068804848978 2.9014826933725546
Cr 6.5671497392668385 2.689539331248234 3.232346186963136
Cr 3.7687917040216616 5.630473438993098 2.7568000745620456
Cr 7.392404624052023 6.1270444768810215 4.020166562066351
Cr 4.11743231158989 3.0079868760981583 3.4340027974644505
Cr 8.88757560754418 6.416714232818901 6.272313244408276
Cr 8.862729553725854 2.2440980736383156 4.735952388595567
Cr 9.665435791682967 4.274687527711946 6.8757058354878335
Cr 7.684614355562649 4.122532199497493 5.4437735871239585
Cr 7.1918865427075405 8.203002240479325 5.5356569060181595
Cr 5.165961732638513 6.896075217799343 4.349188666340847
Cr 3.7286285496091582 8.223186183087918 2.5119327157709552
Cr 6.387686205292351 1.8805385467237428 5.21267373905979
Cr 5.826163124493608 9.189802897200073 4.050916707305668
Cr 7.555322049050886 2.5393736366539335 7.343850079433359
Cr 5.118619384872862 4.429594292382545 4.746736695704104
Cr 4.090346767381513 2.1188435345614502 5.7335727952894615
Cr 6.4264252210132335 5.93560371942192 6.328761593833276
Cr 2.8370347868499146 6.793432722554699 4.672885529343924
Cr 2.479798135233104 4.247165858623496 4.630952861433282
Cr 5.521007696400508 1.1424097892606242 7.6806137412165745
Cr 3.6215008084782747 9.105254774501402 4.810614320415199
Cr 5.388510564221976 3.7622161642466767 7.144408166844155
Cr 5.927048248549497 9.976861035839162 7.0487180151394035
Cr 3.818596205802086 5.820449329302962 6.449524549934698
Cr 4.848957780465689 8.079266348181367 6.585525874999551
Cr 7.707665361830463 4.942136197792909 8.096586034609901
Cr 7.420066909928469 7.670422897653022 7.916530252439341
Cr 2.6082232897871216 3.532991718053526 6.913816378853713
Cr 2.0602526158513603 7.983411857306249 6.75802846371607
Cr 3.775766782284252 2.047490625565324 8.481254765787048
Cr 1.4286114365304208 5.7084138257183525 6.954819241048627
Cr 6.063816932151614 3.765033881641184 9.387290009112036
Cr 3.2931140157677032 10.070628930612273 7.3904058122273275
Cr 5.467925768388351 6.275781987947631 8.597979078645356
Cr 3.5714153697855107 4.802402367089601 8.709126324908555
Cr 5.313914071061561 8.955891938961123 9.132254968461119
Cr 3.2736739091408906 7.363041323575944 8.480551979878344
