48
Energy = -376.13133917 eV
Cr 2.65051870891821 6.908275746982924 5.075612269573518
Cr 6.824959538762892 4.769816039611937 3.0021835177562184
Cr 3.6124946362987167 9.696369888679406 4.363379534527556
Cr 0.8503509079535629 3.5473082638198377 3.755008569940366
Cr 3.866929786176218 1.8780662158700934 5.03867808930898
Cr 6.449686243958062 6.728551152326741 7.354562277109597
Cr 5.1774985402680285 5.113747784684028 1.2185740848515865
Cr 5.56473907520999 8.971399120729439 1.2324298522516073
Cr 3.02660588719373 0.5655653300130795 6.736859192321681
Cr 3.97856848016125 3.257179770746079 6.966472288100259
Cr 2.5988797910103663 2.5155474631087387 8.524951522817755
Cr 5.682636775325708 9.696369888679406 3.8629985007200185
Cr 8.660462731481093 4.122052820619669 4.356974262642214
Cr 4.098792764212422 2.527778656422906 0.8338646225863189
Cr 8.683919622428997 5.25467467691967 6.229379767634679
Cr 7.169640804951681 2.2755922600924783 3.3115026778562586
Cr 6.368635310061588 3.0744649156023236 1.107570621428125
Cr 3.2571723873380853 9.362556053708122 5.224722952804108
Cr 5.764528983323248 3.6378207679722645 5.146488135689909
Cr 4.545219644967338 5.617786052018408 6.297979771029916
Cr 2.0276714764914305 6.23434354642897 3.406697505188202
Cr 6.634967909846616 4.16924408920333 7.216957666735507
Cr 5.146573418817113 1.092191878961252 2.6695171496234034
Cr 5.819155528862153 0.7483596192303296 5.151642717900183
Cr 5.579482152729713 1.765874962866 7.231015444074563
Cr 6.8840504908421485 5.932350681547926 5.105402164828966
Cr 7.964621831709554 2.435395329597494 5.860744498558107
Cr 0.4366329642698996 3.4037321615558964 7.994205573015516
Cr 3.7690560539405853 8.339277501152857 3.0814687373234437
Cr 7.0689954264484385 6.469899558280579 0.8829702820938256
Cr 2.9997707368359583 4.291120597527634 2.001259115101516
Cr 5.182779116305435 7.939411799021037 5.354451029772297
Cr 8.74757240354983 6.498046601034125 3.4013819499698688
Cr 4.60254721277375 4.811901139716439 8.58349886596637
Cr 1.2396753954874977 0.7381920832541987 4.666661444348407
Cr 3.724970372972413 7.469768590930282 7.312565738716764
Cr 3.1136235275253994 4.359602460610128 4.647900217701912
Cr 6.179418760130752 7.230743786102329 2.9332433631679473
Cr 3.9411362607932903 6.865764743136065 1.4538517546661411
Cr 4.7308255567856525 3.3763757609502996 3.141992581628828
Cr 2.580196898392502 1.8652694005217971 3.1225150672499344
Cr 2.1239388613756582 4.966058146304818 7.060719759490235
Cr 7.810618225753035 8.87404782413634 2.7383217693295405
Cr 0.7019885578570356 5.169677158941956 5.539980166452781
Cr 0.6183546341930365 1.1391481027083936 7.31719470947571
Cr 4.591835647980814 5.861460403680288 3.7758609181248057
Cr 1.6035235025678292 2.674924997144936 5.772799843037648
Cr 7.564677598740267 8.222937788917136 5.155888599486506
