48
Energy = -377.98600063 eV
Cr 3.4625603970307446 4.0332400915145294 0.6610635774895658
Cr 1.1394410085255358 4.484580305344573 0.2297268568152536
Cr 5.485755930435414 2.3405585747427797 0.7391388989487054
Cr 10.26103415372626 3.6405425762562644 1.22485544400634
Cr 5.6123826960977405 4.909198710028634 1.3811963020761444
Cr 2.967745550525688 6.461279980683737 0.8579820013615715
Cr 2.241021867110472 1.9656112501756102 1.1274622758088915
Cr 9.734270124549882 4.0828380475782025 3.1914321018988003
Cr 0.8735210994377148 6.110407981198239 2.2148687246776873
Cr 1.8515347980040342 3.92938332978199 2.8195004027510446
Cr 7.669372817654781 5.857765848117232 2.987139168479534
Cr 7.402815065110323 3.284251995357611 2.4927464453602597
Cr 4.04870026256012 0.4340392221390846 2.1995891258010634
Cr 0.02584887625119289 1.9230473311851188 3.219752067279297
Cr 6.310882804217358 1.0335501612801166 2.633392600429514
Cr 2.5965229615485965 7.38229511660315 3.815447941649817
Cr 5.257016288499405 7.076138807567203 3.347690653800731
Cr 4.370925642558163 2.8769435492232773 2.6868483020691616
Cr 3.558557802405919 5.532273766037023 2.8677710596724193
Cr 9.73427012454988 4.7226388738392675 3.576451191174382
Cr 5.698312397529398 4.809404523329534 3.8596958238489787
Cr 2.2099869340798235 1.686413303121232 3.630687945479072
Cr 10.212008762157204 7.217271423372453 4.654614909685429
Cr 7.867077477579259 4.289627588345595 4.8709515242003505
Cr 9.33932536448107 6.255948047269044 5.089621328863503
Cr 6.049402242720675 2.5346164397237425 4.589799749994929
Cr 4.177019970418469 0.8738330450867994 4.495983867801378
Cr 1.7339500456674597 5.608987706871731 4.571462103864687
Cr 6.436991795562666 0.6694620181120453 5.453695176968714
Cr 3.58078810007228 3.606257818631349 4.951521216000695
Cr 0.7268383992563402 3.40319286523622 5.043995265846658
Cr 1.9343252808677034 7.413304007880936 6.431115528864842
Cr 8.50215368639883 1.8351937081438556 4.180600959723436
Cr 9.6871891457246 3.681839242692507 5.769006895753857
Cr 6.80517245961109 6.654811460533632 5.46497843637254
Cr 4.0640732391798355 6.199560485125042 5.451269420516831
Cr 10.045027678810284 5.986128839417257 5.946428755574025
Cr 5.765582336551114 4.371135994810517 6.25143071138927
Cr 7.575412084158763 2.533941902054366 6.719815416290237
Cr 4.704931915126578 8.320619154495096 5.806682120339367
Cr 2.2011720036929825 2.110503281885652 6.099251591462493
Cr 4.884512191431003 2.0552993738348184 6.853634596229545
Cr 7.978403526244374 5.237933075405101 7.2659664421924
Cr 1.9740515685117015 4.7713083565065535 6.882513658373598
Cr 3.6280329197491867 4.33218419717199 7.472451969104773
Cr 5.532807560199124 6.366526637732604 7.652337677695236
Cr 3.0894876813220002 7.148712406504639 7.754396368021313
Cr 6.160885801339207 3.684333299953409 8.250971119893038
