48
Energy = -374.49156398 eV
Cr 9.945942982233431 2.998657921917973 9.162535885093112
Cr 9.284099768943447 4.320922080144253 10.493889090121534
Cr 9.879620150248908 5.822591646695119 8.402952291131042
Cr 9.54340597346105 4.2380336946805715 6.843265049576267
Cr 7.274593573678131 2.4428456277673027 10.011277332010408
Cr 8.153207697525803 1.8859391547561826 7.363786172521338
Cr 10.191942278598226 6.806378134498728 5.977081078077473
Cr 7.701334956943029 4.08793610899042 8.3752379976355
Cr 7.608364507427757 6.1656117443611755 9.293555753014175
Cr 6.757103220901984 4.5814009942644836 10.859383899492743
Cr 8.673640589686318 8.25309928289163 7.627556894794275
Cr 5.888057063879192 2.1587919283486463 7.738973016299853
Cr 8.039082406768529 6.17744106201984 6.614255164299192
Cr 8.33194508968783 2.653868788624882 5.035755268728438
Cr 8.60872196455394 5.034917105824489 4.429669093260471
Cr 5.351385649629032 4.142646062994335 9.237722829805284
Cr 8.387170835609975 9.271050451192064 4.984585520162103
Cr 6.151154722473263 1.564498530489872 5.32841252182765
Cr 8.388134246806747 7.346945529395607 4.225357499585121
Cr 6.662074412710686 3.930927218113962 6.191254443344174
Cr 6.489405966358874 8.047088018914833 8.413378589732421
Cr 5.680985727520572 5.684047490522868 7.5592934437102315
Cr 6.27479433455658 7.874988056096202 6.034572886741961
Cr 7.189031869821535 10.127387632219797 6.883516628074543
Cr 6.181983077681196 8.493162361117333 3.506549452398307
Cr 6.561727851087044 3.584894893778666 3.3910511313058547
Cr 4.07645106783183 3.4867529201261047 6.922218364097905
Cr 5.019689217777506 6.827149795178466 9.734797258888735
Cr 6.276965951456863 5.815846734643825 4.489210496841638
Cr 5.888580882434088 10.351939476206683 4.993916150332975
Cr 4.296712221289022 5.748653649081012 5.586900695394995
Cr 3.120908862612829 5.731354077072645 7.95034428948727
Cr 4.185905846052793 8.678890894014021 5.325950879752327
Cr 4.7233533957613725 3.4218593993531052 4.760217875385894
Cr 5.017634653327889 9.71703030104819 7.506307638643347
Cr 6.620942943729053 6.420009209346281 2.347037066069372
Cr 3.8645335458291212 7.554686706817271 7.6095910865015135
Cr 4.73826796932851 4.924203587975064 2.3300945445757337
Cr 2.1999585529177232 4.774270934986252 5.8335697659163035
Cr 4.529131381394877 9.552321621967703 2.8497978518277107
Cr 4.015469606864251 6.9509030048150375 3.49706145557336
Cr 4.61498551980269 7.59327703936276 1.3384677191853054
Cr 2.1766724805673316 9.023951494399004 3.7999033064549494
Cr 2.9192837810901273 4.470579660410074 3.6200195824311248
Cr 2.2128868226707876 7.223311988183232 5.717710547627592
Cr 2.809128941902443 6.013375001501228 1.3255062072742871
Cr 2.2184328058296 8.426729191559652 1.8406010274379463
Cr 1.7240757015824277 6.351989560923123 3.4452963112208033
