45
Energy = -354.25300975 eV
Cr 5.776078393004501 2.5984021734733265 6.783327558992118
Cr 8.002942894519276 2.8226444152420633 3.5705468743131994
Cr 6.016436730574171 2.5285195023382343 4.143310790093715
Cr 8.075584472200443 2.9167467206554516 6.036462369261401
Cr 3.5699510377483565 2.071170254809783 7.656335209095799
Cr 8.649001235335144 5.166318160955184 2.007214336428547
Cr 4.22697801810636 3.516760405414014 5.401546635924631
Cr 6.755657573379277 4.82990410432805 2.691523325130263
Cr 6.723927238587576 4.219793060385976 8.006056878793757
Cr 4.75817372062754 5.365195714039553 4.010878730006502
Cr 9.074579145768464 4.937605615721388 4.289649369552648
Cr 6.920045406168184 4.773484476843495 5.356252976234464
Cr 2.384727594897013 4.164931873483515 6.909369955560051
Cr 8.883708356157122 4.976058118994309 7.046433812500082
Cr 4.350931160770454 3.538086667096751 8.920369422931389
Cr 7.465442956116661 6.976238740971128 3.6336226904717686
Cr 3.1578748038599946 6.135822654647317 5.561098415939904
Cr 10.121932430760713 6.925316141906298 3.5784855475870607
Cr 5.165617495420637 7.145533670037093 2.518992664308277
Cr 4.962948192929919 5.104283369608832 6.815098425681574
Cr 3.747718243170263 7.926240270695931 4.121841917395539
Cr 8.487223017951425 7.030250801304927 5.631438390936638
Cr 11.006590896272828 6.495696355010816 5.7009384152932725
Cr 9.587623404572069 6.957389791725909 7.724617735636632
Cr 8.157949819100468 5.466921792298442 9.487973348748461
Cr 3.0423386112051545 5.698749433312551 8.397860435757348
Cr 1.3882037162572463 6.831103958688997 7.056722735300362
Cr 11.494653233189615 8.864457889160988 4.798506806615469
Cr 5.559574171868238 5.869499716765412 9.275235421434306
Cr 6.281981525446681 8.983500841279998 3.5246792675391445
Cr 9.010281450956658 8.921884409743155 3.8250653405037616
Cr 2.573292877185202 8.803718580407075 6.167042131311449
Cr 4.148039874687489 7.564007879190973 7.379846870988931
Cr 6.883544727344436 6.805978455345181 7.401324180129533
Cr 10.052407587306364 9.121211342232753 6.438407895763357
Cr 5.729922479266337 7.219696177314113 5.460646239920695
Cr 9.255416870534047 7.0782361055767 10.214057815597334
Cr 7.527348658908147 9.015990047068597 5.7043424593178225
Cr 2.277875530104928 8.435629378663796 8.829033532901738
Cr 7.029444429984352 8.013439367212026 9.640389248626613
Cr 4.3160172431565895 7.409428376768934 10.032417750357997
Cr 4.970749559525881 9.454696005160724 5.818619032953456
Cr 8.360132761057944 8.847431943818716 8.171513989222435
Cr 5.87659331400588 8.956299845330227 7.643856717693026
Cr 1.5561755374705504 6.879363792431377 9.98068472870778
