49
Energy = -388.85384399 eV
Cr 6.08846994175569 8.806586810699526 9.791353264775728
Cr 6.221915863563312 9.23127934588646 7.670911296422455
Cr 4.730258527649109 8.796847803797096 5.323653776818017
Cr 7.029127080103893 9.837054861915226 5.424547066531571
Cr 7.188571554959672 6.876700650496031 11.233205428859597
Cr 4.525765120170547 7.12133129780056 10.509598020204804
Cr 7.25704776053987 9.750153046124073 2.9239866279534072
Cr 4.379528830589473 7.719437123973778 7.832940196317172
Cr 6.5104546279106295 6.6371489360467075 8.700784276937835
Cr 8.82235438268403 8.788585121045344 3.7328945346674427
Cr 6.131287158594882 4.511675568703602 11.021851755406173
Cr 8.50452719566348 8.357744995491586 9.20433373869228
Cr 2.448540220934234 6.360491709289164 8.594145626076116
Cr 8.542752986349164 8.478674295970565 6.310885115763321
Cr 2.2787912898735008 7.982452346658353 4.308754817057203
Cr 6.501590217858345 7.214467941735541 6.258326764877034
Cr 6.238639080689196 7.864911623102292 3.7160709920321024
Cr 2.4164509687113984 8.063030413948754 6.521851157827591
Cr 8.632929434193308 5.580467548414682 10.060207438544875
Cr 8.11955119368079 9.059500122631889 1.1262377862054573
Cr 4.207256634917531 6.98058461348944 2.8533966709686753
Cr 4.5782534578663565 5.181071144023885 9.373324206630024
Cr 5.866150207041455 8.40196541026039 1.222485020756213
Cr 4.684415362658678 5.464754067070934 7.095897701464954
Cr 2.1098359018516444 5.6339888819447275 3.6006105827036663
Cr 2.5903747051409205 4.022907133968095 8.071912391020842
Cr 8.761271155062497 6.437831873238019 7.692125410200999
Cr 4.226488070265933 6.416298579810516 5.163645791170299
Cr 7.8723702280068695 6.986995777075598 2.2596811880052305
Cr 4.242156687051823 4.364364065740148 3.2829018630391356
Cr 1.7960456174978452 5.775442644762927 6.061814801343735
Cr 6.907489873062337 4.18036079917087 8.711904293132742
Cr 5.89564390073611 5.9398870310375145 1.6496448260821508
Cr 8.572809434622522 6.379214576136209 4.807232763107469
Cr 9.077652022767492 3.829031718920626 8.154130438763902
Cr 7.276030391231126 4.978815179954381 6.552339767173334
Cr 6.3716834323494425 5.551467789221327 4.128356929112068
Cr 4.677652591685261 2.9617746965304237 7.88215963110581
Cr 1.6370499722920724 3.4468505856277343 3.896316693991961
Cr 3.093102314809763 3.9409900239325655 5.728040428741718
Cr 9.680709708910706 4.605181588319189 5.8097363743922115
Cr 7.088332637174955 2.259126694981936 7.037804541841911
Cr 8.231865191361292 4.845120776265968 2.9611804456603688
Cr 6.23909130679745 3.472566886864798 2.5217968893080336
Cr 7.979299226211887 3.572656707485617 4.657719746662008
Cr 4.108074511105869 2.179938249167586 4.153638319336789
Cr 5.569658549214052 3.557621493855011 5.524067312221994
Cr 9.130760519013144 1.9755043221165298 6.323028159659732
Cr 6.852655254248884 1.5118774267258903 4.449299431862443
