47
Energy = -369.61959167 eV
Cr 6.627724502190931 3.817813193991756 2.689969059441626
Cr 5.578149196115882 6.164319072168064 1.352967876540996
Cr 8.468552905739871 3.536414060564217 4.529683319919092
Cr 4.994692638004426 7.461383581191037 0.2519309623656023
Cr 3.5329858635358105 7.373310360953952 2.564446467099579
Cr 5.787182090708642 2.5361501412550638 4.6985136674618575
Cr 10.142977476814306 3.4168310867155287 6.575675369382617
Cr 6.770286534755425 8.351627695307545 2.1072752794074936
Cr 7.471079975841453 5.906635185297121 3.2280177389888154
Cr 4.761604249001858 4.902952469585142 3.5236446317766412
Cr 2.796778107878906 6.181215329993817 4.487790893007504
Cr 3.941335611136191 3.7974710412878894 5.583241634225855
Cr 3.5830619951170366 8.647419088630848 4.890856398770786
Cr 7.443181384639897 2.43783686886268 6.4421167978798275
Cr 4.593174704012699 9.302966221177462 2.6371461347404006
Cr 8.23727462341875 8.175701811853173 3.8815563000159696
Cr 9.283163005819487 5.765292420959734 5.040854714068074
Cr 3.6557705075430573 5.0040528304950715 8.155777712384559
Cr 6.582385592664382 4.821150500686633 5.237267566290542
Cr 2.017793085760939 5.129166843354746 6.462721006001038
Cr 5.5925620944968575 3.797530409556968 7.20620790028473
Cr 5.5278303789313785 7.18528844194395 4.016390549011331
Cr 1.1524841470652183 7.629813696641185 5.32205469445232
Cr 8.302904342364561 4.6971947923436135 7.0922524113092935
Cr 4.7570446652965765 2.51015161005344 9.061672386889626
Cr 6.274127628196053 9.394923651207174 4.574986764272237
Cr 2.7122091588147765 7.40866420803878 6.976091698918382
Cr 6.055244335731258 1.4800549933158167 8.352293028621341
Cr 7.331589210242748 7.101285243136666 5.85207789686854
Cr 3.4150312062426758 9.606377339055356 7.449510270923515
Cr 4.592058239155443 6.144735268995534 6.096934074819867
Cr 8.80506635996148 2.0368213677722182 8.177932504698838
Cr 4.276024495785803 10.489375891924634 5.241697518888646
Cr 10.899906508890174 5.641570779431017 6.748611563520502
Cr 5.271743374323002 4.963157162607302 9.850268384704698
Cr 6.347596060621145 6.0569815265158535 7.880987669270658
Cr 5.379896428391871 8.461303487183883 6.674246824848167
Cr 9.903104675087594 8.001417614300342 5.673289552500505
Cr 7.304439435877329 3.6547432106360302 9.076792606174017
Cr 9.978119115695062 4.36603220760617 8.996789134109962
Cr 2.004399515133262 6.400004882834222 9.008006310312563
Cr 4.511835152173659 7.383278103156129 8.761864470430732
Cr 8.029538663255837 9.318234797572266 6.416035310497361
Cr 9.052373482099785 6.910024064881355 7.677601927661065
Cr 5.990636515308178 7.251632628228074 10.2888928447581
Cr 7.095595134420011 8.372439621040947 8.340685730612623
Cr 7.921168180733371 5.995911411372781 9.637588550642253
