48
Energy = -376.12332781 eV
Cr 2.9478058045122757 3.613891329158013 8.260027803214319
Cr 3.0101072206414017 5.198262440185328 9.268893423336655
Cr 2.522118466882353 7.676392728213817 6.136506633160867
Cr 2.6562628808701882 5.745810281123684 6.752756337380936
Cr 5.493438017921316 6.283090060915871 10.40390581963576
Cr 1.000997323517372 5.974884262531263 4.779518436052941
Cr 2.711935240591929 7.9044737069957645 8.494672503880194
Cr 5.195398926684099 2.250044655814752 7.9594121218900895
Cr 4.459309143166456 1.9243003544267911 6.275138660363316
Cr 2.182933561941635 3.5353073345523676 5.7070825148197395
Cr 3.5098433875123347 9.305176068474164 4.44766739870272
Cr 5.448767343303081 4.666913379984559 8.445525228846959
Cr 4.647118285852066 4.374620915663453 6.287785764724839
Cr 2.410309680260767 8.050254614471054 3.5758817657364435
Cr 3.867675583433684 7.4725033909421725 10.45931658227026
Cr 4.741078070736622 7.065318623244867 5.511718763711794
Cr 1.2664830032606136 5.820346615882332 2.930520949173879
Cr 4.675528922630601 6.795760304384871 8.010843013802079
Cr 8.91042475061465 3.738297529966651 6.934662444291514
Cr 5.340876957285416 8.818076697168877 9.28376855344141
Cr 6.874720727726852 3.3191732431432754 6.5385956692724685
Cr 7.447291852161366 4.361465708847376 9.126512903229917
Cr 4.1264844786939845 3.2912675233529765 3.95029069313856
Cr 1.4001589014424018 3.329056820350445 4.042910267698341
Cr 3.5449915220397252 5.530838879596997 4.192864892227632
Cr 7.20125902923887 7.2425964493807 8.957133656604123
Cr 6.978158438829168 5.731102098094915 6.825716352738979
Cr 2.8391849489226844 3.931842532364374 2.070002820822582
Cr 6.330478327126671 2.6115452307658367 4.3091118019109995
Cr 9.138316408729445 5.738978550403913 8.005762617262128
Cr 4.382935415406785 9.290988842140028 7.079396689539593
Cr 8.776713645078862 3.192982722981224 4.510042723127254
Cr 6.2399652788170945 5.023352775832739 4.517053547707842
Cr 5.0203045667054464 7.561959542866407 3.2610757972145783
Cr 5.536444419187899 4.489589904413446 2.362970545348032
Cr 3.8075273028045427 6.314898586953043 1.9668088149316456
Cr 6.632447758662539 8.22184886555634 6.924060660720963
Cr 10.977868616468601 4.357347620576574 5.517098466976113
Cr 8.840135078072084 5.790232433971268 5.166382977568622
Cr 8.89192556213367 7.641666216603848 6.71797134839352
Cr 8.261882908883434 4.313719758898818 3.071292832957882
Cr 6.985816323240874 6.458972004513742 2.2925940459337566
Cr 7.126585263585448 7.3028558171305 4.636891079686521
Cr 11.119928806965632 7.135588794488441 5.321766670026413
Cr 10.937138360081438 4.903710342215601 3.746319030614115
Cr 9.328702990220945 6.807540631099436 3.1012801780755654
Cr 9.035844076127272 8.542409991755653 4.613630215339439
Cr 11.586462938502496 7.716829335076507 3.6169444999717864
