49
Energy = -388.78232387 eV
Cr 2.460631965210673 5.094898835517809 8.123098448573122
Cr 4.1242984619557514 3.5198227346076747 7.902936744659802
Cr 4.050208539470007 4.942222522002752 10.386982546064441
Cr 2.3501203822255303 6.574120637647563 6.484883852096978
Cr 2.6136516144918813 4.1590907060910665 5.645005696789532
Cr 4.140359128206685 2.6238252934192103 5.604704124923637
Cr 2.9500710281079945 3.482887092575417 3.1472660041064113
Cr 3.367102971244902 6.2650247343687795 4.124983893519444
Cr 5.798099655414599 3.083810759716318 9.824407904044783
Cr 4.107588150686345 6.783769433911089 8.193945526745985
Cr 3.31051655298973 8.47658481821919 5.246735194378756
Cr 6.088964844336554 4.933925765330291 8.7459909821979
Cr 6.550572002791135 5.084001864814166 11.359838286025337
Cr 6.244296697586897 3.835660035003517 6.5703641920799365
Cr 2.7429595928153345 8.096019216597963 7.470261146063615
Cr 5.563830834995746 6.959007862991256 10.018578450782964
Cr 4.5026510793402 5.463317862112332 6.340039806725789
Cr 7.7872971962352295 2.9079768060302364 8.380498854377526
Cr 4.945049620530735 4.519030969928412 4.1258797996633465
Cr 4.769824024431347 2.05418450378203 3.18295380977003
Cr 6.667657195296868 2.674157101470706 4.720215766364301
Cr 5.6486523839193294 1.7226744907233593 7.336653560577347
Cr 3.672772777069303 5.1341810892518565 1.7463069370376652
Cr 4.748354317349229 9.406408626629911 8.752051280416033
Cr 6.913790180067204 8.877225814155688 8.955175500930075
Cr 5.478836775506272 7.128820841766213 4.6109561880295225
Cr 5.140627027122994 3.6706222197683793 1.5294462691638904
Cr 8.691761087091534 3.6191964753514405 5.519962426855544
Cr 8.21333491158458 4.221781207468383 10.176284634677994
Cr 6.7885850363848705 6.771584248466374 7.069576758596996
Cr 4.1859539510507595 7.966594762096419 2.504513009187305
Cr 7.95668115880266 6.667708624020659 9.646335730084054
Cr 7.452118842571812 9.672530414349847 6.888205583042528
Cr 7.10572906237745 5.445145488301762 4.952783969868362
Cr 5.843292791813745 5.983661974704823 2.5870634224198694
Cr 8.371072943229036 4.9927042101828825 7.5790167340792
Cr 7.454021708446082 4.048384305961905 3.0149303461473855
Cr 5.690657307699743 9.781189733685563 4.613064044389204
Cr 5.1252032131295024 8.42960115220593 6.58570853662963
Cr 7.65222177646576 8.048273216101139 5.1822565193403625
Cr 8.871120756656516 7.5393095845422815 7.821487019354771
Cr 9.481392568630753 5.002222112106125 3.6592642736285703
Cr 6.592868774473417 8.753253626385108 2.8379852544185096
Cr 7.9862396522281465 6.70211301099785 3.144697789864673
Cr 9.259873270118614 6.425067822614056 5.676892707851839
Cr 8.094325486670341 10.6165183294952 4.498073651408067
Cr 9.926400888545475 9.176454084893042 6.0549528097848455
Cr 9.280309908034907 9.03093343491307 3.5670666629541024
Cr 10.462275634372377 11.066009449852151 5.426996349824358
