48
Energy = -379.10009157 eV
Cr 7.667319772483696 5.3275063527663935 3.7339597805357223
Cr 3.9527638983384015 4.311694525427244 2.3075589816350983
Cr 6.581060571067124 4.904148895920006 1.8271073141059897
Cr 9.399625587313741 1.7499509158369586 6.062634916260324
Cr 7.786500519146508 2.9592341504409645 3.532460135971658
Cr 9.649151624606134 3.714885877786533 4.857076207391397
Cr 3.261142502170366 4.922416087156682 4.495924965978608
Cr 7.36781858116393 7.54478399207644 3.7999370486034985
Cr 2.8300731729293984 6.793570737192557 2.699660221769728
Cr 5.606987750420683 3.7380370164109196 3.8488064719882322
Cr 1.2959999909937854 6.312796485782556 5.129530307015762
Cr 9.408154848283246 6.394383408048823 5.355574002599239
Cr 7.218864936807604 2.2204951006706906 5.7255269066348
Cr 5.191569490106012 6.39737459641709 3.1115383113850217
Cr 10.4050432852834 4.366661636187437 6.7638525594225944
Cr 4.556836733871813 8.866707968871978 3.3125996949697454
Cr 5.651219807797777 5.723448969511078 5.464655787951629
Cr 2.1681028032968923 8.544180265195939 4.126137468629924
Cr 9.499048551833226 8.41129209258798 5.261071237950661
Cr 4.796008164384205 3.558097571748489 6.39180769207005
Cr 6.281150270693841 2.5967138002958787 8.019349477246786
Cr 8.513372441345846 3.2616384192229977 7.856397167992281
Cr 3.765657202635384 7.055362756722504 5.128907142071865
Cr 7.685823892493869 4.4528582474634755 5.935446153602185
Cr 8.98966344125361 5.90975211614966 8.108628775046796
Cr 7.377768254069862 7.1526956421266945 6.541370301991137
Cr 3.76494818947047 5.2781413903119585 7.252667412459626
Cr 10.77581825571 7.194418764234527 7.348563381353147
Cr 3.7381133781048246 9.519313334945357 6.02537164166583
Cr 6.3650059293596275 5.106912032354254 7.830557337611025
Cr 5.769930029029178 8.359031018901964 5.142900495595898
Cr 10.085683254223659 4.450114563985346 9.513256305274092
Cr 7.614034096558668 9.979674413797166 5.369128871801367
Cr 2.254790321145815 7.692127220424321 6.831913085509222
Cr 4.891804114410794 7.395305751740119 7.498546643058665
Cr 8.653609020268902 8.733733796530325 7.549775106967848
Cr 4.663168930866731 4.029730930658602 9.365838632740868
Cr 8.7961872716942 6.664670883180227 10.673849287848599
Cr 7.264249234716052 4.730380742285454 9.68012539195224
Cr 10.212509801578399 7.780010436455198 9.719157526595286
Cr 5.833169213748997 10.91325536248742 5.430395090877503
Cr 4.491892466101825 11.118987294818231 7.754430015690457
Cr 7.9720193306522305 9.275013215052791 9.756142363838546
Cr 6.9476652925328874 7.290283355488482 9.14233602965089
Cr 4.869908701115007 6.527572088310942 9.545140002850792
Cr 6.160646615045292 9.459719180870442 7.58367259535783
Cr 3.5449912583195955 8.957612112348452 8.66374056624053
Cr 5.189388864330222 9.119566146574043 9.691234848012403
