47
Energy = -374.25435746 eV
Cr 1.714038722078441 8.105761120168484 4.438942573732319
Cr 3.901450825260297 8.108173504567707 3.356214394198569
Cr 2.9451498272077674 9.410795458761825 5.576630379621601
Cr 2.6246976882442077 5.707246499625585 3.7854911081092073
Cr 1.7720734146269514 7.550895922655783 7.318495174289305
Cr 1.2209259692084484 5.775663154941846 5.73703566666205
Cr 5.183649428937654 8.954316026575473 5.013328078950549
Cr 7.371058248976657 10.428421148438119 4.4102008815108436
Cr 3.5752642935311227 7.021409837315456 5.8999831968904655
Cr 4.650519140345968 5.173190881345697 2.4995485447251524
Cr 6.752429802233602 7.949093469672256 3.5523295792810354
Cr 6.4049452987545505 10.157914543430987 6.5468381293221345
Cr 4.279679989539325 8.764380272776991 7.903491384953662
Cr 1.5540990958353775 3.2715984799495637 5.168366682028606
Cr 3.773628084936888 6.421559694834753 8.452797464020046
Cr 8.82295437072177 9.392097427538939 3.477153321337374
Cr 5.278651823594747 6.267541325017181 4.456422785828117
Cr 7.299973420011411 5.713362959760944 2.7498760662306667
Cr 9.287922706965016 10.071826719096467 6.286999735644466
Cr 7.974708024420748 8.136580757273443 5.677801195621884
Cr 6.428992289299289 3.3290325895399246 2.3259125839440555
Cr 2.5009421235946534 4.865694602598566 7.330465239919405
Cr 3.7434228727080883 3.0599467263183167 3.2832253124014805
Cr 9.2051475793135 6.810176520266973 3.686920636424192
Cr 6.127420495954008 4.023180909993921 4.445458100346681
Cr 5.847796499406171 7.526085425279429 6.928702396870512
Cr 3.659384014550035 4.290654134007065 5.375971327359574
Cr 7.678910723869817 8.585618798695231 8.273907973499789
Cr 7.396959569134644 6.030902735743354 5.31104350128818
Cr 10.426092164757202 8.286906061653935 5.091415324667898
Cr 3.2946776036021537 2.338152687929096 7.2686327539038755
Cr 5.63141931948523 5.104860596288442 6.843863629015746
Cr 4.631882902384984 4.034892463057882 8.725221381113549
Cr 3.3770120148447482 1.5393012028928523 5.384218404496887
Cr 9.81689863310601 8.080131516357206 7.746830086163614
Cr 6.0316887819759275 6.495576744480494 9.146771079452527
Cr 7.920991550082135 6.223819852792402 7.862923105811302
Cr 9.630138903343175 5.969241134608496 6.22357781449966
Cr 5.548777464123303 1.397542674993036 4.009544624028691
Cr 8.606739214487966 4.155813414365213 4.073046848224364
Cr 5.548639757878402 2.707253046730908 6.494452682855057
Cr 7.161370846544773 4.08493198079764 8.533447833621151
Cr 5.819535475169386 1.8813589140289273 8.755654020053099
Cr 5.424800963845399 0.2988128494046413 6.549179360446947
Cr 7.95433220113529 3.8258227842695005 6.444665412890839
Cr 7.339185239542766 1.8411947794547614 4.919887201125981
Cr 7.782119866762594 1.6999309140681886 7.540289857691189
