43
Energy = -340.86044832 eV
Cr 9.309102275539937 4.153180191172409 4.536763988575831
Cr 10.047231259907743 2.949441461684525 6.983354452972953
Cr 7.2182916234541565 3.4076362910139486 3.039270685639033
Cr 10.989254344722877 4.5771171099939965 6.592290236224411
Cr 7.443364642806581 3.0660148253925885 5.453560073056695
Cr 8.632418588630253 6.164741178150591 3.288170898573386
Cr 4.5325216156012 3.1316757691950152 2.164354651098292
Cr 6.4252311047669535 4.914336064079589 2.0345553736419917
Cr 5.4005563753220365 2.033433306448737 4.508461724836153
Cr 9.615233370124603 4.578206392333625 9.023658902996152
Cr 9.370044539113097 6.7537727344490115 5.698669618275763
Cr 7.133821084877385 5.552566977186595 4.612431427413593
Cr 7.5922138835414295 2.824533109509988 7.739977108862449
Cr 8.506829024656419 5.0291149590624356 6.831729072699006
Cr 5.1115150167707215 2.799631186644191 6.838067315594142
Cr 10.27138164153023 6.672002592619288 7.990827639915817
Cr 5.016514758583399 4.40831451851847 4.573101796364467
Cr 3.0475180784087255 3.1214190534862523 3.3266100920448687
Cr 7.356922303872601 8.12409992564322 4.3877656642396445
Cr 5.868959498949239 7.095823418216781 2.9942086664547847
Cr 3.894488756734264 5.6610366789169495 2.8550507376511853
Cr 4.393687196464526 3.9826650083626314 8.76247467940558
Cr 4.83078026565566 6.964949364471003 5.142981264286878
Cr 5.1327994119812335 9.27180015264045 3.416105826033239
Cr 2.5556079613968423 5.367834157628394 4.520155496901301
Cr 3.031795271908461 3.4824493964937653 5.926920759978589
Cr 6.815377435962628 7.170915063096342 6.564843802995569
Cr 6.942228778472588 4.650617040885264 9.156713889503969
Cr 3.2069604005062664 7.902711334908074 3.721744640403366
Cr 8.135522706171699 9.030378871866908 6.92088039945053
Cr 3.8363057082840593 5.364644123494404 6.882797170702099
Cr 6.131285471456613 4.8889109939750615 6.860080513377605
Cr 5.790607682374894 9.49075662136902 5.813427003214979
Cr 8.025640383379681 6.758049430661842 8.479926029056424
Cr 4.314191504822184 7.978669927089133 7.323478456654478
Cr 3.613342397196688 9.49256037627254 5.51810491482463
Cr 2.3064645182721724 7.196183803033629 6.041711645609725
Cr 5.436385680283902 6.505396276617755 8.73663677391724
Cr 6.412462738040292 8.894486046573556 8.531362471609796
Cr 2.813029372067785 6.613382980356196 8.687059092433996
Cr 4.42317177042244 10.55087399893535 7.860271307117003
Cr 2.6500474377897314 9.720683957722812 8.009104243047933
Cr 4.47445436637166 8.73411682584767 9.825884894970825
