47
Energy = -371.13512426 eV
Cr 7.778418836982285 6.95020334725996 2.1449164027758103
Cr 6.792862287421061 8.93137361007864 3.424007720853551
Cr 5.1781007257007285 7.6617454614458165 2.5520622905995864
Cr 9.270520299809967 6.00395745467491 4.475780319393825
Cr 4.803569341070959 5.409878206373785 3.6060049132609464
Cr 7.6420620582683645 4.219973892748144 3.1300749171955955
Cr 4.587155709353066 10.075938181690562 3.7802765534415452
Cr 3.7735706523538237 9.808394340894845 5.966675274091551
Cr 6.8732060483222845 6.348853882732491 4.121323486946091
Cr 8.020644061603324 8.11495629654841 5.552020591970564
Cr 6.362581600253157 10.338878037163559 5.601318056506942
Cr 2.6809181614645543 7.632966348183838 6.259746179866217
Cr 3.3445899474782337 7.649221023594853 4.079684970275507
Cr 7.123305846262545 1.898893721716453 4.1484851605068
Cr 2.4778480819012487 5.271966088764022 4.775005370956567
Cr 5.362371332300526 9.62123422075482 7.878240547837456
Cr 5.262823426263331 8.128777157283205 5.366580711565162
Cr 6.658545889383742 7.764310041856775 7.317069954025207
Cr 7.890419496558061 10.442310547993317 6.851517720279155
Cr 8.705494130818453 10.290325722890065 4.19452244020668
Cr 5.3882105924058745 3.194886123494344 2.4244184778747
Cr 3.0888752362522855 5.196755137599715 7.619162531587755
Cr 3.707235871124495 3.081504972102757 3.3116640804077044
Cr 9.391019835059442 8.165103227797113 3.553923421002375
Cr 5.839958214743097 3.9628765756563142 4.93290006989154
Cr 4.024303529149871 7.697783769334614 7.95360667780372
Cr 4.632509675754734 6.040628638363754 5.922332572110413
Cr 7.713847213624324 9.17401540654448 9.224345533282152
Cr 7.280573016336852 5.479183123308868 6.395988646018826
Cr 10.53219952716169 8.432450599302857 5.735501991769794
Cr 2.963761264150811 2.7234327185835943 7.9266371540259275
Cr 5.63875490991068 5.903376420586239 8.322289278883549
Cr 3.996268593326192 5.153524433153296 9.819158715186914
Cr 3.7919942214585394 3.5170395721474086 5.6211227049326
Cr 9.166583920320054 8.695833472018666 8.061073881020413
Cr 5.641397242169862 7.672047718741764 10.031603566982836
Cr 8.022786822187273 6.444826292336283 9.011751858380562
Cr 9.278605432365788 6.505321683537346 6.870099840461734
Cr 5.339392169216141 1.421665253135969 4.67538337514145
Cr 8.548245679886557 3.861544716227944 5.519229351494224
Cr 5.326364635898316 3.912581285389888 7.611627865402201
Cr 6.407386716186662 4.559919007982692 10.198661514338706
Cr 4.613786227362967 2.5915528221981448 9.811271963491023
Cr 4.3278613409496245 1.57565481578785 7.263296231081522
Cr 7.937365540249686 4.294349439226582 8.372930035386483
Cr 7.013619916837141 2.5645889200965652 6.71613641290779
Cr 6.3349672246243856 2.116009521520474 9.17707357752922
