42
Energy = -330.14071466 eV
Cr 5.957403200623209 2.4220095311186167 7.544685013408897
Cr 8.300407855089816 3.4176280234275236 7.5126888325641605
Cr 10.59304492419101 4.253090814122018 7.286874305385865
Cr 4.407347420280759 3.4071293088336883 8.348166858893082
Cr 2.24872682363138 3.145120528740918 6.91077060402691
Cr 7.103390530396196 3.459875307037274 5.439931268055609
Cr 6.869704974425342 4.549366399156054 8.993721266399197
Cr 9.470516150250658 4.208384980746561 4.949851992308432
Cr 9.266510042551088 5.721026398513366 9.074008845446269
Cr 4.8005650922499425 5.7150108452274235 9.241539126733175
Cr 4.247155325265828 3.285542521735886 5.57150855111095
Cr 7.6511383607732455 4.641402939420325 2.8654013570731167
Cr 5.464694778463508 4.179583949931204 3.9103006379914005
Cr 3.0471953530960376 5.222432771013431 6.970402644400727
Cr 5.61956286922624 5.121132442212002 1.3039758222869602
Cr 5.650572722132827 5.003314500740038 6.684888118632422
Cr 10.78506311820445 6.084636989369631 6.607335629678785
Cr 7.071209438466804 6.625219923506957 10.634546688651353
Cr 0.6193711258752367 4.695118825824996 5.787524532849726
Cr 8.334134131205836 5.587229586059916 6.763475947158547
Cr 6.990171089150049 6.877263852835274 8.145652625797306
Cr 2.7648786337586606 4.188573104151158 4.36112328914836
Cr 9.53817048813068 7.663066127209679 8.128241985779235
Cr 8.111775501172078 8.245974507784021 10.131138413305237
Cr 3.8569026138388494 5.104842382417621 2.2404439099059124
Cr 7.277127044042789 5.851467182375767 4.659760736397068
Cr 9.537634374204952 6.353881186380779 4.3396246535688565
Cr 4.575266163770796 7.2034012184458645 7.590789034707394
Cr 1.4811194206072207 6.4412547633667065 5.276859408534889
Cr 5.431920934099556 8.658973996940103 9.289622837645963
Cr 5.96629709934567 7.705747869250809 5.835172000336806
Cr 8.08997676350785 6.5860210671107495 2.2723226901635587
Cr 4.260297435317379 6.140546961860129 4.855633641185656
Cr 8.601260806428463 7.933353545726982 6.010887176628881
Cr 7.179420618675506 9.103911391044043 7.711675252199432
Cr 5.623374757591719 6.879475305201807 3.13427694074134
Cr 7.438118561240356 8.141824936479964 3.8901185776232596
Cr 4.7626000657713154 9.73313041200549 6.767319167969934
Cr 3.230634289446874 8.157018474990494 5.796154395974064
Cr 4.8060303414466485 8.891460751539242 4.15919447937188
Cr 6.658154514026561 10.173736877372564 5.3644652286912144
Cr 3.921290745120714 10.702404287348148 5.007338583987541
