41
Energy = -322.82953744 eV
Cr 4.701534505746657 6.216992431999307 2.011239191899503
Cr 2.6852273294350515 7.557123553222226 4.304002768222327
Cr 6.631392200445151 8.334221908637419 2.2757740669237077
Cr 5.189195065756184 4.188496399580933 2.442820959889614
Cr 7.181650408100256 5.8628788703771395 1.911022061972515
Cr 4.702306289107929 8.035567104656545 3.520212661112574
Cr 4.150753292762792 5.512811402383957 4.450189856428924
Cr 2.985603419703602 9.547511630062182 4.734963859503016
Cr 5.145041435509385 9.893088772501095 4.807022006665662
Cr 2.559650842130754 6.044324462490081 6.319511372376694
Cr 6.340306213860077 6.300962329356234 4.2324420150340725
Cr 2.3252504573096275 8.354039985913843 6.9026100231958445
Cr 8.591017356376991 8.003049993628466 2.8644724997140463
Cr 5.6138862440515735 3.633914580571433 4.9028061654640664
Cr 3.7123838324539493 3.4373369011071264 6.388747343295599
Cr 7.553480316871553 3.674987209207912 3.769669352470292
Cr 5.094908591387422 5.595817035124012 6.472522731716859
Cr 6.974268891662727 8.539557115676002 4.797863650543712
Cr 3.934907832097057 9.856550502008716 7.2125310371893985
Cr 8.915719791099626 5.47256741226863 3.4558323235787616
Cr 4.698261476741092 7.885255483969837 6.017937617827075
Cr 8.817111078477412 6.846749421975593 5.243777926902158
Cr 6.184371220059106 3.637075754354935 7.5633766587658
Cr 3.6520132808031156 7.302527235839554 8.232852605466956
Cr 5.588040564553274 1.4926856298554416 6.613669715936564
Cr 7.55536528056546 4.9909548115525615 5.935890426604375
Cr 6.599645022792079 9.627759229720056 7.000985319004841
Cr 4.459116968688025 2.190996460546013 8.895283800735202
Cr 8.585540597388997 8.569602162038112 6.578534666971961
Cr 6.937222654648816 7.0490009950990835 6.864165847371185
Cr 7.46374080614806 2.256733514475126 5.922543033877132
Cr 3.6501303454057195 4.658735549440285 8.383282139407646
Cr 9.75415177638472 3.936037780561522 5.645836371794424
Cr 5.665743959688632 5.999183592070889 9.037163836977697
Cr 6.88977717545788 1.392506795110306 8.522540572820093
Cr 5.554941118706697 3.4983693108334175 9.891828245323314
Cr 9.378544227120262 6.063553900064049 7.5339831793060705
Cr 5.345461688442013 8.486373260970009 8.526412880129259
Cr 8.632554278816482 3.49287276040545 7.773990148466932
Cr 7.925827145936208 7.864368693322035 9.000850490647387
Cr 7.623647456497344 5.120497401509245 8.836271583253462
