43
Energy = -340.52043284 eV
Cr 10.085195042164331 8.03950387730089 8.173050093354178
Cr 9.570443468276274 8.41203826370272 5.84598533766597
Cr 10.34208026221463 6.018465082485993 6.248099165908312
Cr 9.241699867925695 5.525211050258516 8.99177066201998
Cr 7.699014692664951 9.052480007127057 7.336195922232473
Cr 7.939432868845378 7.72070665007658 9.384791260730049
Cr 8.503068215080514 6.819280154062712 4.310846369762952
Cr 8.041882981837318 6.407889606803527 6.9133788834358585
Cr 6.754935421993617 8.391399536492356 5.237417444536416
Cr 8.243359698756153 4.341099557448991 5.370222754133205
Cr 9.454701886115428 4.032807218740463 7.346594340040246
Cr 6.644262144896891 5.667486862301586 8.969729237994851
Cr 5.723273964964958 7.65716629182775 7.690768234058154
Cr 6.1805724462521505 7.243214589280058 3.1958315251346985
Cr 5.0343643677713 9.656327978115305 6.657698246495674
Cr 7.0058231682486385 4.832801127580988 3.361235482092821
Cr 6.1411114430190805 5.978810788265484 5.433854699189324
Cr 8.321416994131258 1.828252586076854 6.790707977138125
Cr 6.755406564000086 3.778383236062398 7.209411271950381
Cr 4.754424914323818 7.430506899688371 1.7102232718980586
Cr 4.692517869745127 9.36850687100391 3.7249237958467614
Cr 7.586825169008641 3.459725327863434 9.027419205072796
Cr 5.22317602227704 3.768260541182947 5.131573175496059
Cr 5.782329694776546 5.1417315552767064 1.3355596746511595
Cr 4.347408394979929 5.484720065584766 3.461177625286277
Cr 7.299007674896793 2.3032398869396866 4.776364063143527
Cr 4.284926514592286 7.436285970191283 5.387698434431573
Cr 4.876623847330574 5.3992142701194075 7.173782317680164
Cr 2.95490589978526 5.918605500503767 1.1880992231518452
Cr 2.6433170799386767 8.987742356152602 5.650758664048501
Cr 5.319484277319599 1.9307811314302727 6.54479572203897
Cr 4.399102325034276 6.110137462367852 9.611173343288675
Cr 2.8378578659716647 7.195984104675168 3.4811096612812533
Cr 3.5144619126309684 7.413285320384842 7.530847771886761
Cr 5.68240891107197 2.8464840024017413 3.000457996054336
Cr 4.851797376979867 3.556916400276013 8.809286176925738
Cr 3.596072096462331 3.6927845326144624 1.854428507955553
Cr 3.2538747267670476 2.9810791259962466 4.322147461080472
Cr 3.2135230233231558 5.340449958631081 5.49904851111578
Cr 1.7103016278046992 5.245792323306498 3.6305368688094566
Cr 1.5475704040665035 7.050079396265282 5.631386345297477
Cr 3.2290619693958145 3.1948884941928357 6.958822998077789
Cr 2.49836796046654 5.1088015562497775 8.065602598921028
