42
Energy = -329.48469353 eV
Cr 5.602837928278713 3.9075734970140608 1.162714107661658
Cr 3.7804974259442847 2.273284592528085 0.18163512227102305
Cr 3.52942955583157 5.145635514786708 0.16495490316563247
Cr 6.023140296147058 6.136370332316904 0.8775951004156594
Cr 6.541475025404133 1.308985289690193 1.1296256755840532
Cr 0.9553440680003562 3.6120322440540917 0.9285220217441823
Cr 1.5933855809525848 5.760306780842516 2.3373014676321047
Cr 2.9489856412341635 3.613831251978366 1.8054171474661462
Cr 6.975212885224771 2.727533522530442 3.094531274330437
Cr 4.964370355409557 3.8901557495226897 3.5635227319648384
Cr 3.5325254068008825 7.757090463786443 1.438031361715446
Cr 4.645948421110128 1.7466735985714386 2.30302353878215
Cr 8.582949714491212 5.017044645887582 2.422327345499919
Cr 5.817300140124842 7.552571537778253 3.267037518714913
Cr 2.003004595914132 1.430195035675993 2.208224969540234
Cr 3.8861406003235275 9.413885958238755 1.7329228958697491
Cr 4.263807353998173 6.027710629267184 2.310377571456331
Cr 0.8696832976578484 3.4443974346813118 3.452628694482325
Cr 6.771407003777871 5.423111825515163 2.9309036601231777
Cr 8.319209382594485 2.9843149410256924 2.581144616679282
Cr 6.252532043584739 0.12799969641609615 3.1376687303790476
Cr 3.6130127538100414 0.03990304635593183 3.994226734427695
Cr 3.052786733712255 7.276865109568424 4.231685943521155
Cr 8.940811897055188 4.084126497768893 5.115749881628413
Cr 2.978759514155229 2.2369264743247883 4.225488098485965
Cr 2.889672671071452 4.774360123505662 4.259341073391276
Cr 5.489738324482231 1.6193969688554806 4.623405449530995
Cr 5.140187923979629 6.069969307998735 4.9263459836172965
Cr 0.9112687285041926 1.659387680042321 4.782960318656278
Cr 6.824737997236481 4.063303021424174 5.263004160943925
Cr 7.557634240061846 1.494600303673027 5.67356288233024
Cr 4.307414311259439 3.6722049050782375 6.075536701254918
Cr 0.8659590496191282 5.839695201296233 4.7016716572959
Cr 3.335948413353318 1.638498541663078 6.447759804127034
Cr 1.5855989867911473 3.5925599559807435 6.05584559090395
Cr 2.8984585826250413 5.853014896066127 6.50663074111383
Cr 6.122102462238021 2.324438653663717 7.086908885089395
Cr 7.40848949441257 6.214189454695266 5.157140422167326
Cr 8.319209382594485 3.902337196083357 6.803424000122817
Cr 3.0813463516055832 4.1319224802435555 7.868328172211723
Cr 0.7948117161277651 5.437526706277164 7.027250543515349
Cr 5.6036001864552345 5.261710997306755 7.084717374181228
