44
Energy = -349.75614603 eV
Cr 3.943695562678446 5.8298771873001405 1.218468309057055
Cr 3.0880127322443016 3.4233479088948147 0.22044937821684957
Cr 0.3316208105388506 3.366447988715461 0.7495539952481008
Cr 6.730081387565851 6.608938795443813 1.3828193771704689
Cr 1.8763542217889868 5.652925886158415 8.904065944190188
Cr 4.6875914016512334 7.714638843234668 2.5698535254093584
Cr 5.500793143096278 4.420784598988936 0.31657351479638507
Cr 6.7880742331467685 3.0028737478516003 1.3220538653076157
Cr 7.281706199034873 7.454591552728444 3.5081746398661
Cr 1.732599622563395 2.2193045680794636 2.056018813324645
Cr 3.562383931360251 5.683822800559173 3.715669260756039
Cr 1.9531228503069216 7.0889465231063005 2.401097028532351
Cr 4.251364905034528 1.6758855680494105 0.8491222600985002
Cr 8.32697889572224 4.839553862814749 2.4625684345765064
Cr 2.200435469440156 4.4595940890566155 2.324755116560283
Cr 0.17281268305147196 5.534867032448801 1.8125601799932898
Cr 4.418774910669197 3.3163740896465077 2.662705648418801
Cr 5.882518635765846 5.228865636643264 2.935334968549737
Cr 4.593888336284505 8.620750865212248 4.592624340010294
Cr 0.15298594670080295 3.679682281232187 3.6556311760977773
Cr 6.02966819629548 1.30437543986524 2.832333822127266
Cr 3.601919530580995 0.8017268297587379 3.330215791044104
Cr 6.967407578125039 3.3045478811556657 4.007660906342625
Cr 1.1317177705286214 1.077131607863553 3.8656345156603127
Cr 1.1460707590576191 5.7113999132072095 4.527824180659706
Cr 4.886599183953683 1.9222065892017615 5.00027143311852
Cr 3.016850548481415 7.799508791047366 4.91987520459271
Cr 2.5679236126403016 3.2220575029813845 4.53690687841765
Cr 7.23763159672018 5.283981062330798 5.270360274246407
Cr 5.360430499673834 6.779724721870228 5.089258865001776
Cr 4.895056056894615 4.30793558670641 5.07288786050251
Cr 2.711149775220678 1.3181889328697678 5.938140210766866
Cr 7.09537854128542 1.0435439112971763 5.330878025022474
Cr 3.223425626462396 5.631224578063397 6.192872726996769
Cr 1.2249438707900573 6.7114645161511595 6.858143152481985
Cr 1.3298751456511355 3.9234706914236095 6.431962286037875
Cr 5.045642076569687 0.930802500674671 7.191700559997222
Cr 6.343241758710787 3.2238157875199303 6.565133688565417
Cr 4.372058497187693 7.2650899713270825 7.139818142092561
Cr 3.7158790802815886 3.1519800282143495 7.074071771597848
Cr 5.4833298530914245 5.244274992078192 7.281066333579289
Cr 7.069601606967932 1.4795020553215734 7.9681681095338055
Cr 3.246657538856065 5.031273857614121 8.438859462939886
Cr 5.277679692787939 3.1369083469875374 8.904065944190187
