46
Energy = -362.63856222 eV
Cr 1.2047394603183905 6.669289024218415 8.481888259666695
Cr 8.925641044973899 5.728711447025383 3.612656982307223
Cr 4.676966623588273 2.938267881866855 3.8981728262098922
Cr 1.7783804390357394 3.9340756450707164 7.60538191103485
Cr 4.805771949149277 7.5174620790917155 2.8777239273787214
Cr 3.428900798525773 5.976993059958776 7.274996835208927
Cr 6.21830649881666 9.136913393420599 4.778592164996754
Cr 6.7803006131180155 3.910115976146506 8.081949507119077
Cr 6.768143107865409 1.2161851152629695 4.115020612732162
Cr 4.0580761252972675 3.636868745485074 7.941184750395944
Cr 3.6768076082501984 9.32748095764609 4.453829420623431
Cr 1.318255887442184 5.876527598467637 6.34369112473968
Cr 8.914619165407059 6.587203842779899 8.145813767188317
Cr 4.826358054068793 7.314384376018506 5.681101590267449
Cr 6.908716755729891 1.9872918227119127 2.3618754589257978
Cr 8.048261792835879 5.2122642017066685 6.101395276106598
Cr 4.079711859766573 9.85420396940305 6.253096825683939
Cr 6.820035582962359 3.958481301593366 3.9374746882974505
Cr 7.929536104420872 7.850512114635518 6.030905417071817
Cr 6.686704485634638 5.924322461817 2.035850533440227
Cr 7.360746425309207 5.684758830694441 9.351348666092862
Cr 4.740297491530914 8.095148827434132 8.288737192394809
Cr 6.378045425968569 6.41194873955918 7.482768568629536
Cr 8.886866609878506 7.005478802849246 1.5836662465137796
Cr 5.311015399566659 4.388063390517118 1.7535221050641396
Cr 5.501388931449912 4.649084417627798 6.0350044339694895
Cr 2.860416398375568 6.755158194092209 4.697204047324044
Cr 8.255212595937735 4.22308000606495 1.8028360452031362
Cr 3.1194722872305394 1.9812480786423168 6.2221632480635565
Cr 2.386465175914829 9.404126812516878 8.528313089333071
Cr 9.167567246632057 4.492304535478691 7.867963332967671
Cr 4.77300888908754 5.401807575762909 9.389812862199099
Cr 5.365155559205707 2.4152769698198218 5.997618579472537
Cr 8.798957625762572 8.223564220483535 4.093633174235814
Cr 6.76877207571861 6.521734627366769 4.446476366622925
Cr 2.3677077574592182 4.699357269066686 9.663844066416411
Cr 4.58882870160495 5.424819664780361 3.693939573084506
Cr 7.082374910544822 8.411125012024236 2.758227179585996
Cr 7.7051938521232195 2.854861269150357 5.901245153128564
Cr 10.002357580767796 6.514951140102047 5.804312778862502
Cr 3.1318529755806948 4.083095733749774 5.5020980532263115
Cr 2.492705295765991 8.244195206707724 6.8271021200941835
Cr 6.281568432501202 9.023288877298626 7.484571837944568
Cr 9.282096636176115 2.851703284675615 3.7451067416953476
Cr 2.9015091867828526 7.199673676737078 9.382177884395556
Cr 10.07991416090379 3.926321407458776 5.1274363590710035
