44
Energy = -343.37715311 eV
Cr 10.84123283733372 5.7125296786931425 5.8041005760913364
Cr 10.215149296756113 4.880204641628144 3.8659777964441573
Cr 8.780577556540168 6.603730551593022 4.11203577497132
Cr 10.61941909640158 3.762353043247084 6.3447303477726384
Cr 9.143264841273764 7.790951609482533 6.414278121988353
Cr 9.69517280384004 5.343931744394452 8.176834750531489
Cr 7.757750406874991 8.760738796451037 4.599524286644063
Cr 8.139000879708174 4.945284135227455 2.2331216239293146
Cr 8.542063484291369 5.0982929668469765 5.9319237332746155
Cr 6.791686696640365 7.244555249932939 2.5888843932085632
Cr 8.872200183595247 3.301697921489737 4.4047765510429056
Cr 7.482042700198463 6.8899642282828575 7.836138787103385
Cr 8.463997320627946 2.9686033331590345 7.191919147906049
Cr 6.46581586833153 7.0555790183099 5.425615173022395
Cr 5.490473795824787 9.185065352400331 4.155670475527853
Cr 7.441341562924394 4.6123943861873204 8.623698090248613
Cr 6.457658714451652 9.128305079207056 6.883504282666766
Cr 6.434983622091363 3.095626205625193 2.906668930228581
Cr 6.650107774295066 5.014668791443903 4.011723579847201
Cr 6.029130499235984 5.180616822197451 1.6117422875465852
Cr 6.156792038048795 4.5578976143658965 6.758871367753875
Cr 6.969333358270889 2.7834537847083065 5.5444954253444
Cr 4.839104211503787 7.140980610355814 3.4688827011942496
Cr 6.0526206434265255 2.6162048169839163 8.276973158133666
Cr 6.5735909786192614 8.719351690801847 9.287966803983984
Cr 7.375742349720546 6.6611269626406475 9.960395615409238
Cr 4.197165674962314 8.295800292432618 6.0030599814765635
Cr 4.037880886054917 10.591845815313143 5.726666862912278
Cr 4.2044793426248726 4.87129168918681 3.1155883851198816
Cr 4.548834512421744 3.100984207330227 4.373447667585356
Cr 4.237970848915671 5.577814564681221 5.521039002286951
Cr 4.548156243748346 2.185332716552243 6.526229128023116
Cr 3.1497768272003484 9.424333428404672 4.02533503301597
Cr 5.191505972709587 6.706435273070255 8.014032833996016
Cr 4.583720206769207 9.743007166097202 8.279531165664446
Cr 5.210959434511859 4.904249864071896 9.588328480991178
Cr 3.9463598459241647 4.2250223291454505 7.743914983271708
Cr 2.631976889969031 6.949469429407343 4.434452812486343
Cr 4.790855999459857 7.57192038400779 10.159928433594125
Cr 2.144615106981626 9.04897121463157 6.030791795963737
Cr 2.61728802791608 4.199192273817379 5.687895727593828
Cr 2.8430959803395046 6.333053762228971 7.285019405600242
Cr 3.1848346990451994 5.988652604565894 9.534442476995897
Cr 2.7185639334505396 8.249001055412402 8.56364028477962
