40
Energy = -316.08261956 eV
Cr 3.7318987887101778 4.965777762668961 9.24416023734071
Cr 5.673737740031779 3.3405079446669443 1.323542922580145
Cr 6.048758225417498 6.059822733362852 0.9993517405230335
Cr 3.096010410801019 2.6654940606583004 1.1910667898038476
Cr 1.6700751781387118 5.316598412962625 1.6811926042311436
Cr 3.7400793519205724 7.248018340137839 1.6297751254693198
Cr 7.526570069044931 2.218350336769074 3.128443565222744
Cr 4.0208095485783755 4.897344012871569 2.076794415215837
Cr 7.641668378955581 4.722897045019986 2.0248919329306627
Cr 1.4084986914660729 2.6192152028728968 1.9406561299550693
Cr 3.2930662943789515 2.636339155305171 3.894282678813453
Cr 5.2699514371792535 8.499343603982526 3.6120312572832756
Cr 5.157270760317247 1.3306954548575183 2.3228366546945325
Cr 1.7499484943069519 4.8764785004940645 3.6736587904641493
Cr 5.89790024703799 3.5261383852191317 3.797698681705782
Cr 2.811486552703144 0.5905761870363744 3.1004523399848027
Cr 3.193723693068739 7.049016835217489 3.436655045625683
Cr 7.941027251736814 7.162158893136923 2.6360579022736106
Cr 5.952241647078364 6.3354537865336535 3.4462141016066923
Cr 7.942780242677443 4.865392600283504 4.250898187975387
Cr 0.9023218770267037 2.6789113551134722 4.3889333548123695
Cr 4.0147184727479175 5.005091652247826 4.510691882994311
Cr 7.085741110971172 7.385721465933568 5.40959296196192
Cr 5.255073632420481 1.2237140525422479 4.582765152343054
Cr 4.631981452896011 7.324367746667189 5.701993899589371
Cr 2.0758412790232446 6.400062727691033 5.701368544396941
Cr 6.108743691060655 5.1701024344085065 5.895000916655974
Cr 7.165816911601568 2.813526410564519 5.98406945153946
Cr 2.12937943389099 3.841282104466313 6.149003116425788
Cr 4.631440863037634 3.1504065961675876 6.106156198782236
Cr 2.821240599764207 1.4625849005689202 6.006182805601537
Cr 7.760284474934284 5.113766106999861 7.080070503415757
Cr 3.9164764669119343 5.343873525613085 7.13015754682135
Cr 3.3455205196946736 7.619253902730024 7.880051894320256
Cr 5.934040994271793 6.735847709447113 7.912325891797979
Cr 5.265308346009527 1.68249461579692 7.372348341550507
Cr 5.88946728001783 3.978637914523452 8.200197952391862
Cr 1.658231368189011 5.304298827828244 8.206191377931527
Cr 3.285377707211273 3.0936524310083287 8.303920038678937
Cr 4.084081552521374 5.475375303376662 9.244160237340711
