43
Energy = -339.58338155 eV
Cr 6.844486451567174 10.712782371264744 5.97301851181536
Cr 4.350874492257549 9.693016978295358 6.113968622726434
Cr 8.65845932743343 9.83868660805524 7.866168960980998
Cr 5.987931012758017 10.489754076167035 8.036943844034887
Cr 8.48478631991017 8.913095621572243 5.81878045275602
Cr 2.315369258681845 9.757209282496438 5.000705726460358
Cr 6.117616074185149 8.75284690388991 4.651582775053711
Cr 3.746203927193392 8.272367085901225 3.9378179269267544
Cr 10.488352470733119 7.603312852630812 4.418127923792502
Cr 3.735138830845206 8.876082616401726 7.864199567636281
Cr 8.409997772153616 7.516794833248848 3.5662217978717314
Cr 7.01597730940486 8.882216955937736 9.900047449435135
Cr 6.280688970940736 8.39882836083721 7.150088926531373
Cr 2.2966669004035767 7.928117486956532 6.120194041734124
Cr 8.110528342709287 7.449294668472924 8.266292469597985
Cr 4.57413655721168 7.034514172223135 5.978019595464904
Cr 9.97573804324189 7.401808596430717 6.711019363918427
Cr 6.100023283566618 6.873411949354443 3.697663480841903
Cr 1.7813493837099823 7.053278583558497 4.066314203076941
Cr 5.408050195338512 7.271467134607414 9.113495761818191
Cr 7.412554516329275 6.572203653661822 5.806615726364309
Cr 3.4662027110081812 6.317301957817473 8.086891170888755
Cr 7.3451647325970795 6.145825385444361 10.133185212815592
Cr 6.121093226701159 5.587191099532504 7.753400144407541
Cr 9.284846461014137 5.400219362729726 5.123153325385019
Cr 3.951818230988562 5.791109644323259 3.4802659142891805
Cr 5.473796770077102 4.874054585860312 5.036826342947986
Cr 2.810771363869302 5.351106798307075 5.446506326068785
Cr 8.830937505833935 5.155891544761546 7.698941058655343
Cr 7.591612541114134 4.870072428413468 3.8024052988389156
Cr 5.0357988720904086 4.809471200040183 9.564956723677186
Cr 7.390201765778378 3.9412875009280923 9.107201833480223
Cr 4.396913665814691 4.382302373191846 7.053046486200189
Cr 5.855289135901695 4.70746438108949 2.4284741390904854
Cr 7.2756012502583545 3.833519650067973 6.250056616558094
Cr 3.8215599481612936 3.555921770343605 3.5809019950003376
Cr 9.976254133258216 3.6475048851374936 6.3816558524833455
Cr 8.695551579907857 2.3786646585590367 7.691388996686459
Cr 5.908113439251134 2.74958234049888 8.119431463191292
Cr 8.514101152318938 2.754920559336796 4.897026000610608
Cr 4.965657798531878 2.322569792561506 5.7544838086752375
Cr 6.079655998868218 2.753520104482857 3.9980302262595906
Cr 6.923592330430093 1.3606118873113824 6.220476619821442
