49
Energy = -388.00625103 eV
Cr 1.4341015561736181 5.98935952278603 6.650177116729749
Cr 3.0401197187091187 5.709922477095364 8.440556168249527
Cr 1.9157292596027702 3.394474203652156 8.053185056783718
Cr 1.7501411212180713 3.635730356240055 5.651417029859185
Cr 2.799359913629561 7.368229837811255 3.085067117245637
Cr 2.9241812983631976 8.277005285205323 7.685885325471001
Cr 4.009947128574096 4.121260489009861 9.825487378104166
Cr 3.423510939560945 1.889586289493356 5.947075658040001
Cr 3.0679844262843923 5.992251689890451 4.936194747041187
Cr 2.7881404175566002 8.323053108066429 5.8100079356044185
Cr 4.319978124929968 2.373603390343496 7.995236717168667
Cr 3.694572167323445 4.448550647411483 6.667485124126215
Cr 4.869948147661977 6.763984947092151 9.436726468132646
Cr 4.117805153424418 9.395885721662868 3.642259441371326
Cr 4.779385669928066 5.837282128905825 2.806458394500134
Cr 5.415037177971342 7.897072751739112 1.9917351896527005
Cr 3.771590754863293 3.892465799452163 4.059664848259407
Cr 5.0723857578637475 9.545182316216641 6.280776437691826
Cr 6.030328731768531 1.0786862473054175 6.926461896050451
Cr 4.9089828251715995 7.611289598007019 4.51789844546815
Cr 5.725388005839071 3.226170654019758 5.807038680292106
Cr 5.629237663277356 4.745694857734382 8.00394989489861
Cr 5.376179980312728 1.8232390671022518 4.200206747584417
Cr 4.870219633547419 6.9313822414001836 6.881866993457291
Cr 5.599301328677185 5.448189661634438 5.204261348868454
Cr 6.393929481034393 2.7543450620871948 9.219033148875761
Cr 6.4954854212568565 9.500901024295027 4.131333993434511
Cr 6.200365432752915 4.915675767779754 10.503098875991055
Cr 5.687161376250963 9.03068408368123 8.00239968931962
Cr 7.845158922803856 1.8268290428750606 4.93573923003615
Cr 7.370755826310906 5.954162035016368 1.679864816723846
Cr 7.31938739603537 6.815742096586476 3.8028576358890738
Cr 6.348113627063825 4.085815572744051 3.1224791859595844
Cr 7.714317469878731 3.0076583078363552 7.2502059202612275
Cr 7.179673740621638 7.866627514348125 5.992578959956838
Cr 7.018954560697815 6.96568986819086 8.621351400426855
Cr 7.3407684819248145 5.534290461527815 6.567358646464124
Cr 9.073489315926414 4.886558589136041 2.935172967294794
Cr 7.807104940382537 8.62018168221717 2.2824332856270906
Cr 7.575483728629604 10.382637935426649 6.522394899185153
Cr 8.070146720784038 4.920837213564155 8.929441852971502
Cr 7.9488047568963545 4.053223425747045 4.711286881196437
Cr 8.913908968505623 9.5887335374712 4.324748344043495
Cr 8.323845094590396 9.350975952285717 7.892171187796761
Cr 9.774007972471075 7.517077023548589 3.020150308618168
Cr 9.564636931856413 4.232491145165829 6.363721870981388
Cr 9.15746444642689 7.043677481243746 7.461980334345667
Cr 9.334010703066488 6.294909364700408 5.04681439165158
Cr 9.850742335228885 8.803571027743619 5.739765845691494
