48
Energy = -382.07902706 eV
Cr 3.1882027357139133 3.754331533798928 0.19454373544732395
Cr 1.277021501543697 5.552181655990849 1.4592913817815438
Cr 1.8550072046714807 1.8932224530384505 1.1546056611083195
Cr 5.27109822658775 7.392694490779965 0.715573472025824
Cr 4.756277599321636 2.052492271887731 1.0073398562217923
Cr 3.45461013792324 6.036852642292859 1.4975223215879785
Cr 5.626659331664398 4.861898564345047 0.16240171037554343
Cr 7.245393298391139 1.2712425769680817 1.9959879837691592
Cr 6.219705862494558 6.091149705812062 2.431820768615593
Cr 2.75731149951028 0.26958140438988365 1.7555725519373921
Cr 2.226218266241122 3.934466228119753 2.426554463425513
Cr 7.049430956443868 3.873846604054832 1.8649486258873982
Cr 1.1327550421336914 1.5524915558142216 3.6098726755398047
Cr 4.16274609016975 8.075163919826684 2.979192336590089
Cr 2.6224610336367027 8.652461468283569 4.2869226357199475
Cr 8.833651633938839 4.119926629390139 3.402991462811986
Cr 3.4677021872568075 2.035673514757259 3.402430789889608
Cr 3.9267963218616595 5.757601382456294 3.9334869023259498
Cr 6.09785658252056 7.399231203527331 4.206598617909543
Cr 5.721297952241465 2.560013407751589 3.499705867988261
Cr 4.90229553324037 0.10104618373737306 3.1548986210164234
Cr 4.582884052637212 4.175682111850716 2.359025585389194
Cr 8.300230878150575 3.278631215719845 3.686094037600572
Cr 8.27942020961846 5.716291136045402 3.5550898912959914
Cr 7.326967824944175 0.7192445559864843 3.794457216739132
Cr 1.754360639875471 6.314894609786011 3.7021594520948806
Cr 4.3212028313786846 3.613214306144175 5.5982099129961425
Cr 6.308815629525333 4.60030112500663 4.533015420934394
Cr 3.6336477008192576 8.026466527962686 5.353400932342298
Cr 1.966601032802195 3.7862735710452395 4.793706882929852
Cr 4.942822452222277 0.9410780339567377 5.385474073949925
Cr 5.927509488056073 8.652461468283569 6.238818021317951
Cr 8.400840452663436 4.121953121204619 5.9674335034109856
Cr 7.7227796326458 6.44241674407029 5.751716180810538
Cr 6.761826219424847 2.2438122328330303 5.761652837766623
Cr 2.735948894762458 1.4469365148434146 5.741777644860525
Cr 5.116980872782547 6.163823785287894 6.036233826755876
Cr 0.4784749871451333 2.638901681890548 5.747673604866624
Cr 4.553480842544693 2.632559478896675 7.4836628244732335
Cr 2.6654683202926948 5.799612032685782 6.18820936495031
Cr 0.30037124806079685 5.194139777246803 6.0543066675191834
Cr 1.4846609941468056 7.782007084987918 6.165547071123022
Cr 6.5197832493093415 4.390650998640379 7.122538312063538
Cr 3.786099853884605 7.628922472073533 7.744053142831773
Cr 2.170852813346893 3.502826340495718 7.333252978460575
Cr 6.131329158492993 6.630383238847272 7.9139496484113785
Cr 4.230877378677777 4.914004677608448 8.01756996460161
Cr 2.0549608610666694 5.658639276361586 8.194944873244516
