45
Energy = -353.32738934 eV
Cr 7.469911162274049 5.718968535337997 2.625074689025321
Cr 9.091738586022705 6.429871278261278 3.9523129517514684
Cr 9.18422483611255 3.786519220329446 3.9189615978385484
Cr 5.483668757282784 4.583137816283855 1.1469797331782476
Cr 7.919562777423549 9.273608490944573 5.021188432802133
Cr 6.932665484293654 3.256884788557206 2.7481122606783064
Cr 6.7857644163193465 7.974414015321981 2.9185101790561543
Cr 4.853466421856929 6.353944114292637 1.9733763301144043
Cr 5.805157627009359 9.418521254058254 4.835606670234848
Cr 3.110980878190275 4.271110730605613 2.435695307634977
Cr 6.9153272266695085 11.380920002627946 6.159647029561008
Cr 9.827531152876524 5.2584921631848855 6.145614902682147
Cr 7.1092183170254915 6.928007142790159 4.948706108740345
Cr 7.497903646664657 4.528885988195303 5.093055235535012
Cr 4.260087867827897 2.6194359436244983 2.6802665557243834
Cr 8.184101361760163 2.1034115987559754 5.046914846541529
Cr 5.08958438501413 11.129980977367948 6.732021778972918
Cr 8.8149487369048 7.334737766622718 6.700488968346964
Cr 3.019923720419107 6.171671329339816 4.196878491421362
Cr 8.384307726345892 9.543543767709558 7.448930628903839
Cr 5.38060256492963 4.69608452637274 3.922426046460398
Cr 6.134323685729025 8.146746235605242 6.767885555630672
Cr 5.4577057235310695 2.734949738652146 5.137570016148472
Cr 7.392872848158368 5.5461367048339305 7.36780118550921
Cr 6.762408437965163 10.127450062336404 8.617502958594109
Cr 3.595415228732275 8.965594929516701 5.937706352034325
Cr 9.227088331645918 3.6077346395073318 6.961891662664181
Cr 4.837970879672878 7.297886961216255 4.4902358450081925
Cr 3.202070833499581 3.5928740059292026 4.866030022455863
Cr 5.1403933538018505 5.199700681390047 6.338710021718233
Cr 7.769814834920693 7.558197437768198 9.025794602837772
Cr 9.436843640096708 5.663817715137297 8.71578412756901
Cr 6.961196327934387 2.9201499239261164 6.844514511616438
Cr 5.368293707824558 6.589892617220235 8.594851214458407
Cr 7.252471398671007 5.877584214386073 10.154550769369305
Cr 2.148753710380181 4.808847823884268 6.328803507672474
Cr 4.5168652239420455 9.029734929789528 8.149333616747182
Cr 5.708756275961611 8.326135654024629 10.205674127846375
Cr 3.5063246366141154 6.940984036179417 6.885020501346015
Cr 4.231581057434463 3.22286097278052 7.300015278661142
Cr 8.352332070207643 4.02944692686807 9.232639796119324
Cr 5.88101848533945 4.065345446500777 8.71746709197761
Cr 3.337867747277782 5.000594117551779 8.449400782133473
Cr 4.733519686639366 5.64744507138015 10.337646109635443
Cr 3.1529663357079794 7.567269817943066 9.151933711954703
