47
Energy = -373.80927044 eV
Cr 9.09323231451539 9.62483143893066 8.23377697280588
Cr 8.00071318883508 7.812267139997399 9.769750514153268
Cr 6.417507392323113 9.47806013373533 8.659491662201855
Cr 9.907829733881359 7.199102688550785 8.148448496046125
Cr 6.864145644315306 6.400826905943678 10.703026008234776
Cr 9.481848975660682 5.492143000759681 9.774018308600976
Cr 5.718593555882058 7.277949300549663 8.668033200926635
Cr 9.997714081430502 9.257603057352068 6.363110923702036
Cr 7.454136665933396 10.229674643741252 5.826783726268659
Cr 3.660192199015988 8.126019855344436 8.12360601670246
Cr 7.559172738378195 8.13825199618274 6.841713480892519
Cr 7.564745769383159 5.892015732038329 8.061502040579288
Cr 5.1228396194949655 9.36385205402016 6.785327773149666
Cr 5.4764440944464 7.021996819576585 5.970903850822179
Cr 7.593548395162028 4.0565009878624 9.684539545790521
Cr 9.772954204424657 4.7243920720028445 7.166341387829174
Cr 5.249604524724146 4.763120912345125 9.512704275747575
Cr 9.404338514081635 6.880732517796856 5.916899629427909
Cr 3.5041849240261094 6.332440783276378 9.773321361060612
Cr 8.486377791159192 8.758595181035997 4.126612459335398
Cr 8.418561606738509 3.224435031999031 7.33185262565177
Cr 5.797282983324902 8.795531056422902 4.37821737909753
Cr 3.1964819714831236 8.533128327379853 5.407379306454499
Cr 2.345567648178033 6.5553536086538715 7.116589888308408
Cr 7.18973109995844 5.366899540521676 5.8089237836026895
Cr 2.621819211822026 4.66853377844283 8.796859254443362
Cr 7.662739353934044 6.915182742626259 4.069231319573559
Cr 4.594161583563903 5.492457052468608 7.302305944472166
Cr 6.398135694752639 8.559013789524654 2.352837179531949
Cr 9.059453612563233 4.2957730765329 4.815724756721124
Cr 3.807612765116206 8.094043524991125 2.8700836476124385
Cr 6.077937200464114 3.5458852794103666 7.492348523258862
Cr 5.29218679754284 6.2687706408459745 3.5480418286820012
Cr 3.4024812760257315 6.2009924444702955 4.6854487747530555
Cr 4.081625486790227 3.011690194461599 7.568106075911278
Cr 5.079374867765265 4.278717924287436 5.173703721727961
Cr 2.53831993394869 4.312605835025066 6.06966698340176
Cr 7.282024050608293 6.356311843322815 1.7156282794649056
Cr 5.099006138406257 6.590079725483153 0.9701081005415849
Cr 7.016012623544923 4.385710151353443 3.207489820114457
Cr 7.073808053054479 2.7736385813448083 5.109973532686771
Cr 3.077643444432968 6.192019884262246 2.096055036913708
Cr 5.274217632598282 1.5006372325276096 6.12069489214554
Cr 3.1666465265605392 4.225923351413375 3.325045353071389
Cr 3.3976652443816153 2.2969286774445385 4.919853812695442
Cr 5.209790983340713 4.29753985578326 2.025019601963952
Cr 5.311745375394632 2.2339771213260957 3.4150564362889555
