41
Energy = -320.050628 eV
Cr 4.2698413729863125 3.964249746081425 0.9806002328807473
Cr 4.818356012948198 1.2511338944762957 0.5933936111620636
Cr 4.580528912755482 6.616925901036363 0.9931418805990256
Cr 6.129955527826536 5.168994228587489 2.3953867511508182
Cr 6.7923204415556295 3.5160594862750405 0.6714404803022144
Cr 3.0303356247915287 2.0640731431797086 1.8420258667990745
Cr 7.076113943443974 1.3732469535570173 1.7122346689657468
Cr 3.9721066979810304 0.6762333391810079 3.3697959979653853
Cr 6.2004868124061705 7.633431602806043 2.9753215717470174
Cr 2.70429020902679 4.794816608268201 1.6175314179049771
Cr 5.491055230302183 2.489815850808862 2.7078105021775913
Cr 3.6552621777043024 8.527073069337575 2.8638855044240175
Cr 3.8449996766010175 6.5123015999810825 3.254583358476276
Cr 1.7665145282146166 7.0941843629251515 1.9606323895790971
Cr 2.122913190345902 2.825493894961383 3.7462329776192123
Cr 8.012334103282544 5.618684742391495 3.8802013801990127
Cr 4.443325741943579 8.118145519001171 5.240764594137241
Cr 8.059814748099024 3.0364071228360423 3.0259982814353465
Cr 1.754302544718499 7.509151925045595 4.675185437633344
Cr 1.579377239744317 5.309703134717488 3.8631132447180137
Cr 6.967556235907156 7.370279716480567 5.7484350985911075
Cr 3.979724804790879 4.077022278157803 3.7543475494081204
Cr 0.12443314913350932 3.9778004038230033 5.263448785021581
Cr 5.775676849382179 6.02167819071212 4.849572985521542
Cr 6.508850312311452 3.6377434447811754 4.630367642609015
Cr 6.614215820576356 1.1115817630488156 4.3684671046723915
Cr 3.375696936718301 5.937236735956116 5.595699096397125
Cr 1.0041672182930155 5.843209270431189 6.4550020752747725
Cr 4.432798422633737 1.9236748740648095 5.263135159533536
Cr 2.3696194777527193 3.588621660705657 5.916737452128678
Cr 8.325126364036356 2.368279837185667 5.641433968507162
Cr 2.270093946630605 1.2707367160573686 5.92648124173382
Cr 4.838733739971784 4.169150729812344 6.16332150804962
Cr 7.381502312547922 4.802422476738199 6.5532639308833565
Cr 5.218523972393091 6.463061437058965 7.378056246827572
Cr 1.1760832458045964 3.9659340549993733 7.930819978307001
Cr 6.379959338980982 2.2043689956045203 6.872774925410781
Cr 3.1945341858840015 5.132145709511674 7.991108638559973
Cr 3.7380083084070805 2.705098857573224 7.937026460974125
Cr 2.5265097472313456 7.392223775553769 7.411954581897443
Cr 5.802371103221057 4.246023175574045 8.287685649099716
