42
Energy = -323.82203003 eV
Cr 5.640948416636326 11.526355241483268 9.676850894839147
Cr 7.156161722708085 9.450633334523406 10.692957179030758
Cr 8.766030197430535 10.826694615635898 11.99882182536289
Cr 10.174218238790218 12.395352467103757 13.63336472588515
Cr 11.945661526283182 11.09892198098829 14.799470589633229
Cr 11.434508877162553 11.404023383298137 12.016943484354526
Cr 13.565701717825032 11.854044154426312 11.202266597906164
Cr 12.803105795867992 12.49507479356578 8.877694002464793
Cr 10.886072281403816 11.490570930721919 4.818754210311553
Cr 11.081824941170286 11.574938044801915 7.17362896421008
Cr 8.414661407240208 11.812701381167939 7.215066130532695
Cr 4.723105720030509 9.1244090681313 9.843664334785474
Cr 8.416599454690214 10.526251177659047 14.843904347217148
Cr 10.445521436065375 9.447933058628925 13.644163960122816
Cr 13.193919678846756 9.774790039857864 13.198715102837598
Cr 12.715900445490957 9.465012253875104 10.999638896467175
Cr 14.86134195540579 10.460038607305144 9.740783340651115
Cr 14.253236490347527 8.685448106434427 7.802275116767193
Cr 11.16784822074623 9.058196497777399 4.740543328219299
Cr 9.138926239371068 10.136514616807519 5.940283715313625
Cr 6.868547229945486 10.119435421561485 8.584808778969272
Cr 9.166310751372396 10.310234874708378 8.81213279936052
Cr 6.390527996589688 9.809657635578724 6.385732572598843
Cr 5.332023319512532 8.319069197200362 12.27424768769765
Cr 8.149938798274038 8.180424292138309 7.567504191081917
Cr 8.698375394032627 8.093876744714525 14.765693465124889
Cr 6.849349910406903 9.628516674238558 13.520278491764879
Cr 8.502622734266156 8.009509630634673 12.410818711226364
Cr 10.418136924064193 9.274212800728211 10.772314876075924
Cr 9.410229436646373 7.189095208332684 5.951082949551438
Cr 7.638786149153263 8.485525694448155 4.784977085803364
Cr 12.428285952728212 10.133814340913037 8.891490496405686
Cr 11.169786268196383 7.771746294268504 12.36938154490375
Cr 6.018745957611412 7.730403521010133 8.38218107753028
Cr 10.818417478006056 8.757753059800692 7.585625850073698
Cr 13.943499258799974 8.058092433953174 9.907596780597297
Cr 6.781341879568598 7.089372881870664 10.70675367297165
Cr 5.331211185088912 10.898999569002163 11.782172558669249
Cr 6.856203608559249 12.225776870470375 13.220129782825385
Cr 12.728244066877194 7.358670804966069 6.3643178926110595
Cr 12.735097765029538 9.955931001197886 6.064169183671565
Cr 14.252424355923763 11.265378478236082 7.310199987738791
