41
Energy = -319.99611751 eV
Cr 10.632990863070209 6.61725125367003 6.82487926226341
Cr 9.532953015849303 8.013333988191281 8.434377949532072
Cr 8.555447404129737 6.625957974388446 10.119260782866597
Cr 10.124661817649397 6.409793323389289 4.049862174466578
Cr 9.801576811187012 5.2406445245726045 8.54494681016601
Cr 8.945145584590946 7.860718843551377 5.6595242820928275
Cr 6.741636563793231 7.834523233003496 9.044850562775183
Cr 7.798830434442432 9.194875192683034 7.293265094229076
Cr 5.784418881588446 6.4483698786978545 10.7363334285714
Cr 9.20220280720282 5.0337371402312545 5.763041077130994
Cr 7.992319278325033 6.432596932726707 7.449940175517711
Cr 7.0320669897673245 5.0435886131943 9.295253796536068
Cr 8.287313777322245 7.401927900222969 2.837862337749778
Cr 7.12466912980184 8.912466903498 4.40726813922628
Cr 3.8507415020117435 7.67892760363321 9.59655493511388
Cr 8.196017262045514 3.633962259423108 7.480053731780427
Cr 8.672657712180389 4.691069303017174 2.9809550933623954
Cr 4.874087646858901 9.034531471328238 7.914029501299284
Cr 5.865656821940395 10.64735629027494 6.07786944232775
Cr 7.414210043947233 6.16625715558848 4.644880833867335
Cr 5.163707410698858 6.209220787998357 8.084589156027102
Cr 2.1233197632094574 8.76921452370681 8.342974549831933
Cr 6.1681714669695165 7.776517045167519 6.231087733017843
Cr 5.5762985316594715 3.4331820599151563 8.402785110719968
Cr 4.245906169042836 4.884399788333497 9.738704865598296
Cr 7.582258810566654 3.0220118819237474 4.858955096320901
Cr 6.634510476280748 6.007680710296578 2.0234084683594458
Cr 6.420739719044793 4.880446624808143 6.524457749564582
Cr 3.257974259768858 10.169042738685016 6.610296049461337
Cr 7.5469600089752875 3.2766414154792627 2.1906326730967476
Cr 5.098120635194957 10.866234087260649 4.32661999433536
Cr 6.109606918753425 2.4308315658782536 6.02853855008657
Cr 5.551648872005685 7.51023638786068 3.4956149300931925
Cr 3.712071104623069 4.419734474706319 6.948196207653202
Cr 2.4959770384631974 5.998587921352245 8.610630575270374
Cr 3.3458307537343805 7.367057775050111 6.902384571784393
Cr 5.757535628440624 4.658895971880155 3.6872568203941634
Cr 4.134805567595191 8.720920449797237 5.101451926241631
Cr 5.482393340951135 2.3256815792711296 3.410244706898717
Cr 3.866055553316814 3.5637051002701465 5.20076954192027
Cr 4.668741712107801 6.12536651879626 5.248558458199397
