43
Energy = -342.62421194 eV
Cr 10.033945332268228 4.961060539847534 7.557623027278021
Cr 8.37274944585039 2.2828666843740746 7.780009614340291
Cr 9.225689510315773 3.1951127768672984 5.078181961543433
Cr 9.658371539955617 6.097244845696464 5.315659653038308
Cr 9.082574498652546 5.122287507160483 3.0418674183778105
Cr 7.76907821560133 4.659529707917393 9.167657859154316
Cr 6.563945549657591 6.398913259296966 10.062190843474525
Cr 6.90104861305383 1.994043870497105 5.759342761201359
Cr 8.240552050931411 6.70739981671712 7.793752261839331
Cr 7.986138335985751 4.3051420386926225 6.6271373404666525
Cr 6.162950963268278 3.123268643503942 8.173859733027014
Cr 4.911066740762326 4.728534113172162 9.82823027010805
Cr 7.254431530620146 4.155873179284503 4.033010208027288
Cr 8.917701312503429 7.8149350175544265 3.5713062917876486
Cr 7.3780265999349615 6.212644335377344 5.2179015201498435
Cr 8.445387027342056 8.448270458478166 6.2064388009295035
Cr 6.569757923151467 8.340150682601301 8.625933788597294
Cr 5.913018762075998 5.736652526421742 7.539316981720307
Cr 3.924947597205266 4.199967042902048 7.677028728926112
Cr 4.310489738605307 6.894857659479099 8.661559620981834
Cr 5.39213863420164 4.159217123776021 5.587187645377199
Cr 4.541777613416368 1.8935639777463764 6.572039820399532
Cr 6.2075528683123355 10.163792432047675 5.90412218313374
Cr 6.837974564754095 8.492291634550673 4.0391950169253334
Cr 7.078340921221864 4.43525098515046 1.3847340536190482
Cr 6.868821287163241 6.371107944875359 2.544765241127903
Cr 2.23278457785184 5.752943682549264 8.306931613429596
Cr 3.539185357631757 6.4131008605607445 6.119992413112656
Cr 3.928835814086046 8.918628296776399 7.373766337750934
Cr 5.927432776289797 1.9566582976217817 3.889548299587508
Cr 5.950357702758528 7.857163762035571 6.491081487454968
Cr 5.213088205738944 6.2018599708123965 4.211872860024768
Cr 1.9079766618132112 7.914079531682547 7.878234015209593
Cr 5.216258856724148 4.1731283567048365 2.744351211129048
Cr 3.696847592618286 2.7528053456511072 4.380754194574432
Cr 2.43493254852366 4.037180019430276 6.072958473672874
Cr 4.876811533411507 8.078471139922573 2.2278870394843144
Cr 3.024238839003289 5.231185326842648 3.7424491855786215
Cr 4.338035222187141 8.592024037806938 4.739475890243953
Cr 4.5090398458657885 6.089784513821622 1.621974236896942
Cr 1.388877115719124 6.781840985637893 5.664298735911649
Cr 2.346869507730665 9.02108059539336 5.429533110359732
Cr 2.808771567454015 7.281803116596453 3.4461243211887367
