46
Energy = -359.57745748 eV
Cr 8.913144734008169 4.122265610687847 2.7494854464602714
Cr 6.6442359863426175 3.1562018413322392 3.5277223350167612
Cr 8.598391878020479 3.83440798071631 4.875856562785415
Cr 7.025595579708102 1.76731197112579 5.507865483120038
Cr 9.508344794467014 6.055358420943366 4.55858770563761
Cr 8.601149646187293 6.666261801041089 2.0238325361570255
Cr 4.578870470948393 4.9079887092447185 3.269101461742203
Cr 4.652175905766291 3.0909140247883027 4.886698581671955
Cr 7.842831176156617 2.4084307308465065 7.353194436782893
Cr 4.665780305982576 7.3989462655433424 3.2319734850023933
Cr 9.268680123770888 4.671455031566257 7.054621148814808
Cr 7.070492251108767 5.674506694463277 3.417210778471195
Cr 2.7932126652659703 4.18119477550782 5.529340737864993
Cr 5.141949818894091 1.9469023638412648 6.9062858643596945
Cr 10.300285864103598 6.714940416301546 6.818610414380559
Cr 4.980667043278616 5.767735477796899 5.206660376863528
Cr 8.298627760639759 8.08385834665345 3.7326575667347646
Cr 6.4497470619169235 8.14572295524718 2.295783528453145
Cr 6.547858574539206 4.154374729169958 6.027035580843628
Cr 7.782650198837558 6.316433542965671 5.963101707639878
Cr 2.795125491787173 6.973968282357341 4.753832739903881
Cr 6.026694851237266 2.502954260692781 9.158113644492184
Cr 2.80925403073047 2.3409464247493554 7.013182563716336
Cr 4.510993033815456 4.254410453333894 7.408639086345332
Cr 8.366211264149163 6.9123822292673065 8.31799564583134
Cr 6.259443758142862 7.9340319549086 4.957895485911724
Cr 6.35969977209904 10.246280108487335 3.6509884254987255
Cr 4.1409355376778 9.322369008148346 4.276787593545342
Cr 3.8780763629325583 2.466607863009735 9.377956094861087
Cr 7.1520070456789995 4.719679176869498 8.258879124420018
Cr 4.381223876495091 8.389190443961157 6.47225997930227
Cr 9.079822639090736 8.393869655703122 6.164049183191836
Cr 5.683810555689138 6.528146529923542 7.458616619066127
Cr 2.808192846857553 6.323359738447583 6.743412576104394
Cr 2.4707890038830285 4.406584772546092 8.341899346559723
Cr 5.576026483178165 10.348263686426408 6.438441296780534
Cr 5.045223593697913 4.9838282242744825 9.573725933687127
Cr 8.009382830180853 10.353610993798329 5.1841078565080805
Cr 7.024567071700477 8.730701047016716 7.357046790438682
Cr 9.486934930136735 9.042957856643197 8.368485633184564
Cr 6.332224339782873 7.176724652965708 9.609736307132394
Cr 3.7883259334493866 6.612144025512867 8.900426688263947
Cr 8.248396905111198 10.758680578349114 7.5863925726839145
Cr 4.9622658970411555 8.846584677618065 8.721759425625565
Cr 6.288453286668355 10.888918818334762 8.64359052691502
Cr 7.54345499528732 9.285353595542563 9.638693307626134
