43
Energy = -341.02895123 eV
Cr 7.974865408938437 3.487420108253123 9.978487759074879
Cr 8.133651974602122 1.4984024467688135 8.393926342297451
Cr 9.469049432900977 4.841178772217574 8.989813714331808
Cr 6.963393551059442 6.041130437527345 9.573583972486933
Cr 8.99255452712824 6.8590628844871215 8.28147537558835
Cr 5.290745071699011 4.131297760284494 10.070396419048832
Cr 9.26738933875138 3.2392553563957893 7.143939804181178
Cr 7.095298004500431 8.455095338885172 9.394978960501629
Cr 8.543052073449948 9.2228603005629 7.4444981157540635
Cr 6.928560390076007 3.9302259204296743 7.841508105369937
Cr 4.63174677874313 6.7775838659385075 10.381808369787318
Cr 6.84461800256429 2.0379449385354906 6.297641320046629
Cr 8.968445049935454 5.415390659670785 6.360361226454419
Cr 3.373855322119895 4.672816088386842 9.058899790828045
Cr 8.03893174922169 3.4598015763092502 4.849495291769408
Cr 9.454595278213635 5.397177615443141 3.9063975006927505
Cr 8.863030405199288 7.710020530987193 5.64063168244476
Cr 6.915583738565399 6.924498792242043 6.938960743839152
Cr 5.150056175211013 5.747421083921165 7.953728243307017
Cr 6.172001152448849 9.325027556144079 6.868848797059348
Cr 6.0554985826187755 1.778331813619861 8.89142670102977
Cr 4.454924221970896 3.2308141756540874 7.100761228185679
Cr 5.2460961613696115 2.7142668524038154 4.677009411144794
Cr 8.016727624414301 10.354290116244496 5.000934730555548
Cr 6.21357650691169 4.733455309676838 5.71684268821044
Cr 7.4314715242768665 6.202175262666555 4.344043452075108
Cr 8.452569265855425 8.27486907865498 3.034255870515206
Cr 4.999935715746812 8.013215928459038 8.423224662790666
Cr 6.46818837964968 8.590446888183136 4.6485559631389775
Cr 6.485883760930864 4.415924761110314 2.9949815094222276
Cr 3.9321772458694553 9.096518357013748 6.13359478139734
Cr 3.3465672016079693 5.286802977610043 6.3632049669840605
Cr 4.895937402154707 7.044490888800065 5.612199830841447
Cr 3.895753714688397 4.654702147068295 4.236311224734917
Cr 5.158770961903771 10.582037071226056 4.39898724533223
Cr 7.096974070917607 10.407848132782577 2.7157078058656805
Cr 7.417884769838382 6.5828442109756065 1.7508231274164456
Cr 4.991944029180317 6.3625665505359645 3.3029985790396594
Cr 2.8305754411016344 7.405701043760945 7.408322999268356
Cr 1.3815474045990626 8.764013123595067 5.4531894057722425
Cr 2.511220049205397 6.985898161009143 4.577645988687166
Cr 5.784649521005754 8.446425934058007 2.2107476849516843
Cr 3.7607068563957333 8.799753019042134 3.5358524453169093
