48
Energy = -378.75810016 eV
Cr 4.745050416815715 6.332858188893508 5.587256612695748
Cr 2.122506179860352 4.125777625416131 3.0774513039835467
Cr 8.49237091029771 4.2660285448883055 1.9615045659076904
Cr 2.252289616934182 6.235562089942781 4.490279211038565
Cr 4.277149046593428 1.8872514919122056 6.082282512798557
Cr 10.440865976336237 7.586725188902956 1.9911416975975234
Cr 8.44899640622271 6.325769796724155 3.762324404100301
Cr 4.546346091347773 2.4433906602352975 8.755369983730045
Cr 2.879298594317189 1.7767582766085892 3.5903395586048443
Cr 3.689701644886046 8.162204460757279 3.6377171650880933
Cr 2.0707770975590685 1.8298259954003995 5.505547120446068
Cr 3.490108769761237 10.215163495287959 5.4031535177714005
Cr 2.4665079006465884 0.7755992195088586 7.767929903348919
Cr 0.9529885251046316 8.370727138066863 3.9797186000009175
Cr 3.2322780745537556 4.3872276873317 1.230364068136265
Cr 5.861756159971147 4.49497363806633 1.5565806784912206
Cr 9.359926053456515 1.5792420921401118 2.629614508025327
Cr 7.172819016921976 2.407074777986438 2.746895901809082
Cr 0.9470082119696683 4.179121779398987 5.525925165410632
Cr 6.289352397542165 2.7818593909866 5.247538018714457
Cr 0.45595132522824894 4.67594490442968 1.3888043657640157
Cr 5.203283475685497 0.780192452331694 3.9486837407599205
Cr 2.628338913635608 10.215163495287959 4.407228781627248
Cr 2.756435131976685 5.4556491236881826 6.67955601497787
Cr 2.613206923397432 3.155285834975654 7.718590405581193
Cr 4.809936171633953 0.3030222049212295 7.672530004372002
Cr 0.34773280944547896 3.007565853561733 4.092708242648679
Cr 7.126166513201388 10.593036272150945 3.0521885751142426
Cr 5.944743626100758 7.383630726831519 3.890050220962912
Cr 8.433599594284136 3.3733396999634357 4.640587530295984
Cr 5.0520079156312585 4.168669703280371 7.170147598899199
Cr 6.332595284494136 0.08258610288807026 5.76922460835459
Cr 6.818697011729672 2.441784890837644 7.155414138892897
Cr 4.297764661771292 5.728960127760047 2.966450657589678
Cr 5.068743479448279 1.5925484981471567 1.6236435467648485
Cr 2.187094781088033 8.975248126131985 1.942291849159728
Cr 4.666026112833959 3.1667493509841496 2.9852266251038713
Cr 4.3799520122139235 7.2689760959833425 1.4343842621172227
Cr 1.9552067475002668 6.594049054220438 2.068951508349007
Cr 0.2718707067577528 5.786165495260506 3.859706012760401
Cr 2.903510584747924 7.94491786933676 5.899012785013576
Cr 3.7682740328721556 5.15625219574843 8.736205416313398
Cr 6.916345443035347 6.561600833984581 1.87455723287014
Cr 8.306285394271749 1.0285628876147241 4.852562695046727
Cr 3.6265200226016296 4.117469516334755 5.1480928638698975
Cr 1.923094683061513 6.845626848140901 10.539651012907482
Cr 6.9124760401351155 5.292791605473041 6.148678467365921
Cr 6.643640839105335 4.90257073850187 3.893533667805181
