48
Energy = -384.25859715 eV
Cr 2.967541524708439 5.066492137565808 0.5487832837205554
Cr 5.407115014908524 4.532362955777089 0.6951627886425065
Cr 1.7617194546106796 2.920921308302551 0.39114019767413377
Cr 3.722713862485341 2.6358627868726363 1.5403123072700484
Cr 5.796517313391557 1.6630337104471375 0.8403356248477001
Cr 2.543718795250403 7.560490573356324 0.6841168994378094
Cr 0.6463664206288715 5.485824435597475 1.0838055711488097
Cr 6.460798371206631 5.464752471438499 2.804304213738549
Cr 7.896856998671292 3.8091367504251665 1.8210840593427868
Cr 4.603403003000853 6.851570067154851 1.6128159044823023
Cr 3.9146208845582646 4.7977287068670815 2.8764579001533823
Cr 4.6586244771537775 0.8933299243427294 3.4180738666374904
Cr 1.6552644146567146 3.9266430482477124 2.590437111538822
Cr 5.974434837370004 2.90603691992711 2.7063075345665073
Cr 9.321685243359443 2.9198665574378553 2.5166116998914396
Cr 1.9245470683058121 1.52439695501222 2.985563020626872
Cr 7.5265874682518525 1.365619194920131 3.36780177483336
Cr 7.902154572885752 3.929807055489313 4.311366343428493
Cr 3.6217247155676238 8.550032979533759 3.110528451161468
Cr 7.0562522258563085 6.3159293090948045 5.21523537637434
Cr 2.141512391362476 6.54074665458974 2.7834822424254297
Cr 5.37643966747311 4.416830212522971 4.893411497788913
Cr 6.355976260787637 7.736835449744123 3.1620956438033705
Cr 4.478840850543833 6.7842055932240335 4.347125867424832
Cr 0.19462360458802694 5.324464591357825 3.871702158891708
Cr 3.6376605447609767 2.771369610035793 4.290325565930304
Cr 3.2574151059447662 8.989753442398499 5.484105186382443
Cr 0.7961809179647991 2.973344887168643 4.8665301449009615
Cr 6.142137090509813 1.9655216372518565 5.1522446019930594
Cr 2.4654762593871182 0.42103179862849455 4.972685565139001
Cr 2.6739517040803933 5.025677997839733 5.3604338997783545
Cr 5.5734852224443765 8.101787550687513 5.911860612692653
Cr 8.671428694747707 2.599651752631996 5.5915126679555
Cr 0.8623239715366833 4.915440564572463 6.450156067823275
Cr 9.321685243359443 5.17806680846224 6.218498148830284
Cr 6.934228819679487 4.120024641042651 6.766759136650193
Cr 3.107401740297626 7.084971433898521 6.843030933913094
Cr 1.661044911782044 7.385030567523185 4.784871816050441
Cr 4.500843186668908 3.194419868929238 6.9341570770594965
Cr 2.228741849930194 2.4581115431520937 6.45891703825892
Cr 4.9659015845502665 5.896411417497343 6.913487900156387
Cr 4.41671607981752 0.8596584182137358 6.166796641533313
Cr 3.123315867708754 4.682437865395338 8.069923976021474
Cr 9.029059760052167 4.142485308752421 7.885044053625522
Cr 7.364714410323834 6.469587842333951 7.358615932612469
Cr 6.746711415586737 1.9588207223502485 7.423024615753701
Cr 5.8399152407615595 4.489111811958259 8.727775888042139
Cr 4.126527357347433 2.010398962960837 8.807217991976907
