44
Energy = -343.41427686 eV
Cr 4.151422789680176 4.009211919489939 0.5561801135319185
Cr 4.1460537947207445 1.778479850579947 1.7521808799122964
Cr 6.324859719310457 0.2097466779459924 1.4492913837499786
Cr 6.699969502769099 2.8784014154785877 0.8521151815165808
Cr 1.9256656331382196 5.199032177220347 0.7130453784319623
Cr 4.367461908750367 6.623288459996459 0.6711128465590557
Cr 1.890521593707943 3.181607422699067 1.9423687833529748
Cr 5.835105885045485 4.753425993784194 2.225934467106157
Cr 8.008885997127072 3.828593219277744 3.2862291378294013
Cr 4.371158327144526 3.4379781049644413 3.4568950206279934
Cr 7.0117956840737445 5.8032483810667355 0.7674687905045204
Cr 3.072646208137118 5.532896998962474 2.466545771797779
Cr 8.737437154391257 1.2250037391545539 2.770501115378732
Cr 6.510446610985704 1.9287145813656175 3.028243013773242
Cr 2.437538115952619 7.682875687139528 3.244480965825129
Cr 2.3656031782584024 1.4204182468541988 3.9795744302161533
Cr 6.312809459267865 4.070313267870283 5.001452802271571
Cr 0.5354334607063655 5.379046919813012 2.9239622344170413
Cr 5.068673901455483 7.3538980643191865 2.1660731639381994
Cr 0.11404576065053655 3.0410701009212 4.587436677816298
Cr 4.506165038021075 6.00941707351316 4.337288975592839
Cr 2.1017036039296104 3.8820573758674697 4.1900018879147725
Cr 6.8673910316617635 6.262192614157672 3.9226700162506827
Cr 8.909037307056073 7.660708275912792 4.385188008868392
Cr 2.2144250920547255 8.901360258611724 5.424724193690411
Cr 4.581547895532297 1.7908930034813682 5.1174750749843545
Cr 4.661896467211395 8.183525947978346 4.675503309580964
Cr 0.009609695134948327 5.51270484633668 5.4137229002996365
Cr 6.828260822614708 0.4660257152718661 4.778167178536823
Cr 2.1805309300920843 6.218397148268913 4.999354526169735
Cr 8.085254247665523 4.512192099366486 6.2369562380038595
Cr 4.511636665229269 8.901360258611724 3.3741858525989543
Cr 2.0435458317006585 1.9486196428947118 6.142606651023866
Cr 3.7961842285111937 4.324120031731238 6.245940377372084
Cr 3.9904659040616153 0.09719951109004701 6.268760776385114
Cr 8.333595127110256 2.1910272033953575 5.020344934874584
Cr 5.998454671190802 4.243952395946038 7.834934128513871
Cr 1.0307605357054428 6.973130186896144 7.258844904488785
Cr 6.359652597511654 2.275660130312497 6.68831941168383
Cr 5.679396308662522 6.0027096076052695 6.45346828428509
Cr 3.409428269750141 7.109134040931094 6.6704081907692965
Cr 3.829885864985831 2.5829636803554483 7.670905839442661
Cr 1.5466271306927792 4.195796224865326 6.799356125637229
Cr 3.620936190635566 5.401527639690797 8.311509956779238
