46
Energy = -351.71133112 eV
Cr 2.9941288087925897 3.434745103165445 0.5950040291987512
Cr 5.186855733128104 4.542151048990453 1.1514748380721327
Cr 5.478745897385491 2.1921463099328142 0.5875328686600076
Cr 2.4095176399590823 5.815086545818798 1.3255323194540656
Cr 7.581584087331658 4.422730443453844 1.1035771921498383
Cr 0.8379452642831362 1.5732653268010146 1.0468806727340614
Cr 0.44657271511256236 4.614233893965473 0.7771532877290643
Cr 2.6210535795580916 0.9859189880214644 1.6999838910790068
Cr 4.101541573057939 2.7650994682041046 2.738563748806691
Cr 3.483391154213125 4.937537063172391 3.074631547687328
Cr 6.982372677373706 6.6910806402475735 2.3570391279544145
Cr 6.0832966134473825 4.670638575924603 3.3841254152354554
Cr 1.4416785839980713 3.3789716371447867 2.4743365208648695
Cr 6.722952929842823 2.60175026383852 2.484074643827112
Cr 2.576436351535307 7.554479987911228 3.2821700856803204
Cr 5.120377771134455 0.763741840813611 3.0199770796947507
Cr 0.8438000032555892 5.4212948759996245 3.4380396864529454
Cr 0.9792916839342006 1.4053263693626723 3.8818285762512437
Cr 7.223359328696342 6.7092714846014525 4.886458747310217
Cr 5.7204322006428505 8.85906179972388 3.6351449587716536
Cr 4.77548506754199 6.857338831141138 1.6459273323384185
Cr 9.331045055429582 3.25874761673285 2.9742060567646638
Cr 8.468063498549196 4.588761125486698 3.4768332095061245
Cr 4.8035768011384095 6.9431393883778325 4.021402384034363
Cr 3.2682183597374665 0.8567772552027079 4.478992809610361
Cr 6.954531652525131 4.561490129963764 5.781294059046087
Cr 0.22190074844102958 3.691587538919851 4.93735303041495
Cr 5.738460267756276 0.5108444901117812 5.6246085494692775
Cr 7.489363191516957 2.584048006019676 4.8055142906154575
Cr 9.331045055429582 4.955828474030952 5.511377983318698
Cr 2.395562482042406 5.816344314108829 5.2107067640929445
Cr 4.9857276750850446 2.8641836494779076 4.8118453268916035
Cr 1.5928699041628165 1.9769692972783526 6.4781719549513035
Cr 8.200859356242546 5.894372103863806 7.59348250842747
Cr 4.638314870235539 5.184862172776528 5.614220281648926
Cr 2.6205090096711956 3.373054555777594 4.919513151949543
Cr 3.5767239635424763 7.946384779159221 5.850388582799751
Cr 1.5683465528752978 7.305658616869278 7.1922301465032
Cr 8.2338826135632 3.3495752434721098 7.551367017021906
Cr 6.004300383366479 2.381502190345189 7.058862273422293
Cr 3.561390093335972 1.5321222533705923 6.732204994645237
Cr 1.3116928852482714 4.646846492338669 7.109040328845715
Cr 3.5031620515895656 6.165770042765113 7.908164693231674
Cr 5.909398343882736 4.8045179285847865 7.977775629261623
Cr 5.633140885937167 6.945499314526751 6.826112037237469
Cr 3.5322507020027163 3.9022886380449844 7.201921482176771
