49
Energy = -384.96728391 eV
Cr 3.274696413800242 5.16843196372502 0.9038694979577422
Cr 5.542847905834633 5.811686200708906 0.6695229244038507
Cr 6.889602926095517 7.296290136537063 2.408982672172659
Cr 5.220713079151888 3.283559632570823 1.0418836464932424
Cr 1.9328235581487956 6.761261231186892 2.1689345679885443
Cr 7.5043813307166936 4.584933063029037 1.9871016816715865
Cr 4.158332276033504 7.55951947774957 1.8435347342889095
Cr 6.947932090591618 1.9980645145163487 2.8305731503602605
Cr 2.7897406624914045 2.850556486981418 1.317241208787287
Cr 0.8242875948961477 4.4706273664737255 1.6470795152318611
Cr 2.594034473630334 8.97630436381079 3.540741800243945
Cr 2.922193420131166 4.611301837492168 3.2371955005765796
Cr 5.2889681056861635 5.321023401578664 2.7101052309141047
Cr 6.0241693022191285 0.5430535200594733 4.54149453891632
Cr 8.640539529813854 5.913951944629045 4.088252549918094
Cr 7.530308055903388 8.327372766427306 4.754308596190518
Cr 6.8766298627764675 4.024303648749684 4.461009028950752
Cr 1.099936236209918 5.47147349139096 4.206621361015487
Cr 8.818430616634513 3.343590400178192 3.8573145439893555
Cr 3.900796325910159 6.922411121041653 4.21184649957753
Cr 5.28089236406741 8.89355573335622 3.982069043266423
Cr 3.642409110813592 0.9816926181454727 4.090302226727074
Cr 1.8982441793221265 2.7728453558555555 3.3923005185353947
Cr 4.8109579810514935 2.8161275503279324 3.2793242367720676
Cr 6.342194111146754 6.608010750673403 4.833083150932642
Cr 4.672572915675679 4.798167559921537 4.995329743506559
Cr 1.6565107150507088 7.938016934820561 4.666401169506762
Cr 7.96339001442945 1.6228257394277992 5.349949465917262
Cr 2.882413713851887 3.219648907217892 5.442712731015564
Cr 2.3215134423420163 5.5260049150102875 5.785693966811688
Cr 5.419159005148401 2.54907638327384 5.681924169556063
Cr 3.793282951273325 1.2109831605621324 6.535755831632474
Cr 3.753942987887204 9.16640063028928 5.956551449189513
Cr 8.725021898964762 4.166100954252617 6.1832790295509445
Cr 6.201493028282874 0.28369177856625927 6.89774286523742
Cr 6.048288860394297 8.577759243609936 6.5338560637283125
Cr 8.102242774554352 6.818886930803471 6.713780496736878
Cr 4.482757561360866 6.769301899286059 6.68606066069519
Cr 6.29570050066634 5.0247521235332835 6.869063572094841
Cr 3.955764841562488 4.028627175742587 7.348793126541181
Cr 2.395854092450038 7.61632886248859 7.140011833956159
Cr 7.1476536487064015 2.8266744943033735 7.329070432032132
Cr 4.968946319099201 2.136245836665597 8.32987222480349
Cr 4.480530137979766 8.753022748135717 8.533823709881567
Cr 8.020080751456259 4.855910086893652 8.82132248864719
Cr 6.547003307710664 6.9836386283032645 8.48039406124262
Cr 4.360593073638393 5.9969675508103375 8.82426178869343
Cr 5.80973037462295 4.273356821064085 9.312689854529575
Cr 3.3403749168137273 3.646545404821482 9.677850185609914
