47
Energy = -368.42032058 eV
Cr 2.321236674423033 3.862721636131665 9.159009536721332
Cr 2.529193765747222 5.864769253243546 8.311853674920972
Cr 4.7899755717672745 4.292305114103862 8.775654724464482
Cr 2.3541823324667117 7.132607919775599 5.977559203752102
Cr 4.957684775897182 7.07005335187724 9.100623357327182
Cr 2.094160544840364 4.588436978463361 6.060082961757287
Cr 3.622577138090212 8.59437386764642 7.302459617252946
Cr 1.7490204639355598 8.666961365612604 3.9673739484039325
Cr 3.5227676789782882 3.589448663848326 6.914749935767755
Cr 6.006738894054053 4.7173768146676 10.213074734019965
Cr 7.178154985319048 7.06848122641407 9.696381052045062
Cr 2.3683608760565624 6.135910522276155 3.811227748576369
Cr 2.557452940692959 9.768944312181743 5.309102455621056
Cr 4.499107451904517 6.098892582412364 7.0814648013111245
Cr 6.008317089790127 8.117185730396923 7.315261775613411
Cr 5.897934146762608 3.992812350286845 6.412922940861067
Cr 8.575825533468565 5.203082968024072 9.894653553800914
Cr 4.259796584553485 5.213871023902974 4.817916313494781
Cr 4.4866915988144145 7.690527297964627 4.876275477337657
Cr 5.1640886701782565 9.848611340604261 5.577068087295224
Cr 9.33062308011775 7.6469240654916835 10.965757322507137
Cr 3.474428222421062 7.752173486162338 2.3867438903274993
Cr 6.870809464952137 5.714289378656051 7.909934492772471
Cr 4.2597487514009185 9.824933297773143 3.2352220205766655
Cr 6.066245419682126 8.091590149720398 3.094559587000781
Cr 4.604361782484328 3.0530433176741605 4.332468299225717
Cr 6.485021849259814 6.385713203592877 5.3321761047136516
Cr 7.592663028410519 9.945746322195957 6.808102403213875
Cr 7.905526922819011 9.21031677412619 8.95133646319948
Cr 5.114040031446815 5.932901952803921 2.8797030934900687
Cr 9.87507991857754 7.38700020578158 9.201406464794811
Cr 7.438382978708339 3.3825359142440554 8.137002119142881
Cr 7.009516945179162 2.1731558530318025 5.553817711707776
Cr 8.247316910540455 7.355572403739035 7.065983634078736
Cr 7.213908360829729 8.701191765474432 4.9784491895534675
Cr 6.690606308682227 4.144806932459369 3.864435329069422
Cr 7.752956296583105 6.386581320885762 3.3545309873114686
Cr 8.09574361531464 4.692929492603867 5.756267347252658
Cr 10.125103731507565 9.332686497834288 7.550672622011556
Cr 10.982020341714206 6.922570514067826 6.940493583438506
Cr 9.776570583819549 9.107707863900602 5.713657533086659
Cr 9.376163008184687 6.6629471173495185 5.1274485142693695
Cr 9.383243764334305 4.554941964626853 3.3558676505409077
Cr 9.422991392154552 5.146222822259726 7.761499607069516
Cr 9.23990264168336 2.7273549460305535 6.472440273786642
Cr 8.977874854044542 2.7966774060917694 3.9728139569762937
Cr 10.739915564738123 4.461994083486019 5.64996231590483
