44
Energy = -344.52397031 eV
Cr 1.5981696980437128 5.907561484981383 4.693101455435855
Cr 1.9316589062332434 8.274941167363092 6.216693588443087
Cr 2.3370226492896613 3.8579598355580518 6.450045683810478
Cr 2.818031614693136 2.876501435843339 4.697519293964462
Cr 3.253989542462834 7.58139786500915 4.5501146537750525
Cr 1.383305330109741 6.1633117564772935 7.328302676168278
Cr 3.682733688661144 5.072864259857103 4.333543834592576
Cr 5.474449641852562 6.6836439053885 2.9647039653389697
Cr 4.28058157231888 4.313419099623552 2.3474124191922323
Cr 3.8529689484497096 1.5892521065131808 6.594112958554412
Cr 3.6628963980120086 2.56556313006596 8.333581198891098
Cr 2.9143163870119713 7.610649087949626 8.61937930511852
Cr 4.808177579253857 3.9866743147517347 6.442697722740442
Cr 4.376251845154581 8.548000160312016 6.886434371958944
Cr 6.404638550146913 3.174729836174389 2.3847887385360194
Cr 3.436718715116939 6.221241952869717 6.514981278859607
Cr 5.385588716697345 8.67122469988522 4.46314829319957
Cr 3.135008757245135 4.959994506630373 8.827440860842993
Cr 5.029738023500126 2.453090958992467 4.416804321901219
Cr 6.046910883612791 4.750095166836627 4.1659503880777695
Cr 5.674071465287812 6.82407628964042 5.562499074435287
Cr 6.864669259769182 5.378031777422059 1.76161533981633
Cr 5.019265793973557 6.2589719372910775 8.273400182658829
Cr 6.498351920729392 2.466386416489549 7.016013333809262
Cr 7.292835705927308 3.099196629248619 5.139437869234696
Cr 7.527265138201761 7.820897611282715 2.773506141026784
Cr 7.02503518581783 5.096120286198825 6.809596916817375
Cr 7.98805918873227 5.889003340109489 4.304240215090716
Cr 5.291884024750393 8.768459461064383 8.888875697880824
Cr 5.783560900075053 4.20682060493078 8.85275438125167
Cr 7.70148665876528 8.442830316118771 5.103502785351572
Cr 7.013355949029699 7.755164831149821 7.6048824828399315
Cr 9.273645279395767 6.323777753202851 2.199373954001757
Cr 8.568982966290326 3.986664660326035 3.2557188464758267
Cr 6.693688937191251 6.760415784210457 9.957960358435615
Cr 6.513727817493058 9.898451267673192 6.689036284283661
Cr 8.341925652795512 5.530606458914449 8.28290056466331
Cr 9.136453057068303 4.165758626131304 6.034588434181592
Cr 9.29538034100227 6.705928779164987 6.452193021494488
Cr 9.671545290028389 8.045279389383818 4.36532432852144
Cr 8.016997173148196 9.254758189361288 9.28268932759438
Cr 10.529740446628777 5.628463944503907 4.242344490535426
Cr 9.17552140514306 8.953516413538356 6.8366662722337885
Cr 9.192940405043574 7.625084026127658 9.172231003161938
