47
Energy = -375.2973941 eV
Cr 5.224876887363743 6.621507224670211 1.6349207766970602
Cr 7.938091677609783 7.1477091808842905 2.202854911849087
Cr 7.11937896429286 5.255910595487379 1.0811943648917022
Cr 7.974473401028056 9.056407893582602 5.160997527422358
Cr 4.729460790978112 4.189639570703545 2.1566932908188305
Cr 3.115271798340286 6.465349979734408 2.0722967833950903
Cr 9.029314073488091 4.888153092054054 3.1557507182822326
Cr 3.6365535016198445 8.292609789154813 3.0604403155058026
Cr 5.975541688311242 8.012321480099853 3.4835914318897467
Cr 5.514995791108979 9.627724519405469 5.560187236871329
Cr 8.172001718567584 6.899419249258379 4.625371983425475
Cr 4.367052147558408 6.00630881105776 4.131421080358165
Cr 6.4646962513450035 5.414936294943299 3.5068317052959483
Cr 7.2993459576121715 8.515434141981205 7.449456949043679
Cr 4.927086826386231 3.5276929611181846 4.509527641445822
Cr 9.908584035028305 7.764834175508924 6.531109268442213
Cr 7.101068132305542 3.0402948892083437 3.0650816241094057
Cr 2.5370586933984334 4.002179733701408 3.8658505334624964
Cr 3.8047830955769006 8.024056311532625 5.3401708512692
Cr 1.812099728164212 6.9345228426523065 4.511476408533125
Cr 6.141164632061464 7.035052427976681 5.878193661910568
Cr 7.389791626158022 4.339143365577235 5.299639146810337
Cr 9.809848169679295 5.420413017527944 5.599750037983054
Cr 9.491297947668041 3.123616305704766 4.2005900657982105
Cr 4.7893828705298676 1.473667046241924 3.880753905673132
Cr 10.482391225457347 5.514468707502956 8.013361148473527
Cr 4.9085323856413146 8.810359567327392 7.769291291138916
Cr 8.911006740453606 7.337959213829194 8.795987738519653
Cr 8.039102339813017 5.837102096133673 7.113755713631505
Cr 2.70950325079357 9.450711613966561 6.898321927487934
Cr 3.3391059306755357 2.940090327076344 6.413687739026658
Cr 1.6523016559517216 7.27672941004085 7.0848841541114815
Cr 2.894283235728883 5.128295337395251 5.869396176407914
Cr 7.196572905396012 1.6609572909251518 4.84611504408382
Cr 5.52506421423988 4.907024796417701 6.373863974832487
Cr 6.155386276640083 6.413242679438939 8.579580945466295
Cr 6.008169790234386 2.3774053144492595 6.671909618284623
Cr 8.974145723131372 3.165679790378382 6.758442660892113
Cr 4.00702060880806 6.742902379808343 7.3589278581691255
Cr 8.203131962581375 5.346006079559597 9.770176053552596
Cr 2.813297164221544 8.087659288969734 9.263210833608909
Cr 7.116315151212239 3.9266178538804857 8.173646006946575
Cr 5.679717412287235 8.092443399807905 10.031517371717868
Cr 2.0305485180831986 5.132183682532293 8.271153426271484
Cr 4.29154314555668 4.239020247595385 8.234273973055558
Cr 5.599187217957814 4.674807528528453 10.225680272835717
Cr 3.706138039951081 6.310231237321481 9.904884183635495
