47
Energy = -366.18583576 eV
Cr 3.958666423706119 6.1961144355185445 9.517732157951068
Cr 6.039405277352967 8.643464076863348 0.5469470395563742
Cr 2.469681836332751 3.8419355182329844 0.6394784936173062
Cr 6.643216576868121 5.686940498867383 0.6689858694558473
Cr 3.2693470847419457 8.610872658741231 1.0658324125410341
Cr 1.970298029545443 1.4524703789838924 2.704836287098948
Cr 4.60091109903414 4.372057506129944 1.2875939698498131
Cr 2.485862221051703 6.181624516204609 1.7960964570299762
Cr 4.38257773616481 2.006234376585077 1.6203624524350797
Cr 5.018423243811596 7.068847409125137 1.741275938569531
Cr 6.786912536899331 3.27474866013447 1.9313286446607527
Cr 5.264156795012682 9.243692257230768 2.993854291255193
Cr 8.545462701394834 5.069022027395458 2.341794612463506
Cr 7.509417109880027 7.410023332366033 2.645849622505507
Cr 2.4596676255052876 3.700381784794992 2.895183443331241
Cr 6.316861652789168 5.314528243289944 3.149949471785958
Cr 3.20559905588742 7.913074525099697 3.5507801381056563
Cr 4.151780129445177 0.6040642548501389 3.657661181722239
Cr 2.3455707438755646 9.474854987339372 4.954247071512025
Cr 4.135254088504442 5.527357312880648 3.5366369048595443
Cr 6.405160983646566 1.1370092570763364 3.6523845567651776
Cr 4.775151666796694 3.1632362023692644 3.68277073616426
Cr 1.6306069646015333 5.611945572673892 4.084162728636685
Cr 7.100386715888348 0.7090370499955645 5.936038684728879
Cr 5.7438287899991955 7.357886960378563 4.57424660662558
Cr 3.6809582607266953 6.870396350703753 5.588773632389609
Cr 1.191942397297467 1.6258800827458773 6.940380456128966
Cr 2.5187651577008885 2.055384450763969 5.085664596577441
Cr 7.8093890225632405 5.3883791479561935 5.089649805616439
Cr 5.641145618793778 4.805159985099435 5.580937996047788
Cr 3.280855442529361 4.374395016990561 5.6913155153588235
Cr 3.5446013659055824 0.34403969474448126 6.874090105506804
Cr 5.057299619540435 2.1815361299418936 5.746529463256795
Cr 7.262193080859375 3.1258847214300145 4.290696930232374
Cr 1.6435896295594774 6.447277945447928 6.596953260285749
Cr 5.096417071371366 9.243692257230768 5.5697449984040714
Cr 0.5360419837626493 3.104681982550324 4.351561383568673
Cr 1.0451398603702096 4.068168131422532 6.383119180878705
Cr 7.2575658108718235 5.072834523608837 7.707408367634218
Cr 3.4198892321994876 8.074113640898382 7.599528601377957
Cr 5.030104119631435 3.790503994241765 7.7531282889119435
Cr 8.917232973362355 5.2713934480005715 5.757820864874354
Cr 5.394211018670473 6.370378148306712 7.234142878640012
Cr 5.657268663258787 1.2112578873450093 7.74188150715696
Cr 3.0519240899718976 5.619182538887857 7.942028488592093
Cr 3.28053756881877 2.85678450382834 7.5588033298634745
Cr 7.309811758633237 3.0398316805668575 6.580901410603458
