40
Energy = -316.22769743 eV
Cr 5.522801377938373 7.072135803661494 9.512684677333937
Cr 3.3078603273207055 6.536377038298483 9.44796404634622
Cr 4.0116485001231545 8.77104974026594 8.237098985782032
Cr 7.43658911666637 5.367060885226077 10.069039729565679
Cr 7.68941753460326 7.6580215527605215 9.603084219384739
Cr 5.04796021292766 4.780129796217004 8.960947606977953
Cr 6.159648223215511 8.659324310389046 7.79614597515807
Cr 2.238205809809656 7.102527098485333 6.698126941711071
Cr 4.576596852080005 6.571119504868706 7.186113066971299
Cr 6.817403138444116 3.586964502051742 8.453456928366228
Cr 3.0615208525426603 4.622861534236713 7.5117640346935515
Cr 8.923620762489184 5.315160690508181 8.665741684461215
Cr 5.805872695901239 10.234714391234617 6.0269516565653465
Cr 8.013487846527081 9.78834988155281 6.301498621909679
Cr 7.014311661436919 6.048286082211454 7.428723167341109
Cr 4.128823855139715 8.589654331049525 5.794632202483953
Cr 8.5662208759555 7.615414247387113 7.614740335610266
Cr 4.4397900546146785 2.5540714322085245 8.112502569546468
Cr 6.577899797243684 7.742544368805769 5.679682384878939
Cr 5.46221287347428 4.305801504330408 6.359660552417241
Cr 3.5951686416299213 2.445011767420497 6.114049976537784
Cr 2.953029224162193 5.130341233645964 5.413884707557069
Cr 5.086126760395493 6.256719087213915 4.653099899294116
Cr 7.959576638707805 9.258628087798165 4.097811443036626
Cr 3.0402689197148556 7.414113120202138 4.210824904603598
Cr 5.38226211132041 8.758029419098275 3.6389304672481817
Cr 8.984401038095866 7.406447190714235 5.336342651221968
Cr 9.695568061725838 5.470137411405823 6.175554194247272
Cr 3.248127565357178 5.227031055101483 2.8607791981616213
Cr 8.124972249943069 3.6575076639557906 6.585421727432603
Cr 6.187186377361583 2.046420838965538 6.117745134916096
Cr 4.5657933177335135 3.6218020741678245 4.34065923231783
Cr 7.207811266220184 7.138066093131215 3.2424978277540424
Cr 7.42425773135312 5.327189158790942 4.955572277370762
Cr 4.615836883321692 7.152100072560692 2.195510417969795
Cr 5.964559077483922 5.075386399323649 2.6867483359358006
Cr 9.390151492570018 6.261118926951902 3.452734635179897
Cr 9.153082356033105 3.5129714995976777 4.267718142503832
Cr 6.838384244401194 3.1800463315808907 4.149142567117579
Cr 8.249305843614572 4.722643280761064 2.402563412301527
