45
Energy = -352.87831729 eV
Cr 10.158726012895182 5.505392636778011 8.165633520076485
Cr 7.206018068290852 3.700526088986688 7.746770604507699
Cr 8.147508735601967 5.340052255899038 9.79429533111556
Cr 7.240567730646936 2.826253050221067 3.0317738091589876
Cr 6.901935484690458 3.347122155667269 5.341955967139792
Cr 5.512451133711317 4.382126609440766 9.642837452519196
Cr 10.610882462088252 7.189778247095342 9.046661338420648
Cr 5.139676603120973 1.5410029081826748 4.090344726742186
Cr 8.758532534076656 4.763240327317147 4.498586052570474
Cr 5.268656179146901 2.1299719419257648 6.922495419540234
Cr 9.891256931719658 7.214811251786618 6.257675089200782
Cr 6.470031893622733 6.08709023865902 7.981335021157435
Cr 8.346373280892307 7.421260968040035 8.467938575203044
Cr 4.9228758438093685 3.2254784056819292 2.4850335073125738
Cr 6.885714300449365 6.659827621677126 10.535573969179966
Cr 8.239532259061177 5.415266667243691 6.6295252772245385
Cr 3.4485793643396607 1.9961236559636732 6.211532834409774
Cr 4.813900570554011 4.6109319128885815 7.061804903275564
Cr 6.822929745509047 4.994256254429438 3.1889080009920514
Cr 6.336550616812692 5.79486788570882 5.386763154229272
Cr 9.377609445350416 9.475273582762274 7.593621509204677
Cr 2.6399830846728563 2.4533139664741164 3.8199897676494707
Cr 8.213858904384436 6.9528396445848974 4.271219667453938
Cr 4.410472812464171 5.9881720250832275 9.3747868709763
Cr 9.87865503156926 8.830649885370702 5.140988428406282
Cr 7.377611423540841 8.107272597634205 6.378769940039488
Cr 4.625226066507945 3.830301247164641 4.799557073856447
Cr 2.24281881126582 4.180886240660374 6.07129707508376
Cr 6.991498997245859 7.232909847772303 2.255162804711799
Cr 5.801683967992806 8.320371530163904 8.865644588800802
Cr 4.815700043801185 7.390703442748959 6.855518823372432
Cr 3.1314944922720067 3.709766568215065 8.27115932946153
Cr 2.422134926450768 4.414648624840311 3.2892471042850966
Cr 3.7495861789381415 6.026651034936324 5.009497047333393
Cr 7.180376293926479 9.763904648987253 8.721986262845485
Cr 7.621693345645117 9.244729212934695 4.16406625920912
Cr 8.208359706261936 10.521658837581702 6.467081527993549
Cr 4.625723191831067 5.901595266020645 2.912266149957985
Cr 5.578333439436185 7.875610600216761 4.280121714147272
Cr 2.798302188889556 6.228329131395153 7.263014556477333
Cr 1.3433343831505473 6.124633679708651 4.793480517721545
Cr 5.732328419373966 9.494597141158854 6.357325340320489
Cr 4.471992820937077 8.660072489884326 2.6824592855383727
Cr 3.3170796416840513 8.302375090045597 5.2069300282671165
Cr 2.596749010234552 7.098658958927467 2.942670151776114
