43
Energy = -328.65612342 eV
Cr 8.602730317908971 9.598682641296715 4.7950997560982405
Cr 9.910654935020322 7.907977427367174 6.386713118452147
Cr 10.044117749203634 6.1637741519259714 4.390908331251834
Cr 10.181277979154498 6.724856503808709 7.502924941672848
Cr 9.708836291848701 8.924427403387703 8.898671347806792
Cr 8.166078777037837 9.70699142680467 7.337549146012541
Cr 6.899227059027429 11.301653910831332 6.169388986624571
Cr 10.406139557783462 4.144512453555951 6.606343927404687
Cr 8.005599036845348 7.466236219867563 4.586891841066145
Cr 8.561984784328576 5.27611711001061 5.899051037128151
Cr 8.942240925693037 3.388194743339516 4.225960782213925
Cr 6.259070724966148 8.969575975364169 5.618273854368501
Cr 5.954712025274024 8.192784372056227 3.5435049752747796
Cr 7.551050810806441 7.293018261498908 7.226943475248518
Cr 8.249180821880675 7.081710679072244 9.503429610080579
Cr 8.67926369732748 4.990276854460379 8.553749852188677
Cr 7.478702212860504 5.580308068465957 3.422340122065082
Cr 5.390715301972417 10.372348491229223 7.813627759933836
Cr 6.941773033685778 9.08281162137552 9.296101114668579
Cr 4.404092050268568 10.26555265856487 5.4454648189583805
Cr 9.44971739444205 2.7954460030951593 8.425400343168437
Cr 6.46174712658732 5.012703541809705 7.5959661379582295
Cr 2.7894889333723953 9.30814695072847 7.3205352173581835
Cr 7.821445114566712 3.111182072451109 6.720006539778628
Cr 6.986451633287844 4.626721705022348 10.276596484434167
Cr 8.070412303130311 3.1360921453792465 2.8452451848445097
Cr 3.8776513000336217 7.875408746399074 5.079641223335124
Cr 4.919913746843279 7.945229606641725 7.355508428348105
Cr 5.711430805196366 6.08475303443347 5.527519486332754
Cr 6.944788825998828 3.091111552385355 9.252413949495914
Cr 5.540171932060387 6.969472748720551 9.322408411188709
Cr 6.479957790591136 3.8367234740930165 4.90267130793248
Cr 5.0169847327616655 5.989797614672809 3.235121996143525
Cr 4.231749586713649 9.2845872707264 9.622880654778283
Cr 4.753152436347692 4.715910641690363 9.308472400361671
Cr 5.492006277331258 3.6638301953170647 2.801532073369514
Cr 4.974866930176884 3.5186765975138186 6.7349281903800495
Cr 2.2470307920466053 7.7280225445348085 6.999849384917646
Cr 2.9221081201982706 6.114314837829197 4.751724411195069
Cr 3.8904123433088746 5.79573365973805 7.1926502880601895
Cr 3.109140641312478 6.816016503940993 9.373312106935193
Cr 3.8005780091811237 3.964399218302738 4.658192580524526
Cr 2.978679346349911 4.572798556940525 2.486936234274757
