40
Energy = -309.54002531 eV
Cr 6.357735667434419 10.721862184456226 5.340796808391092
Cr 3.7632800537541 10.338887372374446 5.25071939774939
Cr 4.952574483253546 10.521459253536252 7.250299336950983
Cr 5.130553062993535 9.45713328412559 3.6896249029999404
Cr 2.1717237952432553 8.953597649940995 5.701121074594801
Cr 3.769708829199038 7.8773402451895445 4.726084592866914
Cr 7.873146102709827 9.296823564625024 4.389376799482848
Cr 3.669052210763777 8.606396673461148 7.110431097219115
Cr 7.677021337053845 10.023994211676804 6.985635027550764
Cr 5.963986015638892 8.562273189054897 5.920389755238691
Cr 6.139452422377831 8.599051439283285 8.298394671504774
Cr 2.827811448653189 6.4624506522537 6.467703949828364
Cr 6.33857359639856 7.332869338750604 3.925111651177581
Cr 5.093281219797062 6.391141553271654 6.493428789149353
Cr 7.191264129921127 6.50435455721443 8.011667395163112
Cr 8.724566779010141 7.312664745966626 3.737939795537355
Cr 8.465244666923963 8.867096662872884 8.810168504088695
Cr 4.691002214217277 5.556592738765242 4.303396150375626
Cr 4.5325329410351936 7.078010025010582 9.055050687299474
Cr 8.427416140881512 7.848804062785817 6.327801546310126
Cr 7.265909332583695 5.743878598723952 5.361130005448023
Cr 7.258237314253761 5.450140747675797 2.7955947200003854
Cr 10.00528879103493 6.751841371287935 7.981795126983771
Cr 6.625818654579556 7.336871779051643 10.273141321952437
Cr 3.8141045165855467 4.166900115853519 5.951640422345715
Cr 10.14185125351633 5.842135031416267 2.5777470833834384
Cr 10.108904053342362 6.051420126573612 5.478887968717588
Cr 9.022324042398234 7.282087207113856 10.339001633015735
Cr 6.188391153735671 4.091764559913385 7.052723684024215
Cr 3.7288346732057254 4.717821562452614 8.217163336629023
Cr 6.236887701989509 3.8052172983111174 4.4074461289190126
Cr 8.807066423274382 4.874703493942777 7.075416716770094
Cr 8.885420552628984 4.400109071875875 4.16699665804259
Cr 8.59434567017431 5.118649431302197 9.646529581925058
Cr 6.2541441221862435 5.056017505615048 9.686820742341373
Cr 5.247162902740741 2.2657656872785954 5.961554963067751
Cr 7.8466387452195345 3.0732510128641755 5.943009743843402
Cr 7.965500889948759 3.1163456038728907 8.782175219258562
Cr 5.020215711147031 2.874784657886643 8.696545361166606
Cr 6.86529330310764 1.414145866014986 7.518500473507362
