40
Energy = -314.59626939 eV
Cr 9.756869264812906 3.648197093364063 4.21915319664403
Cr 9.263643574370011 3.730834576575668 6.977002653920947
Cr 7.953094831192175 4.267916455565737 9.312945671190764
Cr 7.93142163194304 2.5717401209784105 5.065680770266
Cr 9.83035720911428 5.708793845745853 5.492986849998966
Cr 9.110083285015966 5.1377606958664686 2.8875865445616844
Cr 6.752964706992982 3.759397740686346 7.341635897109769
Cr 8.317040634622524 6.02336355391486 7.659149402878198
Cr 5.252935523992423 4.668443075292746 9.363924012427212
Cr 6.846830206152414 6.317837534008803 10.011558893324628
Cr 7.632096030279778 5.0696966407376935 5.347809865253126
Cr 5.513191556964532 3.1681035854639368 5.167441912893279
Cr 7.15829726330993 3.6415540505829567 3.0097131717956875
Cr 4.261936966650181 6.533657577514412 11.14472794379354
Cr 9.297819372537711 7.993310287966527 6.666822532093174
Cr 8.71901497337837 7.246257885151827 3.9816190614479026
Cr 5.662498036141574 6.221388241238012 7.440170999498612
Cr 4.0684672721517 4.087158016924155 7.092251066408275
Cr 7.295175695799359 7.833582884426095 8.414781971345025
Cr 3.183787029864848 5.812150535027035 8.825114689320642
Cr 1.9863127849220337 7.777105634280659 8.924993701588383
Cr 6.614495611897952 6.054039571832237 3.3014362531447836
Cr 5.093310191570726 5.440836312342089 5.210823267864575
Cr 7.079769385686133 7.592211104258173 5.564361336844875
Cr 8.07353311824969 9.905303572293258 4.840976125600574
Cr 4.596485787704437 4.272091051646301 3.022589077971982
Cr 1.7696279660861243 4.987699826151045 7.029069146630381
Cr 4.6071359590607965 2.0581812101637613 3.153343071427846
Cr 3.2843730778656397 3.2866496856063327 5.153921094520256
Cr 7.439708294775263 9.817776861653545 7.088948853739996
Cr 5.251584666999722 8.925320440609816 6.815454973805135
Cr 4.772597128559715 7.708757552571311 9.243801846840013
Cr 6.312953931165468 8.3384492264042 3.2414451854595163
Cr 3.6121406484703438 6.9139121188109245 6.8770245197027915
Cr 6.102966446474502 11.705763803467544 6.38296079303244
Cr 2.7714633786458025 5.664460327085106 4.849556030373701
Cr 4.167328374883275 6.60666714420338 2.8844755742199437
Cr 4.487295528460084 7.803138024191906 4.857603635650031
Cr 2.3391876712658783 4.41852784758601 2.768561956003724
Cr 5.79460328262131 10.122770244124661 4.727391015101073
