41
Energy = -323.86676406 eV
Cr 9.780989328244427 3.500945379150255 5.206705148708453
Cr 10.11762496295486 5.38852721440081 4.434359715234992
Cr 8.53694270936791 3.967357909877392 2.915176405053779
Cr 9.474669438426494 5.308448683550182 7.001827965637929
Cr 7.882977679651608 3.0418261981073007 6.978971132174459
Cr 7.1982547373950005 5.412610645782465 1.3336465047300226
Cr 7.027774242198793 2.655995425036186 4.208765328319304
Cr 8.2606978109287 6.69744800582114 3.2545881590145056
Cr 8.702621169934394 7.297970877213254 5.678852594342835
Cr 6.145354742730576 2.9273579912193846 1.9509042121810238
Cr 7.648513997825899 4.985571749468031 5.055647944602907
Cr 8.435053747534175 4.606027188830849 8.90927475580484
Cr 8.88755185094246 7.460187635460826 8.03727273878621
Cr 5.936047610785656 5.077357465509069 3.4022147868315185
Cr 4.906706988840998 5.13524177287254 0.8381230247212081
Cr 5.7571102104842335 3.6347848538617815 6.465756110370846
Cr 5.914393353235674 7.4712837713282365 2.2585432614025502
Cr 5.898154160820429 9.353412080105532 4.86276416746108
Cr 6.973703419668538 5.7284168937228905 7.143346111711253
Cr 6.717523456695642 8.02836044930628 7.277391608304562
Cr 6.617220952515225 7.124092411619342 4.8357849436911025
Cr 3.9429830239536963 3.7747893893760467 2.611041793045405
Cr 6.796366883050812 6.5159746763537125 9.45403666296972
Cr 4.312500487567757 9.645959387820616 7.485476254151194
Cr 3.3472559710708882 6.026836136927107 2.9271412295537065
Cr 6.142154380589087 3.8057345632601014 9.011339041606233
Cr 3.4422937943391263 3.487047131930668 7.020291093933202
Cr 4.684990223512604 5.409761404865247 5.226299684421173
Cr 4.409442083860918 7.671604523643834 3.8149823322013665
Cr 4.645837863511208 2.712215806559992 4.540341703031398
Cr 4.7156487832688585 5.720645815065211 7.928865271569391
Cr 3.2667662793594023 9.578011383171996 5.2752956268479565
Cr 4.626611180255103 7.505590301956328 6.414574859258959
Cr 4.815777477774054 8.044222200596359 9.10774519963054
Cr 2.4438044385192144 4.373025190777196 4.797462340847864
Cr 2.441486123363821 7.134545210152299 5.303232254503154
Cr 5.204760082314024 5.676861609130439 10.427224127982102
Cr 2.4587635864048365 5.652999666718938 7.193176076192929
Cr 3.370503661309977 4.134033491615991 9.324364379039078
Cr 2.398039422279863 8.344585599227987 7.609467395531056
Cr 2.6844522422136774 6.590799284112107 9.39630569092311
