45
Energy = -357.98381442 eV
Cr 5.106461234275134 10.101904478944617 3.7070405136088147
Cr 7.127654162579213 9.828074027190977 5.460096581678775
Cr 6.953933543539209 8.317306307370178 3.25222993069554
Cr 4.67922537148154 10.71458312531468 6.454357605248757
Cr 8.867775670958203 9.51937560282519 6.6541977662298155
Cr 6.281820534908873 9.898279517668527 7.682676610658153
Cr 4.129971033185074 8.317382669219997 2.988710927275659
Cr 3.198682538472571 9.576817074324842 5.195153992581727
Cr 8.37304651755118 7.58402553657382 5.0987135456960715
Cr 5.276265333570837 8.106114858514129 5.461551165568044
Cr 6.986565066807278 7.476693551577481 6.985398899086555
Cr 8.172081454240184 8.532250459107626 8.821836516043055
Cr 5.65697521017162 6.778020288770308 1.9405593515026542
Cr 4.338873505504584 8.270248605446882 7.4809550652966985
Cr 8.07296394526713 5.826191410289793 2.8052754529681625
Cr 9.707478168207 6.986777734734438 6.973493699980525
Cr 1.8962780469060756 7.882823955743164 3.7856465729293762
Cr 5.830079885077198 7.635412198134299 9.394984457294072
Cr 9.277682875607782 5.310417769939654 4.715960467508527
Cr 3.183157795890278 6.094019386528356 1.9076053501998251
Cr 6.5268603401478975 5.949241449974194 4.661150967951606
Cr 3.9573466498680077 5.997860562498596 4.065434345781389
Cr 5.667522020670198 4.536181891626224 2.617877887793854
Cr 9.947385863806787 4.62038897314768 7.793907376863978
Cr 7.726509247865756 5.293331981818346 6.583203003564773
Cr 5.019356880507806 3.7489447168934635 5.009124263261675
Cr 1.3372948681721422 5.613878418493921 4.113939945934126
Cr 4.98546512530865 5.816705631423933 6.535622869384283
Cr 2.7689703395814624 7.018531003915166 6.023422172999223
Cr 8.286463598195663 6.185180083296574 9.16343420549613
Cr 3.820254013010251 6.010501445901815 8.35453913132928
Cr 7.5405458316607605 3.5406203950152193 4.307102487037853
Cr 6.2130058657629315 5.274487382662886 8.780737159505069
Cr 5.565834457400485 1.8670881486240893 3.5911721279756654
Cr 8.242428654844831 3.5776013269968634 8.556197016939452
Cr 2.5912191333662706 4.646351327838277 5.950438773320546
Cr 3.1171007246146787 3.577793573941202 3.7444606106123786
Cr 8.767024859242612 2.862981290105279 6.052642522774564
Cr 6.336394577648332 3.3949451144232707 6.986314595656242
Cr 3.9391792634575467 2.0210046545691553 6.125110258882496
Cr 4.176127542705009 3.704969267912183 7.827757170496053
Cr 6.4391865183364585 1.4542219487108308 5.612507990101913
Cr 5.752902972253004 2.8872302589784367 9.504241239587515
Cr 7.481594138610167 1.074672238681766 7.771292956992927
Cr 5.179830367746475 1.109564483249654 8.039464775349414
