5
Energy = -33.08501315 eV
Cr 4.991941290886215 5.4792514831880155 6.9106494651540435
Cr 7.162075740476687 5.551276347646304 3.866543815313654
Cr 5.775661098382042 4.277449218684323 4.934926998257873
Cr 6.479050445423648 6.770598998537098 5.754207867738891
Cr 5.3868513862980905 7.591776323389553 8.184865890233587
