54
Energy = -428.7774702 eV
Cr 4.688697657867381 2.104894964162877 5.9150497890925395
Cr 4.095768207771696 3.498719888963221 8.272366386485437
Cr 6.978993772483325 3.1875350926827206 5.261889934632462
Cr 3.330199838830628 2.604057331978726 4.625849587558675
Cr 6.340574800595582 3.3467479743232804 7.561779744714105
Cr 2.343927445032263 3.5851838064011012 6.668007736865473
Cr 5.427381734183259 3.9144450063449665 10.134586961917694
Cr 8.864845154112901 3.576734170796886 6.925480085976752
Cr 5.283095034447817 3.584959797022403 3.581408064446195
Cr 7.766902267298076 4.412819988040608 9.134324289032126
Cr 7.9819303073028935 3.433156534505915 3.1302306320168927
Cr 4.824813915509402 4.533216732376937 5.8917247781814455
Cr 6.910254069013509 5.800068620413491 11.175252855409848
Cr 9.919948540919872 5.829605230592458 8.241246074778237
Cr 3.0226290964618485 5.162452964014533 9.403609595579935
Cr 9.464994924818031 5.460798430347209 10.655064585397435
Cr 9.14763428941929 4.46261488495288 4.584552800222006
Cr 6.79647690240014 5.565957263049347 4.35944281008763
Cr 4.697996574671123 6.202370087338781 3.4759955869257158
Cr 10.436675604040238 5.598925200659428 6.3207635630171985
Cr 3.078469963819653 4.999099328993386 4.493299081726423
Cr 5.495752316717555 5.709222392096332 8.294052357054019
Cr 1.0748944695901292 5.097762444081257 7.925287554680605
Cr 4.636228892483469 5.958707412972021 10.818907367532658
Cr 11.169373464158976 5.610809483985271 3.9442256538294576
Cr 6.785070792332144 5.012354457505616 1.9668338578837234
Cr 7.457885770480471 5.555902769104064 6.6109349546099185
Cr 3.0113507636191184 6.046876173581894 7.025937672934236
Cr 10.826692804571376 7.709590020757093 3.294108146474304
Cr 1.1336749255909875 6.1222045324846555 5.420588427684275
Cr 7.837746392604732 6.72584866358492 8.94354406385737
Cr 9.05234538694263 6.904864874424391 4.779772654252762
Cr 8.817172273157656 5.97470005881702 2.6006068331835768
Cr 6.2720688466444345 7.954823791383432 7.338064092927922
Cr 6.430253538466784 7.3446489644589885 2.4002417714844895
Cr 8.0528083209541 7.642811536404648 10.876722793142886
Cr 4.939021618974311 6.9714726003218574 5.885864550320828
Cr 5.859830120025529 7.974250021581866 9.900808894304229
Cr 2.385568082301629 7.48267598363675 4.885471389053754
Cr 11.314805108796978 7.946700005975858 5.662689677152033
Cr 7.049123272036554 7.9145599457663725 4.852502224590032
Cr 4.0229397864907614 7.394534263279014 8.621848968602508
Cr 4.564249245583534 8.611225333563745 3.997420928053424
Cr 1.6338108991766949 7.969869825261326 7.394855774384556
Cr 8.813940630626087 7.706297936258593 6.827531568723734
Cr 9.426989106453528 9.458742608879454 5.022085831347896
Cr 8.001577493432627 9.246089849336398 8.8260336446821
Cr 8.631511950104237 8.802995005556053 3.0315754035591804
Cr 7.798562031689215 10.024623209605563 7.016960184133842
Cr 5.342991015300142 9.795963756603333 8.43196781817249
Cr 5.5718498459110775 9.759054943478096 5.7084308811894156
Cr 6.366619617853576 9.637619977196646 2.970924219356237
Cr 3.6877184022149727 8.830269394965498 6.717945033572989
Cr 7.467584901255465 10.691315992453527 4.677996026343447
