50
Energy = -395.91378238 eV
Cr 8.288096959162587 7.7154179828226015 2.307372417750239
Cr 7.392332616506294 5.595755051060762 1.851644519588879
Cr 9.568157857296747 5.259653898598648 3.0675994825715245
Cr 7.609833565270455 3.4769476780358892 3.20082918758125
Cr 5.600082402951532 7.570047510565053 2.8371641377613854
Cr 9.55339701448062 6.996271878402904 4.155484329748269
Cr 9.939971690809404 3.020074430703395 4.415207319964798
Cr 7.340059029523118 8.494115021004678 4.215534379322804
Cr 7.079399046065918 5.959907313977096 4.205668665078145
Cr 5.223487801285956 4.841159489020607 2.560497830129148
Cr 2.9265715338670346 6.709829907339834 3.421304686095535
Cr 5.92532926389867 3.7916035973617532 4.764975370005187
Cr 7.637679583044169 2.000738549653735 5.354162305613067
Cr 10.723917349491304 5.382491037960925 5.588031686302818
Cr 3.467499933631177 3.8159497369277346 4.362837648884044
Cr 4.194351543978448 8.735925237794628 4.600316251320061
Cr 8.375643778241844 4.667656140466924 5.569914325952517
Cr 9.312582608338396 9.307677437890828 5.2752709657407175
Cr 10.88281189974197 7.847541961551825 6.325344515312134
Cr 5.848222735626809 7.765252454272835 5.826987531651239
Cr 1.9639301697753213 7.93148499328013 5.676241187001863
Cr 9.608170169046701 3.0706418481717725 6.846522265181921
Cr 1.9855034599730683 5.369820413214483 5.315652295901918
Cr 4.5658987574744545 5.939135170504672 4.560295934082463
Cr 6.2903212172352285 10.385002189204737 5.272309408559498
Cr 9.549020653901339 8.733255275272366 8.087043052690943
Cr 4.87463521457866 1.9428917594759862 5.8802177416147074
Cr 10.019011848707274 5.593908627038702 7.6911433834293295
Cr 8.50008090450629 6.992106491534975 6.333984170255861
Cr 3.6070636265489124 6.98751405174436 6.607302589677551
Cr 4.067957889365447 9.555424115508055 6.718179735741782
Cr 6.686210218567161 2.9750800016674943 7.093946630666714
Cr 2.081876805508859 5.571046905946251 7.628626028173847
Cr 4.045881644593013 4.268713862404183 6.728766220656014
Cr 6.125891280772594 5.682964585046107 6.889405447527937
Cr 5.848198638666 10.854727174570169 8.087194366961354
Cr 2.2553628572173716 2.9235444765242384 6.70380200864476
Cr 7.9445751779559854 4.836509385562926 8.101563520687371
Cr 5.405894355326862 8.093545602640608 8.158740998040763
Cr 7.870615153197456 7.192690247080967 8.59899404259219
Cr 7.575545808518201 9.338455268598203 6.890651154834771
Cr 3.1135347631768497 7.98719042762019 8.80588086177467
Cr 4.135019622903812 2.0468804243981307 8.13022101501705
Cr 4.11766699382908 5.825957793946898 8.91871726134193
Cr 4.534607006699312 10.311078912082158 9.409148804086701
Cr 5.517270861214633 3.8132681160870145 8.777592903051124
Cr 2.973643174718614 3.6218709316798257 9.261240603329757
Cr 6.1411907787493965 6.288721529055773 9.695557126271911
Cr 7.018586515711921 9.074321850323726 9.519220459467407
Cr 4.807929776721427 8.087657864668005 10.611392856296535
