54
Energy = -427.22530831 eV
Cr 3.8606296899820256 4.371740365301299 9.464808359113489
Cr 6.269383532571534 5.2511822805401005 0.23947189043222025
Cr 6.239641056867667 3.5756016780518727 0.9519756202040025
Cr 4.798476164767089 6.993209344873562 1.2542014282215534
Cr 1.425270820024414 1.1335166979483757 1.4026707309055082
Cr 3.909381118559648 2.244511411688352 1.265701674125931
Cr 7.665048314444674 7.010882467746661 1.5817756513157075
Cr 1.85664550863489 3.575452499774616 1.5281233640094782
Cr 2.1585365179191487 6.287723124043035 1.83412646749144
Cr 4.125429504905877 4.780496766547806 1.9395043000340855
Cr 3.1894620849131927 8.948200567287861 2.859196598179462
Cr 7.821240250812037 1.6645829559043468 2.451288053286997
Cr 8.27290518565192 4.4122686421575645 2.7089096389614324
Cr 5.135155910784015 0.7027786903535268 2.653299435516188
Cr 6.269583280553731 5.799659258222863 2.946789302447422
Cr 5.910264505930667 8.35679805136859 3.5725092642156713
Cr 2.416571689616772 0.43379698361834484 2.7012827228549448
Cr 9.563642990243505 4.714624782999216 3.0878480238665005
Cr 3.8547449514946086 6.9592277962283875 3.530837021150975
Cr 1.0921722808893533 2.5383721968534063 3.6591035351490624
Cr 5.935309492013327 2.9599798850731123 3.2251236180082006
Cr 2.0790381713448722 4.9503195610827495 3.739283838932713
Cr 1.4664980935631027 7.532585211605418 4.299470980764364
Cr 3.460592119486889 2.729419483014829 3.5293686311248798
Cr 8.087351670125987 6.966496296698098 4.311925063784045
Cr 8.278253628354163 2.7396712063175217 4.511479750282678
Cr 4.542462698934239 4.718930637282826 4.367457792540746
Cr 6.705093326298264 0.9355392228883566 4.913657085517524
Cr 4.329583007291279 1.0451719005650466 4.967079533377378
Cr 0.4474831486922228 6.434165680978174 5.279509321305699
Cr 5.6323320835705495 6.673896417713107 5.510922900061986
Cr 7.052501762499299 4.691217533188839 5.0674745887040356
Cr 1.9571978188762942 1.185049514708644 5.37828371301886
Cr 0.35154911073044626 3.851550686883268 5.545554448320079
Cr 9.563642990243505 4.568762033918507 5.553004024822812
Cr 2.9814185760509253 5.9971468897121625 5.779655163373039
Cr 5.726786758575467 3.047733673917196 5.934620238730676
Cr 6.598726585160919 9.047572587263076 5.592582633211965
Cr 8.306273474707824 6.863081250034357 6.091447982536819
Cr 2.887796921155987 3.4648788482905206 5.90912947375575
Cr 3.956530201150044 8.34391805491307 5.681593272091984
Cr 8.099491613929844 2.551289428189254 6.836998795703862
Cr 4.949189281877148 4.958514547444847 6.810892212806289
Cr 1.8546918553052794 7.922269382174382 7.064836315681122
Cr 6.240087436162406 0.8575072387950432 7.243916653837452
Cr 1.5998310301978962 5.247114046411803 7.344744510230222
Cr 3.9943045559273034 1.7421272040284697 7.270556307205243
Cr 7.3525150176187415 4.798870514849699 7.4042762064554175
Cr 6.283685294782386 7.262745677722018 7.688016646044051
Cr 1.4783973198732805 3.080669869821431 7.442226309770661
Cr 3.548909990843912 6.8863056123695365 8.044755119516914
Cr 6.0443752915729 3.202057955185747 8.481207615825623
Cr 3.3844748410023113 4.124140220098061 8.653921034563059
Cr 5.275446612652156 5.461366490933583 9.177612276749347
