54
Energy = -429.28504574 eV
Cr 11.892969067171599 6.98041083752601 4.255205200376318
Cr 11.160073017589305 8.083738181052608 5.653871018760953
Cr 11.889575945106076 5.720249046401626 6.641958573424051
Cr 9.248892764027076 7.088659041099128 3.995796853902411
Cr 10.867080328858757 6.558955361612468 8.028029964910026
Cr 9.237110034958604 8.580245619586696 7.563333369217665
Cr 8.888660254294944 9.448568181614108 5.565680054760592
Cr 10.394699684723818 4.977383012907438 4.523059810124753
Cr 8.346776320710523 6.525748588862037 8.439428993147333
Cr 9.597195079905088 4.544060404800012 7.018881095096528
Cr 7.540609919030518 8.900549474330791 3.5428633254244337
Cr 8.915225114768726 6.633325637403469 6.034525007974856
Cr 7.241513985463857 10.54252351468102 7.109798170320077
Cr 9.028722099346336 4.076056306347853 8.816145373042236
Cr 7.01916499530745 8.894439366657279 8.741348669051543
Cr 6.026270944663792 10.232237167183046 5.408760499451828
Cr 6.793338598675081 6.301557696223791 4.4224438566550095
Cr 7.132558260571018 7.139795427692429 10.510501031460672
Cr 8.006804346690846 5.201636352391267 2.8737642044743166
Cr 7.2052699811038075 7.58049181757965 2.174357663205937
Cr 5.9356343679840196 6.962162479159322 8.270088198259112
Cr 6.924858309738306 5.327842317964224 6.7209234415121255
Cr 5.118481471539176 10.955015577859482 8.371650259259388
Cr 7.051189735814164 8.094256802899055 6.106409433620024
Cr 8.152749317195184 4.1652286933659495 4.969661207287609
Cr 6.7070159596251235 4.88652130734474 9.48786259321237
Cr 7.998551038278334 2.602586264372917 6.703564684178719
Cr 4.807047781026589 8.703403058353786 9.840973851932494
Cr 7.094294270123919 2.126526369495544 4.216564370276979
Cr 6.0171069055501745 3.890789152761814 3.376633392857634
Cr 4.858077283849907 9.122911948335764 7.197295751131094
Cr 6.618712202684795 3.208958922908845 8.4360081355485
Cr 5.0595963110358575 6.2995099212904915 2.7486672532075827
Cr 4.735434592101175 4.934163259263784 7.68447693023301
Cr 4.8643964004519535 7.046343832991889 6.044213736535712
Cr 5.294040434867519 8.239705071769668 3.8966083811419927
Cr 3.517694712839162 9.263783765706053 5.045129377396613
Cr 4.801995663265693 4.898896676955472 5.010768098807178
Cr 5.668776069654653 3.0414317848715453 6.052290521380267
Cr 4.660638224340279 6.1866913526184675 10.29334216644608
Cr 3.547851381244268 7.309553791754604 8.26715514727188
Cr 4.479613046704239 3.61431635177666 9.90496682355578
Cr 4.468432745227954 1.9246549988059358 4.129419739591473
Cr 3.4622039036709573 4.244502129376378 2.8726883984741978
Cr 4.165487469207532 2.477032017246273 8.367240732045014
Cr 3.3628036223747997 6.694476595801951 4.0784377830349925
Cr 1.4053504318674748 8.338555357119498 3.7970194075712693
Cr 2.4595625867529622 8.316251292388579 6.340362913212954
Cr 2.623741486058726 4.842866161693068 8.19818577404951
Cr 2.71073567147126 5.817695260322288 6.413968642552454
Cr 3.2508320183859776 3.2362892374249346 6.2015781662184155
Cr 2.539472171113979 1.9275453634237567 4.209279634750914
Cr 2.2162697313345405 4.540531063967565 4.310295934942785
Cr 0.8681595416187727 6.820237425811784 4.790572846525693
