54
Energy = -429.23789726 eV
Cr 10.664478119017138 8.876277586881788 5.012674870598753
Cr 10.374963967259735 6.561116046780255 5.7961467609019985
Cr 10.081282288396157 8.544980282520562 7.652156340904668
Cr 9.351771872524749 6.782511413576297 9.616537517956374
Cr 9.517865901445978 5.084424902313845 7.878288100827828
Cr 9.733586058958911 10.727393903382719 5.957990583551309
Cr 9.268648124963732 6.987567192301235 3.531499774508379
Cr 8.673751015678691 5.108513250438023 5.21904051314167
Cr 8.721554521778764 3.090309377326584 6.312118879958059
Cr 8.915428822846321 9.993599876385847 3.48962249851941
Cr 8.359634992798952 8.442166750492547 5.55542719579369
Cr 8.47868846373044 3.0372448764332822 3.599395404366639
Cr 8.16927931256291 6.907698551313659 7.21383718865142
Cr 7.980194660888803 3.3869850716473278 8.550016227752927
Cr 8.437747194582489 10.20674403630167 7.538186416020105
Cr 7.742515939269759 8.340428395414348 8.99379659363662
Cr 7.324138489913916 5.6164611915950085 9.40612187281347
Cr 7.013603537760565 1.3628178926072971 5.221949018169473
Cr 7.752884278989739 7.885544141589945 2.8626532840462287
Cr 7.213154948342098 5.400879246477072 2.9459003031356508
Cr 6.894975458922702 4.903134500907349 6.9495459592434505
Cr 7.119210113546191 10.750922571447678 5.3767730137727865
Cr 6.613907380602205 6.717794342014881 5.05663105436606
Cr 6.307625358848657 2.393670546226813 7.371221000100861
Cr 6.414756312016563 3.872272157053782 4.999364192868915
Cr 6.457286294503517 7.353391185995491 10.533872236811028
Cr 6.387952871118066 8.871599438408104 6.8080038994875895
Cr 6.2738331122277256 9.472554617186109 4.238481702601394
Cr 4.631320939607059 7.725760405393893 5.356478428662113
Cr 4.832503939807847 5.369196415377121 4.047986406392397
Cr 6.276698976873166 3.9064154768533843 2.330697416013336
Cr 3.9108775326057437 2.100806121797665 8.478533280599528
Cr 5.1800918760015735 4.343161818145122 8.464265934621109
Cr 4.6257843235500875 5.77463460371484 10.222720533218931
Cr 5.598771051775535 7.020166005638282 7.94573360376436
Cr 5.877535346607737 1.6829730545813473 3.765602368881947
Cr 4.588156695650378 3.1100084474934397 6.0420167572569135
Cr 5.516723814254658 9.509621839611405 9.073538000237123
Cr 3.6193976532112635 9.385654640572213 3.676323061918517
Cr 4.48831503534873 0.6936757188314087 6.028795912954329
Cr 2.782186074226409 4.45632459753033 7.861757591588027
Cr 5.3033712310121945 7.485809929530842 2.8133481231078097
Cr 4.557998357051693 10.31042380645219 6.097045521087406
Cr 4.158692957402691 8.447112065366227 9.831366197405425
Cr 4.415855979170473 5.540433654948166 6.227070686230529
Cr 3.9077420106957224 3.3647763748572714 3.3156873634915307
Cr 3.3336519014896915 6.5244587946303225 8.412339265297936
Cr 2.2723990296664964 2.2272891539502337 6.6016895446877975
Cr 3.2135877634012413 1.8047041394422645 4.146076311764373
Cr 3.710153616088595 8.842074738082964 7.230960042062743
Cr 2.489604619684467 4.306150403941283 5.214678870439032
Cr 2.34936086132463 9.051469279171489 4.978095955542651
Cr 2.9586050551741914 6.618497225595902 4.047341857842678
Cr 2.2756545210596526 6.772795023251859 6.302871284003165
