5
Energy = -32.05453384 eV
Cr 6.047023248452033 6.055334949683138 7.945861964562407
Cr 6.5151567054126724 4.790028890395927 5.992018874744273
Cr 4.798611102805143 5.5807491694892315 5.985354300747249
Cr 6.683570794714815 7.404773340029449 6.032935308657818
Cr 6.325648575957873 6.570217304544849 4.439096405159424
