51
Energy = -405.35137271 eV
Cr 10.0774351352671 4.849770868698262 5.208420564941699
Cr 10.631337142277872 7.558159101652303 5.098106107184964
Cr 10.42581482768829 5.5555793028039195 7.110323287399802
Cr 8.892822722500437 7.820857284823943 7.296373853267988
Cr 8.95233824447153 8.991582578164568 3.5144778688206633
Cr 8.670952392380189 6.125838009095761 8.969112289140782
Cr 9.926673031624984 6.739133468915197 3.11405048492527
Cr 8.977907724012024 9.521872776806681 5.575834866923331
Cr 8.772003871802886 3.7606529566309295 8.99056121505026
Cr 9.219852970974308 2.6949345944770586 6.461417314304964
Cr 8.366653072808399 6.790684139951664 5.18353392111422
Cr 8.732151218381603 4.511343793397307 3.091110138527764
Cr 6.766323160744347 8.456160097986686 5.09125651733878
Cr 6.767411466538877 9.367210043366175 2.812112129919982
Cr 7.107224192530871 9.9326486894021 7.278712976214265
Cr 6.6039168560601285 7.924332436749258 9.54522441314048
Cr 6.598474867596392 7.323728060244449 7.351244433512375
Cr 7.125552624546762 10.90213776254016 4.495553632924409
Cr 6.634465452083474 5.328792313641316 9.272335384220913
Cr 7.038462209900617 3.1500782346382725 7.623213617566539
Cr 7.351641977945225 6.87408166946348 2.9867474043658357
Cr 7.856017432378617 5.190962071678331 6.965664081710146
Cr 7.645618567695896 3.841779690503866 5.0065258032370785
Cr 6.7852362977796075 1.5940212655143313 5.88767853037701
Cr 6.584742352617893 2.598843755622824 3.429470315513136
Cr 6.053246451446846 4.749415895695 3.0147055289622116
Cr 5.939388892947649 5.941939786220549 5.178398672738192
Cr 5.221022389097657 4.983054056492453 7.555659654921163
Cr 4.700936068478176 8.937204229297883 7.823933525831592
Cr 5.107243879349271 7.394888387069494 3.305024758029187
Cr 5.286455952369986 3.819195540449995 5.516294499758184
Cr 4.551664600855688 9.480075117590143 3.9228148957602227
Cr 4.553164110826845 2.298569995139541 7.380760500669418
Cr 3.7140829806737745 5.379396078644475 4.136412701455548
Cr 5.312356387189374 10.386935993865979 5.976541562507411
Cr 4.40688413834763 7.866226269386471 5.907181984771225
Cr 5.320971200695126 3.40261281709479 9.621539645344262
Cr 4.8308635026408275 1.3609345661531278 4.8018504292506545
Cr 4.298187459006854 6.77070611575619 8.539767106590045
Cr 3.9032790425416617 5.752134385523912 1.89848739758876
Cr 4.16491076271473 4.93075615522887 10.13080375516032
Cr 3.903243560489283 3.153021347403232 3.4499191152836093
Cr 3.0811780358869316 5.641684081470741 6.424128855905786
Cr 3.0373336201534116 4.08464455464266 8.35476111600098
Cr 2.5704131219157884 7.382710101922922 4.285646290278424
Cr 2.895782232455722 3.1675719413782097 5.591194127095929
Cr 2.517781111356871 7.655805923503852 7.0199162298456965
Cr 1.6030456943641458 4.575511220685083 4.309738502298551
Cr 1.8694325257680047 5.923174847753036 8.792056740970963
Cr 0.966062616024366 4.176929706437816 6.895527394970807
Cr 0.5855924311686241 5.9774522703576976 6.332925874237754
