51
Energy = -398.52113451 eV
Cr 4.580074736521055 4.155548601331139 1.1176615800341032
Cr 5.000929248361546 1.7539522698884646 2.1057029615564105
Cr 6.931451166463226 5.856209330213421 1.3798043077850939
Cr 6.940888612730069 3.1943885054292993 2.0118137905344624
Cr 2.605505493552042 5.945094421370544 2.250949334931045
Cr 3.1273818548035086 3.3342061936138134 3.185953856785019
Cr 9.27824676973626 4.551751596725031 2.129852397787942
Cr 5.53012516905931 7.940822465597546 2.1197893612976095
Cr 3.148135313859863 8.001309843372155 2.7528744548365043
Cr 0.6842994543703964 4.768319196829733 4.076728312848715
Cr 4.880301064170393 5.744242065182621 2.7981112324703816
Cr 8.567256725962993 6.961058224872846 2.5508208841600366
Cr 5.280676496753451 3.406351829682936 3.9541452645032424
Cr 6.70628626795476 1.1321961094551014 3.9380108687423085
Cr 3.886401447123958 0.9417984656281887 4.299706768906315
Cr 7.321787023188378 5.136742404746573 3.8080565611848622
Cr 8.333893999772169 2.9872966148360636 3.92550228912412
Cr 1.8358231410208257 6.864436774644712 4.613715788111057
Cr 3.123585389837957 5.060560415733327 4.6927560677114375
Cr 1.904123945683092 2.613839154835311 4.999872128398451
Cr 7.5386186309458605 9.42751861396362 3.1079174060785286
Cr 5.099753985988425 9.705396308270453 3.8819707491174724
Cr 9.820847427153964 5.2632902495778024 4.444428974565582
Cr 6.61573639398691 7.44681510141907 4.328098539930694
Cr 2.3654523406434316 9.261746347181617 5.285598853627488
Cr 6.33474058274773 9.28683032081208 5.603232782640301
Cr 4.320150197479161 7.567051060495603 4.625395901089705
Cr 7.714864800721523 5.564397474141312 6.005619171016897
Cr 8.84989472228281 7.613784534737886 4.915368328931099
Cr 10.001293742672372 5.734123190441536 6.270837074292723
Cr 8.09771071607498 1.1348468257749385 6.102349925554741
Cr 0.671221965678775 6.734767084244242 7.140689627015094
Cr 2.9231957774393393 6.880079804752656 6.56326634930154
Cr 4.1124128240535995 8.995122844324856 6.695543428927992
Cr 6.690753642286871 3.3288198822751704 5.715783878894411
Cr 5.389641618262238 1.1856092880643305 6.1407565386730685
Cr 9.185635092243402 3.358347357844113 6.2397941532776855
Cr 1.654164101761321 4.47451297993387 6.6077876972639125
Cr 4.0248900849389555 3.0986215761785747 5.871805943756257
Cr 2.851081840597386 1.0940140088638188 6.875287775667041
Cr 5.279918857660328 5.446100113843945 5.4802382713650415
Cr 5.803395659775104 7.0460538097769545 7.1323274709974145
Cr 1.956045572302549 8.646665520851021 8.173753505603699
Cr 7.360467098817963 1.7963358767970474 7.6485127555891
Cr 2.104490842670851 5.892618765539796 8.93938089123364
Cr 3.9778119972610515 7.063714671043111 8.789849126809598
Cr 4.851287155543302 2.4227500891502975 8.385155240454734
Cr 6.241078342469396 4.209978824786181 7.79296643695504
Cr 2.6342091294825885 3.1804134036035268 8.315573123907765
Cr 4.059858671918248 4.879871571350379 7.3783387709234995
Cr 4.735106287076461 4.842581439832737 9.763446518690703
