51
Energy = -404.41332114 eV
Cr 4.2317159935021085 4.302788412601527 0.3346435256921231
Cr 6.8082697377264685 3.550656374893158 1.469213671240253
Cr 6.332667807573274 6.215999720506145 0.9502924145751165
Cr 2.1096085389314094 2.9511760957419146 1.2206920736200495
Cr 8.59029532239756 5.406320684220082 1.6502031954130554
Cr 2.139968427478797 5.067459136403049 2.1166144459808205
Cr 1.27658058681955 7.130797029147871 3.031634083362249
Cr 4.384268572398849 2.4300027856159936 1.7820054214563723
Cr 4.845907469256872 5.005593289361329 2.348088187654779
Cr 3.6804398970325183 6.941651022596122 1.481756671417632
Cr 7.045121717954623 1.5324169086160153 3.005262993320601
Cr 5.716277455952869 8.594549993127975 1.713047606972664
Cr 8.419131128153412 3.337890908782615 3.975143028969727
Cr 3.234166093594 3.582070154154852 3.7023448637493486
Cr 3.3256931892289074 6.410048705290685 4.036377394012302
Cr 8.023966464427964 7.811169703894164 2.349824232530054
Cr 9.741213075949116 6.064295811651595 3.4781812177699596
Cr 5.827978439706924 3.198434260913263 3.7233490565867178
Cr 0.5226631579629708 3.502520526940498 3.421652207396326
Cr 1.2158400892107906 5.345128543000538 4.72741916738774
Cr 5.6081390075749 7.084869014509732 3.431830381529415
Cr 1.9825556689315416 1.5426180458098693 3.0157284891187106
Cr 7.2501672624953555 5.352987300916269 3.468529622827724
Cr 3.657194726310892 8.901493804097662 3.4786656754549767
Cr 4.388461546716693 1.1651419350749812 4.203679094318245
Cr 6.449158896491078 9.535243901784426 3.9376196197849995
Cr 2.6791895372424093 9.535243901784426 4.652952327275097
Cr 4.954575516477176 8.217051353520011 5.297927385418893
Cr 2.2140671694109124 2.07533261921601 5.603379458963415
Cr 5.046242681243794 5.286887731002903 4.994135442195456
Cr 2.8190221163252414 4.4412169863256965 6.159031620038499
Cr 0.2320972232557337 1.1196558283270817 4.722169813560566
Cr 8.38683529579418 2.9609147685068224 6.900571760358105
Cr 2.3987957322246585 7.825929946008689 5.6235912228456115
Cr 0.18701339007867343 3.5511494036715883 6.150621136894928
Cr 4.22594756391594 0.8219761998295371 6.648181378610572
Cr 6.881173704267143 4.132693662495677 5.899748425889526
Cr 8.65278990231805 5.5722992350021245 5.839930961361611
Cr 7.724596632924052 7.505318127357646 4.768163403145654
Cr 3.4738161749545777 6.6258362936958415 6.735441330750362
Cr 6.720072711467654 1.5563306071093181 5.488460429389872
Cr 6.220715163398808 6.6203976828415225 6.672148049989233
Cr 1.0331409632550654 6.040442093933248 7.067235521148646
Cr 1.5684592112055218 0.9784480624839649 7.4476864951554465
Cr 4.6938720455546905 2.9830239983904825 5.846922682707105
Cr 1.0671807195243546 3.511898304177693 7.7556998600790825
Cr 7.510779006692473 4.766610303592902 8.300881406985773
Cr 5.99503763421828 2.5345284917422064 7.980382426499156
Cr 3.0157520592396447 4.891100330142144 8.757734993623933
Cr 5.098656460315274 4.734803697548633 7.680818014172319
Cr 3.478703202390277 2.5679773163890536 8.03836820227378
