50
Energy = -397.60001181 eV
Cr 5.167566707033668 0.9547622371492867 5.440713378443098
Cr 3.1270458827765273 2.4955194004041994 4.443209005086091
Cr 7.606861822851804 2.407941050626515 4.328454066652949
Cr 7.1360176530749975 4.692705300269731 3.0665523888066106
Cr 2.9712038520382045 4.420126260132303 2.5044313755515595
Cr 5.455152053967789 1.7940518569472785 7.815665832735596
Cr 3.0882615891493472 2.7766440290860213 6.73085429940987
Cr 4.337586257652779 7.495956042094996 1.4817696789208794
Cr 5.34261345828438 5.901019823962751 4.80640190283285
Cr 6.97719760131494 7.2075924260631306 2.301548743431675
Cr 5.0764496150803025 8.058967245711768 3.7475130457841526
Cr 11.015239793560928 8.277391079676878 7.149419392950604
Cr 7.500826022292545 1.919654653814168 6.381599275346989
Cr 3.209229765137672 4.752246727447563 4.8632493995362704
Cr 9.330749818916985 3.8559273760459396 6.5773286998982625
Cr 9.616784695054863 4.343892309675268 4.161371399150916
Cr 6.950344542171244 3.736892930771437 7.9444628381646725
Cr 5.112502509424972 3.3830813893378817 6.04078444684037
Cr 2.458213683247767 5.408471836102312 7.2665699083386075
Cr 7.258789857197029 4.617123145283984 5.546575985959492
Cr 5.1619864859061275 3.1883645829956597 3.709515336779732
Cr 8.753558550733992 5.056738202660028 8.626050771190778
Cr 6.142672488000186 5.111706025708297 9.584005656452977
Cr 9.479619798159748 6.277675070655555 3.2261876790610944
Cr 3.455418052979274 5.864119010710591 9.567156238526815
Cr 4.314048273411991 3.7328429468773083 8.689852594442014
Cr 5.081483917261145 6.421293805233705 11.365768435361007
Cr 7.523813704290306 7.035668793006517 4.631190134851063
Cr 7.435262762770884 6.34585180744536 7.361987348005106
Cr 7.6649255092285165 6.892482547789617 10.068884517467136
Cr 2.888720998485728 6.9908217444219485 3.631772377862466
Cr 4.894920435727719 5.484512521402478 7.1633640978445285
Cr 9.630015927126033 7.374771069596299 8.474705322640135
Cr 5.309814595590641 7.1658011011797775 8.756059495530758
Cr 9.524467465404065 6.086531851323515 6.109010641207993
Cr 4.841065378020624 5.565947067317357 2.586801972659851
Cr 5.776757563930314 8.111301299033263 6.377293417321513
Cr 3.3386485962521277 7.931101890566672 7.809894766910839
Cr 3.2352096054960855 8.255600232965564 10.174464962993078
Cr 9.74343823778429 8.299884308566568 4.839706982756716
Cr 3.3507570412082823 7.217298381357143 5.625457050957411
Cr 8.47881899974632 8.511417506831954 6.4359044916473245
Cr 5.5426725629638645 8.64593041061834 10.676573155270354
Cr 7.286285935744353 8.720063511096665 8.542246783632296
Cr 6.118518484161254 9.600033632103356 2.138806295047845
Cr 4.320700370296131 9.447999504522596 5.354609114753173
Cr 4.752978856387722 9.75651965370692 8.264498311576768
Cr 8.615642115119263 8.440597760155505 2.583479235879274
Cr 6.823982944181324 10.228715656996172 6.533176177696364
Cr 7.173600472860692 9.31741665011903 4.318982818342353
