55
Energy = -394.15979297 eV
Cr 1.8427487808820409 4.328994835735253 6.89615224632052
Cr 6.287466596905302 9.310707449542033 7.776841849719692
Cr 12.173194477760935 10.079885704719539 5.860703683862119
Cr 4.182611302379038 7.811139614099574 9.014712777048976
Cr 4.469392701036832 10.253728798256716 4.191622216959776
Cr 2.1353616461164773 8.974130105512405 7.503058370935732
Cr 12.506342711835709 5.787728444239967 1.6305215503100663
Cr 7.223808214805652 4.9744384251052365 9.024634505656845
Cr 4.864864220363704 5.578887109211062 9.999033509002071
Cr 12.06611872829141 3.705874753320931 2.1586252184181416
Cr 3.0318746223511153 4.840070950878805 2.312342975764776
Cr 2.8613133871682135 5.193688428634103 11.353263125872258
Cr 2.111427543609767 5.9782523576085875 4.3595714879802046
Cr 12.030763309495311 2.5789942500270606 4.939360163791107
Cr 5.658008255208756 3.1447300578097783 10.1014870895994
Cr 3.9418875848276884 5.7709383777594505 5.67369362654642
Cr 9.154963549756266 6.773754936629369 8.483392837784722
Cr 2.046983388499237 7.051995162439397 6.878523214994251
Cr 3.4754713002403133 3.359411983223194 6.607089458852007
Cr 3.5681098278326298 5.412666724184298 8.246303716459625
Cr 8.248453883230157 3.564068202339751 10.192427419506844
Cr 10.755603137520767 5.761542226744301 3.3860066141441623
Cr 3.0087940379953353 3.280703941648769 9.368311204489046
Cr 3.2944209875151182 10.02676198460561 2.7972177034743058
Cr 3.4244056901949254 7.407365014715124 3.008384091658308
Cr 6.719823988792473 7.501085122605977 9.162593577097656
Cr 6.006246378309049 6.606857080694151 7.271339031850124
Cr 10.357225948975115 1.585669347443948 1.1863931374703023
Cr 10.946787744494612 3.9206068677064665 5.614600106277146
Cr 3.8781893722966845 3.712724554400249 11.728071577112171
Cr 9.772399316195349 4.195835825717282 7.958999600589847
Cr 5.451484986268102 4.185211608961413 7.775075447548265
Cr 2.213816196486749 6.954396142217345 9.398868192610093
Cr 11.602643864661452 5.747312784028401 7.648976616244276
Cr 10.33718292334057 6.278870507355943 5.988106197655309
Cr 12.648404295032252 5.295352848833037 4.2990162592976775
Cr 12.308683468145349 7.334712887328282 5.330851183600378
Cr 12.027419675035718 11.858095636121048 6.479018419747229
Cr 5.229992963449157 7.556456109391123 4.475258815420978
Cr 9.390196765225603 9.149776042214649 9.996623454124563
Cr 11.188881336618623 10.168251482833615 8.439232686140944
Cr 8.911976226270859 8.635295011456382 7.714216476187546
Cr 4.540596509512658 5.050585609589175 3.4217542829937733
Cr 10.174751777621886 3.55549065051034 3.1374290118539228
Cr 2.465509827302665 3.392380757550154 4.186878774946268
Cr 11.001463941014782 7.762051877246127 9.710260255076873
Cr 4.192504819401294 10.284807133811388 9.08007093762773
Cr 2.237519190666731 9.569935199772015 9.782041877060466
Cr 1.4871220945224721 11.39901002818553 7.977770904808986
Cr 2.6655335395912543 12.461455049055319 8.732878882362836
Cr 9.941088980029237 3.224463438062522 0.43488746531021516
Cr 4.498031560022649 8.402106944824865 6.474271041172711
Cr 2.61415153541147 8.707856507559121 4.929590589250416
Cr 11.425691855302668 8.177733508506062 7.461181079089659
Cr 3.752766670864504 10.727631233713014 6.792941097004764
