53
Energy = -424.91258994 eV
Cr 4.678271283541405 2.174920046328785 3.287381542891367
Cr 3.329445381885636 3.85981469058105 1.6898785607439584
Cr 2.246262099386233 3.622342350770335 3.5823028530217385
Cr 5.6429542840912035 4.513330070034682 2.109544523145022
Cr 6.3665133124236375 1.6817416718569553 5.572417605833055
Cr 6.5487893646553035 3.606802992996732 4.136019060160839
Cr 4.224924665811604 2.8787967531427663 5.556885627802028
Cr 8.237807944575595 4.633500179200471 3.097973805585913
Cr 8.529560921326167 3.369117249751915 5.738950216581027
Cr 7.0170257314941145 3.0799456263593146 7.916572329432065
Cr 4.173916369602685 4.890531555607548 4.0178922280692575
Cr 4.556093267005865 6.622840340381818 1.8754032507837537
Cr 2.4151734780603955 6.2077738211870805 2.571411876796965
Cr 4.796361340501886 2.257231360713988 7.721946251676125
Cr 1.7433436018169686 5.859341678578882 4.923109458722675
Cr 7.224184980999877 6.382607913449372 1.665880378310613
Cr 2.149214202609347 3.921649457449583 6.183532727139514
Cr 8.156965612486768 5.690107695456907 5.324635567866992
Cr 8.8763147213386 7.152125903944029 3.340818781598949
Cr 6.097689458572829 6.388280930137912 4.117170178755375
Cr 8.187718803329167 5.234247573528997 7.670564605616985
Cr 5.97875801902935 4.458202215148427 6.273399727456112
Cr 9.487333744706486 2.9605256028444877 8.303923615827644
Cr 3.9270401480935226 6.039548578313556 6.154212222538067
Cr 10.415047506045413 5.057534229457146 4.57434509402462
Cr 3.7226480225834475 4.376158141368896 7.902516192008487
Cr 10.37698081908264 4.937123703364976 6.808896139117601
Cr 6.499947506988648 8.268988435266865 2.4638017611843126
Cr 1.6175831017479678 8.408070690057633 4.174136660286294
Cr 1.8827770220616922 6.04064766229622 7.8958686957880095
Cr 5.347095592311164 3.8813376892053792 9.650689745540019
Cr 10.08144193109245 7.4901226927275575 5.809810328586907
Cr 3.9577291653467923 7.484254363198118 4.338611823827415
Cr 7.838160705123711 8.292031704615898 4.8888461531251
Cr 5.967818262202931 7.138525932232118 6.321145198367816
Cr 3.8350174657189684 8.865617257138574 2.4610706789711574
Cr 7.629573122406716 4.26896213466777 10.135442961269632
Cr 9.800226227505503 5.000138786679091 9.593800026445608
Cr 3.864634088393417 5.814296570279475 10.045849995677894
Cr 5.986729919091348 5.6421287027869305 8.416023079789252
Cr 8.036495424052678 7.5073029900786095 7.4577558349257735
Cr 2.211497073503976 7.995235441160651 6.392542504187279
Cr 10.26062522292232 7.062390584788841 8.403253669775031
Cr 3.349575914130144 10.04675888782342 4.636711824149884
Cr 5.632734099274842 9.092843495837702 4.6046181727174025
Cr 9.59570700836304 9.39242030975507 6.643944992776223
Cr 6.715025530021237 9.5939968940899 6.643434704094935
Cr 3.9760028390166346 7.246665319246674 8.337610801142166
Cr 6.135548713483371 6.454759302917015 10.846978970602992
Cr 7.991349801476675 6.866008810405571 9.807305343182962
Cr 4.215346559815169 8.841766151351576 6.659934850502184
Cr 5.979722918465423 8.176017843437915 8.756335849766323
Cr 8.468718708687428 9.426144847132177 8.826054017489724
