5
Energy = -33.63654584 eV
Cr 6.870626309038767 7.4336414118080665 5.246411317835808
Cr 5.286060944492659 6.167881732700846 6.440477703532658
Cr 7.200368291053687 5.816913404786307 7.768873970155681
Cr 5.05281563638376 7.993096449172144 7.638769332834213
Cr 7.948443925814555 5.3766247771914655 5.58796705581138
