53
Energy = -420.0941382 eV
Cr 7.079506483204336 1.8128278056755522 7.3103054081993974
Cr 5.552008722662162 2.155523462027633 5.180416219281194
Cr 5.003921986132066 1.991566558257833 8.729518666779564
Cr 7.275484354921875 3.6759384961070696 5.150835737959089
Cr 8.747287447348265 3.24425428131038 6.92118914925469
Cr 7.439375912921019 3.138614251046417 9.335757586653227
Cr 9.017295013513367 4.6724520642275165 8.632728904677005
Cr 6.004050924912088 3.8150982662268236 7.244298416075579
Cr 10.003485753549574 5.350275240535954 6.2766068660911
Cr 7.972678932009565 3.7359279801626273 2.96768197178184
Cr 9.883276461448219 4.276942241852452 4.746904690987405
Cr 4.4708696500177965 4.182315887013254 5.239435301288296
Cr 3.3951109336904537 3.5050227453748506 7.214298702931988
Cr 11.03280318657842 6.131779163806891 8.697867482492562
Cr 8.227949029991603 6.006480061923991 2.372332589252741
Cr 8.269344436882443 5.938108720316042 4.4549603447150465
Cr 9.394646432999242 7.769239250074125 5.785783808219887
Cr 4.834084973470788 3.5933395382312776 9.494278191559511
Cr 11.417436839168808 7.265171585505847 7.345183958941952
Cr 7.461379194222189 5.5400774332452976 6.9411105589094415
Cr 6.692488286758868 5.505771899475498 9.146621913652892
Cr 5.954719445558908 4.809754689752888 3.1380818265302333
Cr 8.76263441860279 6.225583671443669 10.394262109487451
Cr 8.795621805723247 7.220062987958111 7.8659595181643365
Cr 3.8621104931742907 5.9162697824332 3.68137859967321
Cr 2.3358898717837766 5.568967873235506 5.993605071970333
Cr 4.584114332525282 6.078302264997615 10.133626099934274
Cr 5.752818366013823 6.029296962311128 5.476345958870965
Cr 10.228755198540494 8.514193463112212 9.435900205871988
Cr 6.320739742867641 7.038069072163654 3.2284796599779306
Cr 7.184316445285326 7.88365194655748 5.670539083996065
Cr 4.440657063843991 5.573271767905045 7.648737070969766
Cr 5.7075395672128115 7.405133491210359 10.611989564232601
Cr 7.86627171474588 8.24675679983495 9.74468121776256
Cr 10.141146358386381 9.490779201489211 7.465402146269732
Cr 6.02847330329527 7.514559992466998 7.947550290462042
Cr 8.612292787363836 8.422108881471237 3.444372125126548
Cr 2.008455566068471 7.019013782208768 4.976765765215793
Cr 7.750682075265366 9.642888795199644 7.515659223802385
Cr 3.4684617368258275 7.906662963664801 8.733983853506157
Cr 4.647395506410646 8.206870283248152 4.510856894128165
Cr 4.012247975512739 7.532442211277164 6.245221766058283
Cr 8.521333077454086 10.104549713015002 5.3084427065959945
Cr 5.603213074933891 9.576524067072723 6.383495872364583
Cr 9.06235134809982 10.713328670080845 9.551433737662107
Cr 5.532875419801569 9.471630006469779 9.074255539268915
Cr 6.525090671697443 9.468291575115003 3.818462621367096
Cr 3.3653105117595534 9.395783468546009 7.727544341946746
Cr 6.869247234062303 11.437924809022897 5.5500556542456945
Cr 7.2990206187079165 10.804769689363736 9.927827323871762
Cr 9.195481322310002 11.837824027909983 7.043073438287147
Cr 5.345919755685057 11.281535754085846 7.87338501592922
Cr 7.683583686002917 12.392645298443515 7.851167245006932
