51
Energy = -406.94075862 eV
Cr 4.101813863348008 5.3806514766041 10.347637596330014
Cr 8.318021443832707 3.5493220809964647 2.3371450573443338
Cr 5.117864677358632 8.601921582305334 5.979590224283452
Cr 5.197683174842006 2.270747119309598 6.188921168375689
Cr 8.664232698433171 2.9629141362500353 7.359422335927678
Cr 8.147122518811427 7.179200918132749 8.283973133489594
Cr 2.5220935774465274 8.764853450856204 6.391468900220148
Cr 9.324211425344 9.371216514475952 7.110294539002386
Cr 3.434793702234149 2.3522546394643298 7.5216880711981
Cr 4.628983837928683 8.71018186813767 2.3142688255409327
Cr 2.4941935197827516 5.092379148029568 3.9854199819896454
Cr 4.676263078749843 4.6538313831630544 4.917328566393565
Cr 5.765596184136982 4.427548093995168 2.6957535846428233
Cr 3.7698047952040863 6.2592799397304635 2.7137548361034156
Cr 4.633554309253335 4.422548255448018 7.842521251876129
Cr 6.691561390851557 4.071438826760284 6.309063208509475
Cr 4.3483798459033345 2.595817335860945 9.678502762383399
Cr 6.162071451220061 2.4210939189449907 8.288816982555812
Cr 6.774293902955572 2.8316045211866685 4.136659126111287
Cr 3.6289043203929587 6.4771102436876555 6.145264047430635
Cr 8.673742061191264 5.508958686018567 6.561898326186457
Cr 6.027248626820341 6.325750428026 6.624413775592164
Cr 4.421473035562776 8.14415643117158 8.151403304047735
Cr 6.189691224643881 6.917158086105922 1.8448103767331554
Cr 1.0698765906028689 6.618933516345155 5.384380015271831
Cr 7.725177868762383 1.738227881602974 6.171963934070126
Cr 5.841528683767296 4.106776946277323 10.29390855354392
Cr 2.334768622268177 4.576684129897955 6.4666928481712835
Cr 9.928592746105982 6.3791843665180155 4.685005124708783
Cr 2.7488966314682948 2.8325544016273665 5.090135635529998
Cr 3.6100857206946557 3.5955000284823058 2.5569912052916366
Cr 7.330884932104726 5.418412802190681 4.273686093909956
Cr 4.072113922209311 9.957880858889876 4.376614182012707
Cr 5.500288047275831 6.848086965721835 4.167959741798979
Cr 1.0868738834006997 6.753862768688901 7.323777326806054
Cr 7.718226456531119 7.58049441601783 5.638395237638156
Cr 9.98787765597778 5.43254825656833 2.9737827215518937
Cr 3.140813915080932 6.193303144379161 8.49559775059675
Cr 5.737374732853135 6.499392919338211 9.110829946507446
Cr 6.9061031269473565 8.61301122952763 7.847443402930102
Cr 10.256498117237621 7.767492485862391 6.571290712358159
Cr 9.20298033829476 8.961095943161329 4.382361318397193
Cr 7.247242632353636 4.765525744335031 8.5910826749006
Cr 3.00552686199052 7.875310123623384 4.322608336966384
Cr 8.038881717194696 7.341002864908329 3.029182915769969
Cr 8.970916305152592 3.809921459492191 4.874680392142214
Cr 6.494173904195616 8.999530910273748 3.74190001079956
Cr 7.395733136831172 10.202147489786475 5.642628785081565
Cr 7.8619665966021435 5.176214547263508 1.3826547868372263
Cr 4.561099663758608 2.134605883146733 3.767292108133289
Cr 2.0829891139297536 4.101449421250875 8.678224845844344
