51
Energy = -407.02680389 eV
Cr 3.5584610404774875 5.294646655908646 0.40809366544532905
Cr 6.225253346253775 5.283029199273557 0.7770744991427236
Cr 4.559912958204041 2.7931812395142073 1.477752065618857
Cr 2.95311007134847 6.842648638870061 1.9788442668472006
Cr 8.751019998690401 6.017376034541484 2.594911138287822
Cr 7.029507468495605 3.9542423116159235 1.7382199261316575
Cr 5.234811010620277 7.33104990332293 1.7147996905847027
Cr 6.919402932966659 1.4515064859841105 2.5797912773156937
Cr 2.2358803666133147 4.24939753684369 1.9117041356816031
Cr 7.738085796611614 7.275573908885792 1.8061118770896403
Cr 2.6190309163960093 5.305444811331877 4.171514369556053
Cr 4.587028502934249 4.940768066850033 2.6663570015877633
Cr 4.2310692376656895 1.1854687947489508 2.2318286035706314
Cr 4.094264234557508 9.14236659125316 2.817003363968856
Cr 6.504575243772663 5.819407918070516 3.59427414889856
Cr 5.843530167587054 3.1207426546924686 3.7945901679927396
Cr 1.9859317806371997 7.829315552692039 4.416956262439504
Cr 1.5540180250687012 1.8564740133851596 2.7041515216393113
Cr 8.041501977019363 8.033554879044686 4.389263243535604
Cr 4.281524219354154 7.209427843566456 4.103640593483501
Cr 0.7681788990067561 3.725310697001227 4.322998664067819
Cr 3.3069986619102067 2.711169143528508 4.050758551098677
Cr 0.792302958245079 6.271730995945092 3.2181807729259457
Cr 5.320379659765991 0.7330691506113471 4.514467563489334
Cr 6.431359319607681 8.586722991701194 3.8326527939807065
Cr 8.277127841830929 3.71478340380388 3.8260636213882067
Cr 4.962046638760926 2.692751080281432 6.130830730742084
Cr 1.2184258808547788 1.8728455776241963 5.451345929521121
Cr 7.270948759500702 1.7587625014064407 5.526011487060191
Cr 3.1095747708836443 0.08256363177933229 4.357448037009508
Cr 6.928437336499096 9.056895538265195 6.678850025162251
Cr 6.0086070284503394 6.81443236227403 6.034121714705713
Cr 8.57167976594716 5.938836745780134 5.4137198466784495
Cr 2.6419117841579336 3.9142985683409024 6.385055968185198
Cr 0.2293171444650078 3.6268571437045836 7.201838216379593
Cr 3.078923505523062 1.1725833927172078 6.417715523020472
Cr 4.477289886273227 8.637138667072882 5.720375040880439
Cr 4.6221606634112655 4.868581506913457 5.093971781920723
Cr 0.8614765828470377 5.847330194574012 5.951597353515004
Cr 6.698747649199233 4.33206287544669 5.757954300051149
Cr 8.627776827645354 3.7579826125515847 6.626587784942738
Cr 8.235475484071838 7.887781308421212 7.07946063873371
Cr 5.252411260890298 0.4171445863019267 6.947123399028201
Cr 1.1888894251128723 2.3988678155772316 8.033160898038217
Cr 4.82470110111747 7.201184668664659 8.062309162375907
Cr 7.239076846991656 5.642636022792868 7.957535239159063
Cr 2.553409378379419 5.271470329692911 8.279019241993696
Cr 3.779894061789886 2.737338175535731 8.206965609545813
Cr 3.243343415617577 6.554836751102007 6.394866301537454
Cr 4.907642401521012 4.857950589382108 7.6129109534211095
Cr 6.5793922175417014 2.9342843839038357 7.993047483717311
