50
Energy = -391.44832818 eV
Cr 4.588276398292381 4.378321722952768 10.1136415401434
Cr 4.553166958727981 6.78196741358838 0.1386442198222415
Cr 8.25104056130191 1.9885879609613333 0.5989513335847707
Cr 7.029113496306261 4.128470897583321 0.8064467479625237
Cr 5.411476576444169 2.277666218063579 0.21968985943024452
Cr 0.8156348697367695 3.9171500999057702 2.024397254708187
Cr 2.3798235978707045 4.8743801236632525 0.6070576984691388
Cr 4.815179347091576 8.211083738597104 2.776114387059273
Cr 8.584616037232198 1.0303189517428166 3.2277730206279482
Cr 3.5280210538685264 2.724037624472377 1.6139518385086387
Cr 0.8661852538264242 6.255652651803346 2.6091060093873537
Cr 6.16706505931663 6.661953569056543 1.9428128089953036
Cr 4.918245172946358 4.6965839282982635 1.7844366982659619
Cr 8.713663557684132 5.449991521754455 2.2242432698258954
Cr 6.682567408805558 0.44573722785989045 1.766200804492915
Cr 8.935754940669169 3.3770688098022976 2.7275915074073898
Cr 3.185994747223504 6.628616446027254 1.9712277193691656
Cr 6.548555499952419 2.597153070719731 2.487472643086109
Cr 0.1565177414493421 4.133758253537573 4.263383838429851
Cr 2.154329179907965 2.3547103923319708 4.036125334538358
Cr 2.728036605722414 4.446256996495463 3.2668720673027014
Cr 4.158216270594933 0.9453986084392301 2.697262486496315
Cr 6.815969529869539 4.714230296903685 3.41566428282084
Cr 2.774377801794534 7.400598784387456 4.448626253900078
Cr 4.540887978045179 5.800742206656562 4.08839672790167
Cr 4.813860041694239 2.9858351608255713 4.0527033912132575
Cr 6.206897649352137 0.8536575868449637 4.603815267493323
Cr 4.947912361087434 8.295400044387238 5.04208115289792
Cr 10.585185314558274 6.743429653967732 5.058487305002676
Cr 7.412840127036549 2.58170205912233 4.886549689825467
Cr 6.634515466998276 6.86296727847167 4.329238424429551
Cr 1.9147469973676112 5.328137833576221 5.2843403801375395
Cr 3.6372414739466166 1.3320587715329784 5.488350105676535
Cr 8.517382414050388 4.7659960056540385 5.147526942634164
Cr 5.945331575956653 4.6266833206091516 5.622661652236286
Cr 3.597371978483599 3.827057639355729 5.876350321808768
Cr 1.4316583196274741 2.8292184238907834 6.218100312492084
Cr 4.147553479105419 6.341548837807672 6.509164789062585
Cr 5.425324818359575 2.2522384888671425 6.700411492448324
Cr 10.667525886333806 5.0200567567778815 6.9855346999696435
Cr 1.7920958077927267 7.106508032012862 7.031288167424481
Cr 7.3463898475099025 4.142275478273025 7.42062539207907
Cr 2.5492515148493307 4.823597851204923 7.882142094658804
Cr 6.249642006925882 6.599128124061628 6.98038567322065
Cr 3.3714047387517145 2.321701944762933 7.9820629677813475
Cr 5.077130192133732 4.3466374483975185 7.966133622521361
Cr 1.0083667383068646 3.1912907749001165 8.826069925478738
Cr 3.8318834508234865 6.317240594342522 8.666122703695397
Cr 1.0891560521530632 5.693449154045397 9.561434972784198
Cr 3.258218650425084 4.012769351697798 10.1136415401434
