52
Energy = -414.62254649 eV
Cr 4.471194140735828 9.126361593846099 3.2340255465728607
Cr 6.601808371545334 8.16679319084454 2.2610172673474875
Cr 8.745301762066239 6.899678357688326 1.4903601027131537
Cr 4.191472329679596 6.907317161155963 2.3108500798420337
Cr 3.2818096442668088 6.675628649572618 4.383428352771493
Cr 6.4569994659445555 5.786759019789535 2.1400086443117092
Cr 8.563811622541474 8.540730005615002 3.591085781267835
Cr 1.7167409422225515 7.96117545271699 6.442024710304029
Cr 3.893348791616965 8.565658376610623 5.422488735206958
Cr 10.16605668735394 6.3519801534584035 2.77604748225994
Cr 5.3627325979584315 5.07184578579444 3.9491480160074124
Cr 5.936247581940849 7.323142014300641 4.475277107441773
Cr 6.496251880646614 9.593058518995365 4.702950678228429
Cr 7.892009859088647 6.263411458103451 3.966869113509232
Cr 8.613546249120688 4.215857007705281 2.3196392394915843
Cr 4.797219488508954 5.949175148272323 6.247316570101592
Cr 3.650030262643552 9.56162531021457 8.001487658796737
Cr 3.270947964123502 4.08524193884314 4.931210932183762
Cr 1.8338153202124259 5.924898578306804 6.541699751852779
Cr 10.15595895117339 7.319725670943545 5.06773922917358
Cr 7.35034727541341 3.622796392952676 3.703142597899598
Cr 4.859489730095409 10.57499966326076 6.2486959833379565
Cr 9.158000074583056 9.757516048548826 5.564768251938609
Cr 1.9148419110744108 3.343910696440921 6.1835537566331435
Cr 5.635724535873671 3.373678466988161 5.647106879001401
Cr 7.933325158829588 7.948258104297472 6.140026734201448
Cr 3.608347275425932 4.57209891575844 7.563605785190015
Cr 9.65265325394869 4.721564312481053 4.755136017658353
Cr 7.259247420751888 5.202380999073813 5.974681198800587
Cr 5.75554480853234 8.370073760313646 6.980118535474313
Cr 4.232542953266063 2.276526826834332 7.053496946880217
Cr 3.887743785364556 7.160913226901907 7.748909932997903
Cr 9.28491595387986 10.291362237335685 7.868829150842662
Cr 8.867793598264484 3.319122251402082 5.990781238557682
Cr 5.828345403465185 4.237104699060556 8.019628641095734
Cr 5.913882103207928 10.06812242403106 8.873509489187196
Cr 10.1120495579372 8.06723741966335 7.615069719070493
Cr 4.0876397641538995 5.711853923848567 9.795199787602956
Cr 7.086178107222951 2.33952495583799 7.223432450049901
Cr 9.17627520328862 5.881410245229882 6.93332562515966
Cr 7.134175600365504 10.590336424727685 7.000818502310832
Cr 6.715154424064074 6.435130640418891 8.126420606337334
Cr 4.439215186218705 3.7363521601414678 9.983374852495896
Cr 8.151760851255304 4.181598485388426 8.363990174361447
Cr 5.635233895035825 1.6248302566732233 9.001091121294332
Cr 5.34667690130594 7.866172878778689 9.542535375680245
Cr 6.608555408295882 5.352443091000563 10.192597007051289
Cr 7.731416877270935 8.61332463663956 8.631714678218305
Cr 6.976495243894494 2.816783576360455 9.949798842165977
Cr 8.775262425883206 6.486307614986169 9.217390357954224
Cr 7.350198488660048 7.637512511044997 10.543716234060991
Cr 8.54933513498958 4.752137268964478 10.6298969206541
