50
Energy = -398.2156219 eV
Cr 6.7567378847741715 7.666227529908067 2.581557435495749
Cr 7.404699430560619 5.579401837725935 0.9078592960197703
Cr 7.862936381285309 8.587520019018902 4.325888108686335
Cr 8.700748189743727 6.3208257745800145 2.825983940918638
Cr 9.750810203397362 7.0908627835167675 4.89993821333366
Cr 5.275304241920708 6.055667441612437 0.5874091969258899
Cr 6.170114539090302 3.24142544239627 1.6208480753121868
Cr 5.863091182798573 5.499388038657537 3.099417517909345
Cr 7.731934686346239 4.138941472336416 3.2759095564901233
Cr 5.292315323919295 9.527776001216358 2.9384566494163806
Cr 8.884134489412734 2.4387021725582496 4.603890436444498
Cr 8.707497838810825 7.9617549564104015 6.790314370487108
Cr 9.331775073808704 4.749644386059947 5.057775474761959
Cr 8.537050358372579 5.8166594621710646 7.015554422822626
Cr 3.820445457704284 4.343112892140599 1.800981459272128
Cr 2.382737138233857 5.8924461991814185 1.2863791274117873
Cr 4.170235992541611 7.113173621015944 2.5125558195485684
Cr 6.66894716653474 3.89020872311945 5.520251979934054
Cr 7.220558362902453 6.359091464615375 4.998218686707623
Cr 5.003604352909463 3.376802001392286 3.8665134621539092
Cr 7.1097929800168265 1.8513591268783962 3.9310110379653036
Cr 5.2877914722074815 8.398512556407736 4.894942347627177
Cr 4.765430403683211 6.104722132150054 5.192296623441198
Cr 7.483897665679752 1.6876639171270407 6.596330243773938
Cr 6.55139276803754 9.96328680513529 6.073644980551633
Cr 6.463629747178111 7.505848324330137 6.9082714760595065
Cr 2.79704578419933 3.1007989124887563 4.333832627187709
Cr 8.406262954160884 3.3512003102085313 7.145747825471399
Cr 2.8373827943449994 7.830947122267109 3.829217554549451
Cr 4.942304126938607 1.8553689053177929 5.508763425110343
Cr 6.23883397610209 5.126419333122562 7.52464449537144
Cr 4.667583751917151 9.228470669887699 7.446113461803209
Cr 2.924785200390668 5.235360768638822 4.01032788213971
Cr 6.858663681416104 9.189073587598473 8.67000974423848
Cr 3.9080417740221 4.176575680149175 6.1948645768509945
Cr 3.169980149881071 8.608859291201586 6.173930683002566
Cr 7.733927784893557 6.820568815731949 9.10153527819517
Cr 2.158154986629691 6.2382210755186325 6.006746124516862
Cr 8.173487564482679 4.870480032164276 9.308751404637498
Cr 4.1504781424107335 6.5318723783161845 7.417612644776178
Cr 6.705013982922777 3.02983250931329 9.184438016666414
Cr 1.4277387797018757 4.379208067189838 6.07329483557892
Cr 2.945735745750901 2.5644202234056617 7.456626082253573
Cr 5.4757196655068165 2.4829089480603455 7.511242193599518
Cr 5.438460209904258 7.597977483698373 9.124532475667664
Cr 2.5470586517733174 7.941346577130048 8.70113699335018
Cr 5.744792392564232 5.376078931830478 10.154461731098527
Cr 2.3124693712074227 5.217980988988653 8.37714054593913
Cr 4.168411627433468 4.178143387144104 8.828149376158391
Cr 3.4916777440429025 6.328485093431774 10.226304256833377
