55
Energy = -439.40097436 eV
Cr 4.899681391281318 4.896716883680777 2.9776107452378886
Cr 8.601862556860048 3.2923744834204123 6.245711687820257
Cr 6.705302636163605 3.767288933418254 6.5288407450382575
Cr 6.211708367284274 6.499945112421127 4.674911460721761
Cr 4.713839130228829 8.827472341215161 4.228536147635084
Cr 6.340695255689425 8.625059756020296 3.0167875233511454
Cr 4.56361076056477 6.842404252259722 2.6401915213272455
Cr 4.010279583936669 7.350414264843757 7.979923456388379
Cr 8.751518873337723 6.276129852822032 8.74728687099471
Cr 7.54535663485781 8.571664649344422 5.398451165017732
Cr 9.78181322236884 7.67241674358084 6.959045690085553
Cr 7.8191275079136515 4.4581096318363045 8.48388593848368
Cr 3.9138989360527265 6.50983949293221 5.196068929601269
Cr 4.941294892002899 5.173254814196501 11.481743592958429
Cr 3.8694287736465185 4.877804494991469 9.154195958876931
Cr 12.055821564607584 7.456441752325258 6.164932193600984
Cr 9.123198382148063 9.83283774199146 7.17130529595615
Cr 10.502270507285303 6.427874312630033 4.662111137390897
Cr 5.592110837212214 8.284159409036802 6.378785125383314
Cr 3.1654331926265247 9.747416831855707 7.883265783961487
Cr 4.525455212449048 4.216692006130998 5.225101146635263
Cr 7.714785661745818 10.352691156223534 9.338786518889345
Cr 7.212477233561949 6.1649424010949545 2.3788161715468306
Cr 11.31552994237797 6.128847349295908 8.675520569028606
Cr 9.985570604641003 8.722731978089584 4.812079601104921
Cr 11.356076619029599 9.782347995816686 6.264012739399338
Cr 6.139817811536015 10.576017558490355 4.845645516918569
Cr 7.31952139442663 8.017229562023852 7.960797020284076
Cr 6.000295784259564 6.654662448781091 9.432128085193003
Cr 10.801703441085913 6.957041625170918 10.402991997780369
Cr 10.126862360303143 3.8490089741395073 8.431037239882645
Cr 2.7873489297292062 5.545100734352967 7.008377780659327
Cr 5.693720935547427 6.918567359290466 12.041233256891235
Cr 4.211234951237889 8.607200846195601 10.401231751859827
Cr 5.6235808316731974 5.824869136552261 7.259076036331955
Cr 8.958913288363613 4.671173350752935 3.97474018732604
Cr 2.840438834668995 8.238949610035698 5.956494620958524
Cr 8.492521355936004 7.285399213964562 3.4328217153708405
Cr 11.377223491566422 8.888013501104927 8.500697016014184
Cr 4.176182097380857 3.2865376993422633 7.012565841540231
Cr 9.683675671979826 4.599534865823721 10.500712892543817
Cr 5.6232213149174655 3.8716778932738234 9.072261149189496
Cr 7.32336601886791 5.059384021929709 10.773062996368761
Cr 8.780051708248573 10.984724530581754 5.120124533175871
Cr 6.8398131774972315 10.58602205667964 6.952891297126435
Cr 4.304063222318965 10.648226129511094 6.510931257113503
Cr 8.23313073573799 7.085892903287378 10.998694201803211
Cr 5.44391984424652 9.36997260990479 8.602325426318126
Cr 8.23543305544873 10.129234933276877 3.410045232917279
Cr 6.6865194813604125 8.72958469202361 10.525115687983714
Cr 7.02173988324995 4.134376238691969 4.181701277103799
Cr 10.093491526380909 5.25013937766056 6.578971796503226
Cr 7.870804657481182 6.050671079459666 6.1016013522970285
Cr 9.148581595410889 8.84797854342598 9.3542878994441
Cr 3.2101995273346358 6.840455070868568 10.255052424736288
