51
Energy = -400.66839792 eV
Cr 8.20937947604018 6.353291554684174 9.978285063676436
Cr 5.415976900743075 2.467771768565083 9.843007224719626
Cr 7.155673886596603 4.082577189964831 9.861833368277406
Cr 3.8645999299209177 4.692873404272681 9.380854426695546
Cr 7.126181307360213 8.747057576322103 9.511485596229656
Cr 3.529662549563046 2.130839194910478 8.466826218730032
Cr 9.378585113170068 4.915999788032696 8.449249768397381
Cr 5.736959890643755 6.345588889981895 9.371096238019062
Cr 7.780121739409743 2.972497649817697 8.019703078192583
Cr 8.514653507903178 7.2627899953072586 7.711314117451218
Cr 6.434730589784091 10.312627101865681 8.778681894834227
Cr 2.826809343570552 7.044082525457234 8.458535618975752
Cr 4.587693174753572 8.372766389593108 9.013079798784187
Cr 5.487303657274855 3.8290163342855674 7.738706976236976
Cr 5.793502997716936 1.1140903626102512 7.663772746253402
Cr 2.932151026390917 4.5121362452158005 7.054952022165499
Cr 7.084267868014374 5.553969487019347 7.710835428396669
Cr 10.354955906303948 6.2613580968269495 6.037749543378828
Cr 6.291371634298844 8.098568793692777 7.24197897014996
Cr 8.309062548954204 4.466452374072067 5.951143462739905
Cr 4.705964986387692 0.4629920279080326 6.334950566336566
Cr 4.558655676253639 6.300678986456697 7.246890299748749
Cr 8.228330602529395 9.803632759437061 7.03759916434309
Cr 6.61897588890757 2.355418324053207 5.623995224186144
Cr 3.662658224384246 8.524287043322037 6.393804500916979
Cr 4.174603050728908 2.7641393372257537 6.1068418396233515
Cr 9.354356532737969 4.999971655861705 3.903087647202842
Cr 10.203575521843494 8.102049919640164 6.062544106212883
Cr 7.91479954540219 6.701226764333095 5.510622650886679
Cr 4.218476281479188 10.26611142312258 7.6767919409331284
Cr 1.8928489272296483 6.517437619824134 6.368262868978354
Cr 2.4422780926365113 4.2569526335249765 4.765409733705542
Cr 5.812330290704791 7.6351087298444575 5.073691376109344
Cr 5.798769101054244 10.18394940560879 5.8835626427437875
Cr 7.140603461703971 5.478912078329626 3.5440301531268035
Cr 5.793193397765064 4.939004985771015 5.437471948240718
Cr 1.954723719249647 8.276258063916 4.770611533350419
Cr 7.334802504046894 2.9875371965688626 4.029460629122929
Cr 8.030605608997588 9.20120422337482 4.812490490237472
Cr 8.704051278068937 6.316721748080393 1.4442291408764922
Cr 9.287891388526704 7.331633142522447 3.701827931552503
Cr 3.6456232168370297 6.132065877236797 5.018401067092236
Cr 3.655117878161388 10.521439512301448 4.962744301869258
Cr 4.846318914079749 6.313602907130994 2.6424470898282455
Cr 4.181960490559269 8.451939654630323 3.686944116475204
Cr 6.884828253937884 7.725215125413762 2.895181799749475
Cr 4.797631607945749 3.7503542824519194 4.014856368941784
Cr 6.189456136086304 9.88344406490958 3.564023266812357
Cr 6.953355468008144 6.189830746293574 0.8811430381460513
Cr 6.022425589436752 4.090012239709379 1.8390542315852134
Cr 8.268213291490978 3.822889227766045 1.7845242524139442
