54
Energy = -433.32344036 eV
Cr 10.490565504910547 6.701082694877001 8.717203618671746
Cr 11.488892898062135 6.194402059360068 6.48543845742671
Cr 9.774765564777411 4.424822021034932 7.080968275393416
Cr 10.236896280297206 8.771453164301047 7.763998047111836
Cr 8.918768683426396 4.828270354238812 9.031363085133508
Cr 8.254709292676662 7.489019918906787 9.410168357747017
Cr 10.167591585206027 3.4647743550234917 4.941387227108838
Cr 7.877242659886025 2.857300069120896 7.128878614507342
Cr 10.00504768189238 5.890106211716514 4.7404250475796115
Cr 8.968791407613395 6.774848575511799 7.005440500227601
Cr 9.759089209401917 8.092809409370727 4.896653449520611
Cr 7.967652618971265 9.730859525034683 8.47917321213573
Cr 7.093985967723787 3.0894780824886396 9.323249174217322
Cr 7.9386810911421515 4.755424518151247 5.380539738909755
Cr 7.1763546278863055 5.230774628710622 7.5998149348959965
Cr 6.361035551059074 5.451720293697156 9.918352045339036
Cr 7.917177722380727 9.163954706919919 6.441537509184818
Cr 8.820606054428723 4.024411115213016 3.012227648604763
Cr 6.571487099512168 7.604070053442206 7.82736755656957
Cr 8.361303094159984 6.435108926249355 3.073247290380268
Cr 5.831130163636996 1.634972911957611 6.7962850878921595
Cr 5.224247567133346 8.04658915601122 9.694478611627249
Cr 7.493228190592471 6.967219213636301 5.271108086218152
Cr 7.519702101441156 2.458159802400665 4.306490336007652
Cr 5.537527475755828 9.84155780962703 7.59862077460924
Cr 5.400529170344636 6.008909433193693 6.196083675532039
Cr 5.3801611569887084 3.675150944500696 8.061623693616571
Cr 5.695347548324847 3.555074120243756 5.614120014885867
Cr 5.606110991241032 8.680411105889416 5.602033991104698
Cr 6.460849853845491 4.852888285183565 3.5683941102289642
Cr 3.887915865109835 8.05763715051643 7.472242158574366
Cr 3.510997619738684 2.1502256776820294 6.835748045889795
Cr 4.604130690952964 5.922092625792943 8.560718218710536
Cr 3.5071523203962736 4.504377580334025 6.535598310842742
Cr 6.695883018029855 6.45084002767509 1.5161406277668137
Cr 2.972307563555713 4.185273534686119 8.940926441276702
Cr 7.011571871536726 8.951895544711588 3.6307834697186014
Cr 5.039515334958056 2.9210299000443065 3.072331770633581
Cr 5.489429077771544 6.850605601464848 3.741715636610791
Cr 3.9272141319247664 4.931135946949914 4.134901127003463
Cr 3.9143423925373715 2.0481731251606883 4.4710856171015845
Cr 3.5419498975093946 7.187486215955447 5.334994543237362
Cr 3.3451085169886667 9.73267839861997 6.018167807534039
Cr 4.841090257780956 5.243247115156546 1.7751687588965048
Cr 1.3327781515752894 8.29645971496787 6.378722713607122
Cr 1.0859007950162136 3.935936852892129 6.809409280405267
Cr 1.74021016188376 3.1968687683586667 5.081762543284592
Cr 2.1497030831521045 6.302056069561121 7.483072251048585
Cr 4.785907301275865 8.234302323748594 1.9593584869376237
Cr 4.154120078625127 9.10291280911418 3.6335995149939735
Cr 1.5725304842492738 5.89778577474965 4.988158810243917
Cr 2.3404635460307532 4.072564524193357 2.8917653753940913
Cr 1.5384881074708199 8.377085003804579 4.433182056082024
Cr 2.898369919061411 6.778636937567931 2.8867768700725738
