55
Energy = -440.68464664 eV
Cr 2.774452761960408 6.796993135645744 5.283983874059286
Cr 10.912364610591382 8.276145783191957 6.828390033749514
Cr 8.410633761379902 4.382679258735724 8.56919877953042
Cr 4.877872202190215 2.6914265794308836 6.215577458031017
Cr 8.771268105948264 8.459947401733915 8.48111914570833
Cr 6.199475500923679 4.5793509523287765 10.167812300486158
Cr 7.403349336289805 6.425097976398474 4.311185602432099
Cr 6.439877898890422 8.566258029063787 10.125380668995177
Cr 8.377862041340823 4.373810465301367 6.03701403161584
Cr 5.028184478490435 6.64285788432759 6.050593961006236
Cr 5.069875829690784 6.572627312086359 3.5927498022598177
Cr 6.101537681409846 4.500137793131218 7.758056034681157
Cr 2.975945404783632 6.86084369499287 10.087453565017952
Cr 2.8861285185150516 6.822296306168503 7.723581558749722
Cr 3.837388253038906 4.767223094574862 9.36119655853844
Cr 7.625781399411514 10.378920240359381 4.355936239949185
Cr 5.3845957878374495 10.470085243552724 3.647701001863445
Cr 10.829811815140882 8.199403210936143 4.335401740142321
Cr 5.417943746387774 10.572858336934605 6.039052752604085
Cr 7.048611541155476 2.537788809019455 6.861549159727676
Cr 8.737409049767232 8.398112004847391 5.956663017307841
Cr 7.081317008334967 2.639304770183401 9.299387572927879
Cr 4.910724232753257 2.646823690362326 8.587690063780927
Cr 6.367150631726345 8.653044650274527 7.686399686445367
Cr 9.740634892453599 6.34595556848552 7.652793897144095
Cr 9.698087426733483 6.3223905446673365 5.131934936750992
Cr 4.189361321345586 8.747311816367986 9.283921138292664
Cr 7.453193887954899 6.489656177761548 9.374163887423762
Cr 7.441794677119841 6.4453186540048355 6.8515148490261515
Cr 8.35467544885859 4.557636587364134 10.89990297481669
Cr 5.172483322431672 6.702883355266493 10.908463037924452
Cr 5.052458931621039 6.6862646527456855 8.574987406725167
Cr 10.98714748211162 8.431139764481363 9.300032517601254
Cr 10.015658307622656 10.241315480929536 7.570736916613486
Cr 9.993764574571593 10.27086683164399 5.05293184021916
Cr 8.779705160435098 8.401805591075567 10.84054993436994
Cr 7.746504076094006 10.431647929099736 9.195747264161978
Cr 7.707130571709643 10.466085847448285 6.750798773517463
Cr 6.33050646536621 8.471610035447265 2.7493956375987425
Cr 6.016036123962952 4.445500688381614 5.183514809791053
Cr 5.498784469214997 10.598380512892252 8.44788095141689
Cr 6.135117614375558 4.5662161970984005 2.8533235231719005
Cr 3.811462771455088 4.699049442221648 6.930541027034568
Cr 9.691399941507347 6.460968867699659 10.070932001550835
Cr 8.2399351773791 4.339722005100877 3.6316402366579497
Cr 8.696637759734617 8.304626352306363 3.5297222511042645
Cr 7.452010483611625 6.489858971950735 11.793617228440196
Cr 7.385835795533812 6.359692002322204 1.9783869880400689
Cr 6.330309021141135 8.600043737183633 5.155454559409957
Cr 10.066971812470983 10.117202655322231 9.900679649231144
Cr 9.548448980973937 6.2819197646000635 2.800353417874569
Cr 4.090561228867687 8.744267065727952 6.870716730898545
Cr 3.797619131122741 4.754145338951684 4.529928086577578
Cr 7.087862264199951 2.449532123221904 4.462535488439642
Cr 4.115797669056901 8.660407203643455 4.457281817562069
