55
Energy = -442.43398991 eV
Cr 5.567852697147131 8.818522790492464 8.439520170246487
Cr 7.015532970722428 10.71020800996335 7.379057836775068
Cr 7.863774294503462 9.139892498756117 9.430757863914014
Cr 8.030676741660072 6.8968751162921835 10.634991121001137
Cr 6.069819663408849 7.459846529778878 10.49666693718461
Cr 8.257138542028125 8.996686117049864 7.087803671886799
Cr 9.477443242183535 7.188068481703135 8.698155068916174
Cr 3.549876249862873 8.683587926600877 9.150182884228947
Cr 4.466416835885989 10.51929049039759 7.03510625229456
Cr 6.315703057178615 10.742829915473813 4.984591812296201
Cr 6.006571635337049 8.421357485309642 6.1237585743412755
Cr 8.329592069008976 10.71153978643371 4.986893944333955
Cr 6.29615100785601 4.876966108533313 9.945454472783835
Cr 10.776807936950416 7.843173747214143 7.292037323098532
Cr 6.982697183041807 6.648755035582693 8.08716912411365
Cr 3.1242184188176885 8.366723854471205 6.564197418880098
Cr 2.299567417680047 7.02824266834726 8.496031939418554
Cr 8.465178672328094 4.911737438779171 9.094492921274316
Cr 4.342123924258725 6.058496534758763 9.306605374191145
Cr 9.875324838057779 8.580721037104798 5.174874216259968
Cr 8.39577948095302 6.627453619593422 6.325532749567433
Cr 3.9803399850970362 9.861560672055774 5.016859282224291
Cr 10.261173213013238 5.0798934556775786 7.073651148821366
Cr 7.540529416159793 8.375652827152882 4.4881628104337326
Cr 4.5300037506929005 6.666323475995396 7.069056940972386
Cr 4.435709048570072 7.125711212731017 4.548280304035972
Cr 5.438236524153052 8.783481150947244 3.349421947403568
Cr 2.3931686008578734 7.926979771851719 3.90671684873773
Cr 4.1509638815124035 3.3997343045611075 8.95139131792933
Cr 2.7351526618782027 4.842923186392326 7.53099853299999
Cr 2.1995639806535228 6.392520875300005 5.808554363808042
Cr 5.5165261825289145 4.597961496157756 7.47049947753588
Cr 6.534448149204802 5.897003282059042 5.320132042189274
Cr 4.161523631919968 4.727923638964647 5.504144313904862
Cr 10.582330526667857 5.971874445230466 5.280509829107549
Cr 8.549669282247676 6.517006787419153 3.6749469844551292
Cr 8.825715089412949 4.1709242156387845 4.925358075822002
Cr 3.9228105606226564 2.607212902687253 6.695606872775384
Cr 7.721553479513227 4.178665958606345 7.010417568713279
Cr 6.6827891767841665 2.6923237275706398 8.905065932064694
Cr 2.723400045716235 5.470529272493604 3.3541023345446366
Cr 6.38773782289669 6.761991934768834 2.684204022193377
Cr 4.107930965229201 6.671574774851547 1.893176458121668
Cr 5.182394960190753 4.873499128387694 3.4723877176874747
Cr 2.127805206189668 3.7963820768268746 4.875976539698794
Cr 6.303474131249545 3.2775138804079558 5.194512956333359
Cr 7.558871983479623 4.47841726189653 3.1892321641420325
Cr 8.276145241450141 1.853719226002036 6.451201246471183
Cr 5.97853279483307 1.6607171096056597 6.905955469198469
Cr 8.05467662587805 1.9264938744388904 4.053581799164043
Cr 5.47809487021916 4.603630255231408 1.1445090841673748
Cr 3.4371878227202046 3.6345712409176496 2.1210429268383986
Cr 4.305877108616194 2.4398234220087334 4.1227454490618785
Cr 6.082662808891766 2.6212110049051884 2.5006739526753985
Cr 6.160593685044122 0.7191130505865831 4.608881701725274
