5
Energy = -30.64636839 eV
Cr 9.583247469149613 6.97011670731564 9.362888008462177
Cr 6.275852466469573 7.277018948676208 6.122862984533819
Cr 7.217069895400438 6.9513635086670265 3.5317571867799735
Cr 4.972718628097882 7.617969197018732 8.550583711438223
Cr 7.900734996927697 7.271972373007237 8.50985464743452
