53
Energy = -421.87797337 eV
Cr 7.055018601966272 5.5085850356820005 2.2759959071726024
Cr 7.343496085155982 3.321392711420175 3.3557918382105463
Cr 9.628393959584287 4.657911301218318 2.877447384442677
Cr 4.809549679343043 3.881354394459963 2.7157386696060186
Cr 5.042236287449485 2.492209031299913 4.810458781616081
Cr 11.010767112766034 6.552341088280134 2.5443982942331647
Cr 7.18777626668247 3.082456980924867 5.754191429790419
Cr 4.56859117738248 5.823908024732119 2.3327629988674947
Cr 8.897771184126386 7.147069391198776 2.4875438488641897
Cr 9.314347698896569 3.7963659107718226 5.713028760252833
Cr 8.266125848629464 5.604923424365116 4.549534671452454
Cr 3.2961812425183568 4.5555005207721955 5.08881812304783
Cr 3.335635700657175 6.491795687682577 4.549729034425539
Cr 11.001911565401878 5.913942629250335 4.823913961458187
Cr 5.054862617952723 1.4119501723906769 6.848853015841843
Cr 4.010578582994977 8.216062140415728 2.8951402624603295
Cr 6.492230906648557 2.964808601314644 8.188024700127754
Cr 5.848436988885216 4.973374495351405 4.647302909921125
Cr 9.762738873542883 5.864197390194118 6.628400875143389
Cr 6.387652244898307 7.813219996476437 1.9117624783656975
Cr 9.841547693058304 7.7039606910188905 4.611622425884551
Cr 2.928045860516082 2.564588705304782 6.631234590811235
Cr 7.2317676437055605 5.257091950747226 7.062957744768773
Cr 5.006361704740705 4.02873119143077 6.777470154466514
Cr 7.9249334591156035 7.431169412415753 6.157363740723271
Cr 5.829312953978044 7.102796118247506 4.351181400445368
Cr 4.1753589390892 2.657545352617016 9.050881925433853
Cr 10.294370554704614 8.163075615834003 6.979218856165147
Cr 8.574391940115623 4.1651245870229605 8.167184911311075
Cr 7.578232808216515 8.816504435357668 3.825033917536594
Cr 8.64383249133527 9.823703683586926 5.410967187827289
Cr 3.6788249174920047 8.533519417517802 5.567647830193745
Cr 5.168291841445518 9.646596976775072 3.691520066878702
Cr 4.873698634214929 6.4479173297216015 6.665976974509678
Cr 2.9773534954107723 4.970935445936066 7.846348944208052
Cr 5.373811439954362 4.986367149193819 9.076793736191624
Cr 6.088686760875876 8.74290651260842 6.045434809513135
Cr 8.883369460722786 7.025546267924418 8.580694904775918
Cr 2.472215340627058 6.797286246031566 7.132995899653888
Cr 2.1834961607528047 2.8493148637382566 9.154335368416127
Cr 6.345396818109296 7.457414530357629 8.184152855533696
Cr 8.149715762650045 9.433918194015364 7.615401859698
Cr 6.528010836651035 11.111691894121048 5.542181611655859
Cr 7.362392673406249 5.7868316296035305 9.683802467807885
Cr 3.228525690512246 4.825653269807622 10.450724973433715
Cr 4.594107998807058 10.86299944463976 5.985782240520895
Cr 4.050678972198171 8.809807971538525 7.701971695437886
Cr 4.068229502323421 6.940882230616005 9.253851508714968
Cr 7.766205928831243 8.465221881862599 9.772434236803297
Cr 5.272300820816785 6.051662914430315 11.383828868667797
Cr 5.987526330161189 10.055467810649674 8.148905065666847
Cr 5.1629210234140555 8.428138120585304 10.06727838658481
Cr 6.7844972037427205 7.292879084642966 11.74818260465865
