55
Energy = -446.32017736 eV
Cr 1.8680627098558256 5.416045793323338 4.116499734811597
Cr 10.04174756131709 7.0929487747682645 6.024558416874476
Cr 7.4937837233533955 3.492635506062424 7.678874700699547
Cr 4.021016275499247 1.7050486567008594 4.5965764556084405
Cr 7.731455558733554 7.48664179475419 7.482007739510092
Cr 5.069996514293512 3.6058929921614467 9.247752062336001
Cr 6.402650823329798 5.569303326762047 3.456895045623369
Cr 5.4550611600601275 7.600761571420653 9.277750905660078
Cr 7.423968207885528 3.487492242721494 5.141237918186144
Cr 4.103669768707149 5.695127959443639 5.135555679534009
Cr 4.155977314577427 5.6733592148403 2.6027240640925466
Cr 5.136603281389168 3.6509663461260224 6.863459804327722
Cr 1.9132444544185117 5.88648660495548 9.14866814792094
Cr 1.8259561914393343 5.884075617053861 6.744648037154787
Cr 2.7796719400020153 3.8713651688117787 8.46673606898493
Cr 6.503083302221435 9.629084800476596 3.30166537441268
Cr 4.302608688461725 9.54739259609438 2.6732273805289384
Cr 9.902896212906798 7.8574300953855625 3.5223886073059893
Cr 4.401977145690117 9.656890335157893 5.12846159592307
Cr 5.984534629304197 1.6218136584733998 6.1464676753609195
Cr 7.703076489129574 7.435031393822523 5.112592810274149
Cr 6.275860849669828 1.7544376063580802 8.48805348373948
Cr 3.769366814107542 1.575858261043077 7.362259901218934
Cr 5.42410546986063 7.668468377391443 6.748794333275568
Cr 8.996073009922036 5.373476932451982 6.638275657427344
Cr 8.93074865919242 5.416579845377753 4.0076378622726905
Cr 3.193473431481738 7.8381625735227045 8.396464103029201
Cr 6.502637906267664 5.618497466593639 8.379334989788106
Cr 6.463424385428881 5.565351997316299 5.905448859281109
Cr 7.377938337082619 3.6957395346350324 10.106279787064992
Cr 4.200963714954417 5.745040391764608 10.059221581134466
Cr 4.146135049752842 5.7713141617907056 7.587596580106786
Cr 10.207367087040844 7.169317048273097 8.3917030623244
Cr 9.412798703105782 9.2746576242766 6.630706415534951
Cr 9.105807630353485 9.277909866173431 3.890533483492962
Cr 8.134142130122456 7.737423018026585 10.058561168150076
Cr 6.922021984102153 9.386168909580077 8.206133592408605
Cr 6.793018449530947 9.541889503585432 5.721345912220884
Cr 5.319348604892378 7.602977518185625 1.8262013051525066
Cr 5.138751792929058 3.6678568486543845 4.3772052498344936
Cr 4.607927454835905 9.676092843376136 7.543614341193251
Cr 5.047750123531783 3.2066013861854126 2.1823338978231983
Cr 2.8527028709834803 3.7016148912941427 6.058960283777461
Cr 8.850958863414734 5.6412772707241 9.073000317188733
Cr 7.361419128162707 3.5992487888229707 2.647367805835839
Cr 7.521712446509486 7.478132845732208 2.6472522393339633
Cr 6.713409424542323 5.3688969132969895 10.706365592668579
Cr 6.542942590587259 5.268246940912187 0.9466680279523916
Cr 5.332844018550699 7.629187954579718 4.308164970803955
Cr 9.371449329791464 9.160095273694813 9.04190555698201
Cr 8.964132474044371 5.528291611324696 2.2720486084738685
Cr 3.018527210827813 7.809823558374097 5.94210128020421
Cr 2.6775738873849284 3.910027794135171 3.565056890996356
Cr 6.110677510380837 1.3372430933906028 3.438046885395486
Cr 3.0246586743846056 7.672008870145217 3.5103197190889155
