52
Energy = -417.57308901 eV
Cr 4.2532235246693295 6.20764682049667 0.3899687442672673
Cr 6.0865484851147915 4.051875645612365 0.3621856332137225
Cr 5.812013471124422 1.7593713354088245 1.3812954947090497
Cr 3.808585119259561 3.92821813583393 1.068579628142336
Cr 3.3235351289265345 1.7077217759923085 2.189293706195697
Cr 7.606169582144997 6.258080230901429 1.422580910395907
Cr 1.639383380673119 5.221297716991483 1.1853475152200381
Cr 7.7841765553628495 4.0234080074598415 1.7986288283016143
Cr 3.1391085527358022 6.391698291567762 2.4998616306589825
Cr 5.227663368376488 7.914960985986701 2.4389807455442147
Cr 5.587243941560167 5.570696994553865 2.3485200715998493
Cr 0.7526164851288623 4.7351903245680065 3.5605221486200103
Cr 5.431143931933195 3.217352484658428 2.8692719658194843
Cr 5.461884788084072 0.6393430682757516 3.615457560003786
Cr 9.448610998655509 5.861275810021191 3.5484297062155323
Cr 2.957460779750273 4.148865302322104 3.264842996841121
Cr 7.734864400336521 1.98278142449924 3.1719218197690213
Cr 7.411243208963547 7.406834115926799 3.448783257193642
Cr 7.126680881495758 4.913550451103765 4.010389852808513
Cr 0.886831465815824 7.080123068516521 3.2006572405957936
Cr 1.4304596549597992 2.2641668452818644 4.120522197398253
Cr 9.276445644418558 3.435179798713896 3.94859470754052
Cr 3.224471228900944 8.422546141085768 4.193748991081786
Cr 2.4202341274250143 6.441274254380141 4.895056306751131
Cr 5.805349014328223 9.079737453432188 5.055307901389835
Cr 4.579587198609908 4.68335126009208 4.790724835649998
Cr 0.12184178904959721 5.640481615572188 5.502409921912184
Cr 3.932877704128282 2.326524221791448 4.652265335216843
Cr 8.777586164303022 1.9884368671773678 5.788490635105224
Cr 2.991496196640541 0.46865731594760596 4.622592828962437
Cr 1.1643122695732164 8.190640338941542 6.083104537645622
Cr 2.2251179267951535 4.009345217298283 5.801502118478444
Cr 9.448610998655507 3.0283701523555817 5.762559979839711
Cr 6.503173694085422 2.8747344331056026 5.1588170472956785
Cr 8.714577425744578 4.634705609507475 6.128454320821254
Cr 5.2377348520885345 1.0359478271453588 6.323903061843332
Cr 0.2369750487614212 3.7317009691986813 7.351682284104974
Cr 5.140596186061622 6.956092959177215 4.7552940906993095
Cr 7.716236499108654 7.0075964911549535 5.530838803309246
Cr 3.8558808291199234 5.779614639554338 6.781541481514098
Cr 6.234291015322136 5.158370577048052 6.432079950458723
Cr 7.363836664786586 0.325384500539937 4.975503242819953
Cr 1.476154037531847 6.210813548102179 7.357548903587115
Cr 4.525514275171697 3.2484113149800935 7.008318139490011
Cr 2.419204473459563 1.8654913099754253 6.695418300041166
Cr 6.8647748521399565 2.9697970347279363 7.537581763204959
Cr 2.6872730036004535 4.210890222369085 8.276781346691674
Cr 3.508028711852713 8.223503562182861 6.545520487026091
Cr 5.702411249725575 7.420888125793506 7.2712805454854035
Cr 8.205567545893247 5.367664793881653 7.732299604509116
Cr 3.192567142738014 7.107088331700717 8.704435130956842
Cr 5.332789947496683 4.971872199614507 8.539873665580762
