55
Energy = -437.73828035 eV
Cr 4.058247637551657 6.672179354089387 5.613230057358945
Cr 12.440099941031786 9.057325443295774 7.870446282326703
Cr 9.44296901160686 6.088476294076682 10.107691285324147
Cr 6.619569046612785 3.591707742862992 7.851139119670572
Cr 10.644456675839143 8.489249092399222 9.24451281517845
Cr 7.0993322016464235 6.445406903826222 11.645110547103663
Cr 8.552525762630289 7.8613323269164255 5.795494618780528
Cr 8.070421941440646 10.664241614531704 11.781276455508394
Cr 9.720907512809026 5.974759232369855 7.663367736667921
Cr 6.08343482631511 7.481159878156344 7.18003373880011
Cr 6.234812154906378 7.640928249946738 4.846440668305812
Cr 7.2027256769512 5.975296633783361 9.219617443016855
Cr 4.046677730732991 9.259845780402612 10.12498759461763
Cr 3.9247195833317545 7.810163080649894 7.8356630433416
Cr 4.79480430249477 6.888796067275545 10.1322914213499
Cr 8.285092187352898 11.639488143499134 5.734047260350108
Cr 5.392200402077959 11.235154801957702 5.756438057602267
Cr 11.57613455830178 10.095023143322983 5.866073944833381
Cr 7.0320684190212654 11.936596283134273 7.663219514234673
Cr 8.656467311554822 3.9356040598054545 8.677368013280171
Cr 9.539461144135222 10.051823065025994 7.45566796462764
Cr 8.325298303844425 4.404436199820422 11.124923379684997
Cr 6.182545360133557 4.190304491785197 10.22411674358548
Cr 7.7308109126357705 10.283240036167069 9.214362095048354
Cr 11.798240365288152 6.408984055688611 8.677820565274583
Cr 10.658557520682994 7.843960969338467 6.527212828029082
Cr 5.838966620165656 10.752835780508972 10.713300823465008
Cr 8.596395849017432 8.449608330465013 10.758043391384847
Cr 8.481867665422538 7.894145342428789 8.2209992560344
Cr 9.228660024088992 6.797534585963509 12.438571332643125
Cr 6.138112824427374 8.633688293006967 11.89814918278903
Cr 6.447346406442453 8.512641051367623 9.378289065300166
Cr 13.265113582105435 8.031977007834756 9.920987093056759
Cr 11.583416627648326 10.975152682446424 8.48199617860831
Cr 10.633521571073587 12.230679610426396 6.324998617980692
Cr 10.40535780250682 9.355840031939204 11.93288905779275
Cr 10.002142102250197 10.829587922428264 10.109216875645851
Cr 9.204991268953727 12.336779287025223 8.38347063653757
Cr 6.953532871428523 9.906223560726573 4.3807343679475235
Cr 7.574299342452166 5.664089059854144 6.752836992010892
Cr 7.948368532465547 12.654760438630204 10.356392582911539
Cr 7.8703597352709185 5.601546520789277 4.368716932836225
Cr 5.040631076874719 5.278781308804001 7.8343405057833
Cr 11.285094223526805 7.47213825808494 11.322244757073669
Cr 9.604013333248002 5.808032222316001 4.956426655585316
Cr 9.562048048003513 9.87395401521146 4.882456704676324
Cr 8.138803674115929 8.794683265622208 13.341483731694744
Cr 8.60111590992214 7.827479357673325 3.318227150779194
Cr 7.075072039451679 9.521119066985893 6.793793131726626
Cr 12.550134247063644 9.753705552781074 10.525403125864054
Cr 10.693471637391688 8.045602307972418 4.119552080043565
Cr 5.193533486587962 9.975184297650026 8.109441107124335
Cr 5.551284998489384 5.079061883858208 5.699160027871646
Cr 8.566990523237484 3.5577896195020062 5.947757516758602
Cr 4.642841622570925 9.249964530702428 5.6876360613053665
