5
Energy = -32.76638405 eV
Cr 8.67061240595079 6.229956309575247 7.490840091920893
Cr 6.155662598653725 6.247374009034387 8.99047403781408
Cr 6.59219434002122 6.79053344578185 6.661651672884609
Cr 6.6599906003248535 8.835405888544027 7.728099181136123
Cr 8.121226823960388 8.103737589402337 5.310840256647009
