5
Energy = -32.58005578 eV
Cr 6.782728164382037 6.782728164382037 7.969006372893679
Cr 6.782728164382037 8.234578475717026 5.6235682333764405
Cr 6.782728164382037 5.330877853047046 5.6235682333764405
Cr 6.782728164382037 9.197422 7.348749042591503
Cr 6.782728164382037 4.368034328764075 7.348749042591503
