51
Energy = -399.63575156 eV
Cr 3.4921840077932838 3.4639522564097684 9.354308959531034
Cr 4.2876829527633795 5.89914773841197 0.8277604771598257
Cr 6.283318146866833 4.112565609816231 0.47727292755279993
Cr 2.285558311595416 4.853712696828819 1.4075216910086807
Cr 5.150057171437962 2.020847365302629 0.8384464008098852
Cr 2.376514917371727 2.11027373860774 1.2100020655133092
Cr 6.679976675522075 6.316460654591899 1.8841879186350037
Cr 8.638716051447377 4.964625757142114 1.7080234875120013
Cr 2.3926357583985003 7.012867639989154 2.6847389061466074
Cr 4.122684225038709 3.57849898354576 2.1421188113748575
Cr 0.12425132393035389 5.604939660225145 2.7817206695792946
Cr 7.716610211083043 2.7022578763745058 1.8457049378244252
Cr 0.8712762726441927 3.1246653427118463 2.9909236842633224
Cr 6.6382029891182714 0.6157749498138191 2.0841425133924942
Cr 3.8247462370666248 0.8471658269229166 2.444357563654494
Cr 4.379060539322031 6.018700620857878 2.932916489694566
Cr 6.45856956273479 4.328399573690814 3.094081430145769
Cr 2.1902563379988838 4.9210837957129225 3.9948318640008305
Cr 5.583475839918892 1.9985588992844046 3.5538035817125433
Cr 2.741152629127741 2.3341436939494393 3.907751799413477
Cr 8.221583925737873 6.72891462925952 3.7253944131348433
Cr 3.118526183584013 8.562976532289845 4.550257437031466
Cr 0.975494064885328 7.03560125133836 5.013597676464086
Cr 8.523347908953596 4.386063922781498 4.097837166487642
Cr 6.294285856017746 5.971325897611579 4.86099645594885
Cr 4.486314934913209 4.082958362896051 4.61791769672727
Cr 4.844455275166758 9.88743759773333 5.7390568938424416
Cr 7.861301704665644 2.110073493253339 4.187535921081183
Cr 7.270452416683835 8.080145642386363 5.946213722557943
Cr 2.75600929602721 3.6943473064260752 6.24855876387472
Cr 8.935932730610446 3.4437426449239075 6.40234308021321
Cr 8.348973413848777 5.757871844937286 6.385619314613429
Cr 3.555020061357197 6.368661362494625 5.191507438826255
Cr 5.473327608199133 7.905125652975267 3.812245017265688
Cr 4.347755880081373 1.82221367771359 5.661395183881007
Cr 6.577258704325426 3.5445333434684665 5.743069951749352
Cr 1.0821505189982727 2.1847987963336832 5.5792236168583145
Cr 0.29423333559413367 4.438259681383258 5.250517719326354
Cr 2.692849139310372 8.347056311540227 6.740098836065998
Cr 2.6535238301482815 2.0251659093058656 8.071177618170926
Cr 5.059557931642167 7.7135990920246575 6.462405830611515
Cr 4.736141753576755 4.933873835267358 6.916642518217318
Cr 6.869141239785238 1.589608771940304 6.941941404864875
Cr 6.688341409631284 5.9644731364537975 7.5352685217938635
Cr 7.379903117738391 3.7699434999027623 8.126896878033698
Cr 0.7791344876489792 4.141436785446443 7.6440388524533125
Cr 2.0791238431408035 5.964361823927327 6.910158929186926
Cr 4.882211711630522 2.7553001405923285 7.776691117868887
Cr 3.9467845437482065 6.607126491322774 8.491419381498455
Cr 5.3371266796835934 4.325097185662131 9.354308959531034
Cr 2.952673246023257 4.289129610756687 8.792462870333972
