5
Energy = -32.60224417 eV
Cr 5.668881089839188 8.075830617168453 6.732674761355134
Cr 7.211478198565184 8.61283419340846 7.465044902766538
Cr 7.674382020310178 6.327913929602225 6.168147508105222
Cr 9.221367182560298 6.890523634321517 7.603257669063365
Cr 6.482766840040236 6.247052168054428 8.206439480099757
