51
Energy = -406.26653106 eV
Cr 4.032000493606016 5.227525529794404 1.609517167863917
Cr 5.199907687391895 6.691494833449863 1.1267104907726972
Cr 6.745369325437108 4.768998352017481 1.8113619087701895
Cr 3.0742361606167115 7.135383132382782 2.8236830278668785
Cr 3.2479539185138004 5.459681581312149 4.5447068601293585
Cr 4.846075203497961 3.9695876497428193 3.5492992216174524
Cr 5.424391036698132 8.860038065290274 2.8911797836624293
Cr 5.468630318636216 6.384630606384457 3.441010583294184
Cr 1.6398846091935908 6.87577365889993 5.309479370689714
Cr 7.565530762063161 7.2562190756238705 2.1095814550036383
Cr 3.905110070646836 8.11208835678266 4.766319536189517
Cr 7.830556704293391 2.5986008568805663 2.928660286599169
Cr 5.169340255711185 3.146644627083741 5.956078883104074
Cr 7.6533815328154535 2.033277405860698 5.571495987067122
Cr 5.499894470657921 5.640366045285163 5.6700691343519845
Cr 8.59505427084314 4.927750401528528 2.3272679340360254
Cr 2.505026715802959 9.214044661715901 6.528563617158102
Cr 3.0385116416028763 4.532902797194455 6.725225005333148
Cr 6.005534710185239 8.096807436145545 5.466436892179398
Cr 5.123334973327979 10.573949717471418 4.884363211739539
Cr 6.957837543381938 4.211622613631778 4.390111459943119
Cr 7.162539944095003 9.360261855499358 3.4712323676427825
Cr 1.8009913729608111 6.6858121410632085 7.767392252399071
Cr 7.854248624020125 6.752769893054376 4.131726270149751
Cr 3.74177772365013 6.934910785599625 6.838651096315603
Cr 9.117606754942123 4.613578919980143 4.958350149846309
Cr 4.670069968136644 9.36252798783258 7.1021073073828545
Cr 7.664135571805687 6.309009503804902 6.450890881393278
Cr 3.354111279923774 8.50967644593058 9.004408547336487
Cr 6.6740625797035085 10.597290521817529 5.954795736874919
Cr 8.632293636237849 8.554039056786356 5.337283208191226
Cr 3.673190486576533 5.814259469823484 9.251820503203284
Cr 7.441739203667895 4.046355739135472 7.081272594065324
Cr 5.207264825134284 4.849752755015361 7.969489813832671
Cr 5.674766342150175 7.248588020180575 8.153951767324862
Cr 10.137811293754261 6.689285769012043 5.7387738260729035
Cr 5.751076462300134 2.258432770257027 7.532683062813321
Cr 5.842552411247807 9.92508257604426 8.908423675211964
Cr 9.536161806137024 2.875921773218267 6.741488288284134
Cr 7.431656647108635 8.664249956200448 7.570710068187856
Cr 9.421640050060898 7.762710966143226 7.899272460845917
Cr 4.629191936138958 8.097130039435534 10.366848990074724
Cr 5.941138458225749 5.886693186827044 10.4905230418463
Cr 7.6136637760022055 5.962119863414974 8.589685397969156
Cr 8.180983331503255 1.8679748028110714 8.268104467530037
Cr 7.429029208999154 7.901855059286389 10.074261812331022
Cr 6.549185209608839 3.7957630463733967 9.620787744526071
Cr 9.838675287945378 5.150136997308123 7.654657129163572
Cr 9.661499107718166 6.473525729482192 10.055436320650333
Cr 8.315715079744498 5.454300427581642 11.07040270994189
Cr 8.951949854854405 3.827323128379171 9.322150029002104
