51
Energy = -403.92715208 eV
Cr 3.9432033082235667 4.893354835286899 3.794531921669979
Cr 2.0107186917014466 5.485941198478829 5.605660340029052
Cr 2.449222676630661 2.9125038120945446 5.248913606947034
Cr 4.690170218102 6.154465245536536 1.726767185467955
Cr 4.982280982438905 3.561289184555004 1.8996464208878885
Cr 2.081417287764489 8.153432709660636 6.068049450212353
Cr 3.4441412934471316 1.717825359504376 6.291750394770984
Cr 2.9939668681392697 7.522315770514115 3.372372486716736
Cr 4.724304940476536 2.239186366173909 3.9979559833803067
Cr 2.761441446177277 3.7903392344549545 7.733803225655724
Cr 3.1204746966490613 6.078777435574289 7.488931762576428
Cr 4.497614059916934 4.1582084907784935 5.86194532316796
Cr 6.473881665736047 6.815898449836371 1.7152227800099018
Cr 4.104265263182992 9.457572404564242 4.9556413984102194
Cr 6.687800827621136 4.251068860906056 1.6179561896306345
Cr 4.803984253291392 4.450711694506689 8.63190847538967
Cr 7.160638391791709 0.9428586499849928 3.8252038145908394
Cr 2.378676964472652 7.792102111207986 8.838457930146404
Cr 5.878866640199115 1.7531783849068732 5.903667769544844
Cr 6.625873823300836 1.6088130570394208 2.1784315499254228
Cr 2.144963490765151 9.735735989664013 7.068267532030973
Cr 5.274571659220576 2.4905613237285515 8.067000359586887
Cr 7.933360554943949 5.651990853037879 5.47264181813224
Cr 6.0597925765457985 9.950803776216267 4.555140954777541
Cr 4.459843096143613 8.432551461561824 7.290009713616516
Cr 10.341832557464745 6.417396012718002 6.362316308746271
Cr 8.337491909905326 7.920013989589658 6.132066552091784
Cr 8.184512030670392 5.9936644407335695 7.942114912005686
Cr 10.182497048687585 6.711283850817072 4.515123543272357
Cr 9.849900237822178 4.139038418984946 4.909204547546026
Cr 6.6538523531793325 10.020478900495988 7.077218212081796
Cr 7.3218619536677245 3.9059073651129634 9.067234691248414
Cr 6.155781745507306 7.89622869317884 5.602733475206434
Cr 9.30276914946981 4.201476285192784 7.25182351848431
Cr 6.334715238433616 6.114479348716711 9.843714244027096
Cr 6.9296113670708115 8.098234490427405 8.129657536780034
Cr 5.683274927256264 6.126673143468356 7.074042499880159
Cr 7.822849803302286 7.774037830734944 3.713957148003665
Cr 4.57741020725768 10.700068913902664 6.822888135541127
Cr 8.341105757086794 5.447105336773432 3.14754391491676
Cr 4.7926021437757615 7.074065490708158 9.386433484093848
Cr 8.103148087400037 2.635066763910355 5.527019189568088
Cr 5.386290196819805 9.76578581479214 9.386839709766084
Cr 7.965684502907384 2.1058075081598147 7.872240788712298
Cr 8.725314876191478 3.104551600993463 3.026720157523433
Cr 3.5653268216106047 10.057923130303324 9.24133140279318
Cr 6.703427415856489 4.069096411768109 6.7643832952407035
Cr 6.534839857862425 3.6004332527766354 4.131647301915733
Cr 5.252361936736448 8.096488965901402 3.246140928073961
Cr 3.9420560492993713 6.800452457417921 5.2063053365902245
Cr 5.902223942591646 5.800972717362956 3.9876385733315662
