53
Energy = -415.94030964 eV
Cr 4.675893552584427 4.062492639686007 1.7661617451551859
Cr 6.957573276302619 4.005533699930678 2.4583690143038277
Cr 4.929463020306848 2.4412119911278665 3.6251480695363854
Cr 4.21934172876638 6.323169928022615 2.7275102788296497
Cr 2.7362092948236034 4.1796993313806965 3.512566377654952
Cr 7.15105705263514 1.6149387993234376 2.7777070575539033
Cr 6.580614021590356 6.270465607403194 2.6986739248928
Cr 9.328520418838355 2.494826344569389 3.043077654288859
Cr 6.506935914616699 8.397636383222626 3.8354460601568774
Cr 8.903962871743792 4.747010215555688 3.3320281714454767
Cr 3.735576761005195 8.796282388223252 3.736723290045624
Cr 4.940415752356265 10.453753727828873 3.668956078738055
Cr 8.650544983806952 7.539615664114941 4.705806466020607
Cr 5.237738192597228 4.565604815600939 4.340858532705092
Cr 2.2741641762368126 6.764023028449228 4.050769586647864
Cr 5.719192529347506 1.070476547535732 5.354851682016902
Cr 7.367640706534027 2.9591284471833768 4.751193131669002
Cr 3.3341896231472736 2.7083779751389137 5.423700772183794
Cr 7.189700895404131 9.95395240046826 5.248269093417639
Cr 1.3530749108224307 4.346127133182773 4.670265925691645
Cr 4.958307379064695 7.058939814415036 4.867215891340972
Cr 8.593947500940008 1.11930903409429 5.299035118918312
Cr 7.316156202940215 5.700274201594982 4.909685606693469
Cr 10.196675445851056 3.306197073338801 5.330427199215243
Cr 9.958563331681473 5.113461933725168 5.604884101824537
Cr 4.0271681479252095 11.942935690272643 5.4302436789578925
Cr 2.8136761310245992 10.634162093203786 5.54355954978595
Cr 3.417108800253706 5.344582849540827 5.889397173309022
Cr 6.850819549945644 7.810386196705991 6.423910471206221
Cr 5.015138753116636 9.514072806833864 5.912255882887591
Cr 6.099078230954412 11.374361293657667 7.199593780860312
Cr 2.702818836094786 8.015272213682596 6.040389078543364
Cr 8.047587635994988 3.7530814225049216 6.764484628426036
Cr 5.335988148724183 3.331252096613411 6.380567949106352
Cr 4.475707209055513 11.214968206810488 7.970506290852038
Cr 7.939164865661481 9.197837905104778 7.763905009307737
Cr 6.038266241901771 5.43743498229991 6.926104044160604
Cr 1.3769609377492387 6.246180642541526 6.702193682745492
Cr 8.570117617357656 6.383303153137009 7.287985333269146
Cr 4.672996757410676 7.250804261934912 7.461629340084105
Cr 9.744596435799435 1.9276013170180104 7.586695508914489
Cr 10.33893926353005 4.36786724103534 8.015464756200187
Cr 7.10408035514952 1.4961456082710798 7.1190315889516835
Cr 3.171955723401037 9.235231368070313 7.94406417456985
Cr 5.781079014806535 9.056815949565628 8.540520873403425
Cr 3.6622906455738025 4.53447107560354 7.897400180962472
Cr 6.784691162147266 7.016623956223138 9.011002314903138
Cr 7.91295605831805 4.870131626934384 8.777637906947657
Cr 2.803919730460672 6.825532885689353 8.579697453727492
Cr 6.112805534767786 3.2910600538271293 8.62362511036606
Cr 8.647360876837707 2.3652505684109544 8.958808982968483
Cr 5.2466743639819615 5.599732141131927 9.37653714596533
Cr 4.418788809736321 7.898586649882052 10.06165265929627
