52
Energy = -411.03878707 eV
Cr 9.372996632387412 9.478635842406241 3.8561862861742293
Cr 6.765932272852039 10.626417563721299 4.515955897583717
Cr 6.963733271229769 9.83780482030245 2.8791309420052
Cr 9.660837771010463 7.1716427090504355 3.339459664997961
Cr 7.889413745361996 8.261943775037404 5.229406695174402
Cr 5.742584152219427 9.488100518586217 6.733548656487869
Cr 7.701684699007405 7.537570706358199 2.403939208971901
Cr 8.659650310933985 9.714642858111722 6.601470682680739
Cr 4.215871133237274 9.886888778965988 2.588700696018689
Cr 4.235634002576394 10.22265735568838 4.833009336715182
Cr 9.370453138268822 7.2267721867474615 7.6103101955131205
Cr 5.693908803921139 7.079974848843239 5.988949591715759
Cr 3.302275283162017 6.526702864429673 1.7420008528305333
Cr 3.0491994589974656 7.938861769120282 3.658430251787525
Cr 4.354250641313946 8.076317386206792 8.001392185914277
Cr 8.046648286714852 3.670379292364885 5.115629327608261
Cr 6.007439525600839 5.476074192538931 1.7913491422637788
Cr 8.611851727455283 4.828360102231889 2.6550731700787713
Cr 7.722707646675474 5.66900122551244 6.829389926295165
Cr 3.2650587967124416 8.354443656096079 5.975931444138236
Cr 2.2936643295214836 5.5183475499555215 4.178680748786933
Cr 2.4565746558727497 3.40583979897231 9.029290979246587
Cr 5.259359010993922 7.767457265438666 1.8754683295959136
Cr 4.194363809441205 6.75680941020668 10.349326815980422
Cr 4.636935960653963 4.304350135711043 10.091341497031637
Cr 3.9616342266885756 3.6797682466024804 2.700508297795899
Cr 5.965295047928972 8.42566129411827 9.71355933027945
Cr 2.947727995699437 6.023240134500442 8.55022001698929
Cr 7.280733561392997 8.112207172479499 7.8149521597939495
Cr 2.0486776837908915 4.201294762798747 6.707751983407562
Cr 5.50380246949854 8.20104199165226 4.175162198748447
Cr 6.649836515544544 6.12502290080183 10.828637674032368
Cr 3.755272863156808 3.5389064507268575 5.050358449728085
Cr 5.649483186458236 6.12383676197559 8.265175017166767
Cr 4.6262073036941675 5.789332509709502 3.646601473119495
Cr 3.4120129124827914 6.048845186959524 6.167361425798588
Cr 4.478397080463819 4.170549358818735 7.70157768484514
Cr 5.7229616621760675 4.796036231031995 5.629051867380702
Cr 7.986111727481638 6.357281414140287 9.619623574654941
Cr 3.7188476869034024 2.024025771707976 7.125817590084444
Cr 7.308598509852968 6.011066040924853 4.067180662310165
Cr 6.438107243280415 3.0119210955287414 7.114271207268006
Cr 5.71039588707178 2.072638877414952 5.011817679557859
Cr 10.50742630882144 8.269424385332375 5.805756127717464
Cr 6.2765638052990145 3.647882124147353 3.435492317338441
Cr 6.861148813387155 4.122999764335686 9.120878113087151
Cr 8.916637804381546 4.079263443405362 7.835508856074355
Cr 5.094356746093719 1.9663165777689158 9.073867623313555
Cr 8.17394929403657 1.7662909913317533 6.642676116517832
Cr 9.484820617763617 5.999385396028688 5.237661991208792
Cr 6.004222559648007 0.5365762893684367 7.531879933103731
Cr 7.641185460064704 1.9968472249188975 9.207624311839982
