52
Energy = -411.98940313 eV
Cr 10.147921881324624 7.959636565616606 5.7474576529687935
Cr 10.076280519472505 5.968255124561017 7.477475035966304
Cr 10.009644878672619 5.631093727249518 4.693479402435783
Cr 9.522321195285079 10.324427471222013 4.310899500992558
Cr 8.59610425455399 7.884232158188138 7.702975169577915
Cr 10.20073546826892 8.09569381006174 3.3806457791493365
Cr 9.583360258249343 4.099173085287612 5.703671981136291
Cr 9.065896266090725 2.2689655331191685 7.21723895514122
Cr 9.913268387249165 3.452038176645271 8.363420232419509
Cr 9.747114653324173 10.091192593177256 6.507078466914529
Cr 8.638798921952752 5.75024606388729 9.601628036139852
Cr 9.001871214903122 9.691283908760688 8.891377745426611
Cr 8.032176145865094 8.509358354045231 5.0361899390157125
Cr 8.344190488842619 1.3290755860043244 9.537713513834774
Cr 7.005549416006182 3.28716676174445 6.057996928255374
Cr 7.906158996005529 8.81084327944275 2.7056886786906733
Cr 7.854568761599414 6.13358137013164 6.0123628777645735
Cr 7.895603100453975 6.674718986655019 3.379526626828185
Cr 6.406308477556082 5.148528151936632 10.288728833654194
Cr 7.487882241263088 4.741851396645744 4.270111757262212
Cr 5.863067940379165 9.48968360654067 4.343144320230625
Cr 7.633158306300927 2.9792290584979613 9.96142746583328
Cr 7.413101461080625 10.415578410932726 6.45994913481877
Cr 7.814335276988231 4.615566468291499 7.87793609158261
Cr 6.162413408201033 8.056453193451423 6.516609158319117
Cr 6.402774129243714 1.7884767136404751 7.725547159590759
Cr 5.537801607241171 5.204061140816021 6.43415171099243
Cr 7.392477821162786 7.772963754266839 10.059819109807385
Cr 6.676557273176112 9.535113399737634 8.545060410724393
Cr 4.574639000142344 9.897846664669657 6.742550429440895
Cr 6.3301385957270755 6.570355845190626 8.367317548922601
Cr 5.527370992939749 3.8040631756030128 8.433178686383554
Cr 5.940587604724857 5.368911350362875 2.1793190434793126
Cr 5.760613254661334 6.7783532713264805 4.4485708440729645
Cr 5.010310508715636 7.125032490610114 10.704915821428038
Cr 4.023785580196233 5.793195906383186 8.905384745468037
Cr 5.70075862534737 7.872965236038653 2.6286200045934405
Cr 5.05916999845205 4.33263267660988 4.044575041848735
Cr 3.2075779040837347 4.506430756384174 7.108151268188115
Cr 3.973238797154583 7.132944314077847 6.85183455165956
Cr 4.023844909512181 8.534968330292253 4.785921088436874
Cr 4.603197215594769 8.50971466435935 8.828126994584867
Cr 4.52688814349508 2.5952952500780175 6.032677038803353
Cr 2.40352491039969 8.873391277671569 7.065557377097171
Cr 4.012378446826412 6.381734112249524 1.153569929308913
Cr 2.520945033182132 7.565966118124792 9.124620600458178
Cr 3.575594689838951 6.741962841195609 2.97371780751456
Cr 3.3269167143815404 4.207600355356037 2.676414453132314
Cr 3.178777464759683 5.610828968571424 5.124346769020643
Cr 3.058771005780508 2.8655483576024503 4.945496278643177
Cr 1.8400525152721288 7.398804574247046 5.198596385024203
Cr 1.6477927430606198 6.200926060681165 7.329053885174363
