50
Energy = -392.19085762 eV
Cr 7.289825085957126 1.7595369415795201 7.265155319183865
Cr 5.262576346115584 1.4883316508683875 5.961324949254594
Cr 6.736597386690727 3.426155387978518 9.43994628912744
Cr 6.77903215249754 2.6970476223167075 4.816444730000937
Cr 2.98366639530921 2.9261603787740307 5.941807265641125
Cr 4.683190477394664 2.4180793954980575 7.934178511484051
Cr 9.047764587856514 4.977746289941442 10.252966240599342
Cr 8.89065769216966 3.4360006877578937 8.306975349567056
Cr 4.621935901397558 3.552170240916915 4.303729895959911
Cr 8.765270828303471 3.876569680654567 6.008609840151527
Cr 4.8308238639644525 4.600233745113517 8.946663054179455
Cr 6.577899149417296 5.285984361064476 11.165711627401652
Cr 6.225324152747608 3.8587903799339007 6.744268945386269
Cr 8.406777122761053 4.532630999633415 3.7639614096785086
Cr 6.392549454013495 2.935062088146289 2.450419305038786
Cr 4.80308096027486 3.6012261542690194 1.7199075806361448
Cr 2.5554189448143405 4.343328922650572 3.29356261492681
Cr 3.7797779288637137 5.343159057193468 5.511596757942813
Cr 1.047121582453381 4.795763325480392 5.343153092778107
Cr 6.233646151439573 5.285615471541901 4.2479401019918175
Cr 7.294464734777026 5.606778039022099 8.661370810071022
Cr 2.652737456387656 4.062310084837833 7.3986854731072516
Cr 9.587789681533058 5.845416689158986 7.651683799833268
Cr 7.282799455475753 6.969719298150824 10.958380926636897
Cr 9.377538173876827 7.103139669351689 9.508088702862135
Cr 1.265751000604239 6.206003285144624 6.519105176176804
Cr 7.733662223024891 6.035459470426839 6.022966814897436
Cr 9.386409482258665 8.050483822565365 6.56119044805406
Cr 9.822396391659824 6.229480654608003 4.8052616810176225
Cr 4.268521593847269 5.9315204771321195 2.7973474767624915
Cr 5.166678245296745 6.93275410596795 9.420351501490273
Cr 8.957585639837077 6.489961601108345 2.075152190340615
Cr 6.797067721768288 5.461659455521972 1.819045162624386
Cr 2.6621927736764883 4.7354539550113 1.0301462901341787
Cr 3.398083695722434 6.451890949764309 7.846648817399566
Cr 5.611771271800971 6.297876729735075 6.937432579120188
Cr 7.538244697926783 7.795329500072604 8.308184419245537
Cr 2.341545266385385 6.839430047822871 4.296824284490685
Cr 5.248222557541261 7.410355451143546 4.832568424361119
Cr 5.341070774041591 8.598409376494196 7.463806710877906
Cr 7.978067191527541 7.374756779663749 3.8567129664530864
Cr 2.019007044457761 6.691838390380562 1.966402889273943
Cr 6.177076876186143 7.499592416961987 2.463123717051927
Cr 3.380712506534605 7.995373301455726 6.154187141774445
Cr 7.155137989980344 8.545305021314325 5.801040383458856
Cr 4.616257149060077 5.994841799533538 0.6611167788169652
Cr 2.329033796369339 9.533348064101817 4.599738792191415
Cr 4.900797311254632 9.984301208187656 5.188970096140698
Cr 3.726064892985857 8.535537081608771 3.2242989597658607
Cr 6.147258893302641 9.728963145979156 3.8287263581804916
