52
Energy = -412.48496716 eV
Cr 6.480539897104712 5.27471186599633 1.1072373210826554
Cr 8.90886865792521 4.785164531577927 2.1919351755525236
Cr 7.560978114830508 7.090702021121968 2.083563892752687
Cr 6.794097130045165 2.976820927727516 2.148515981948806
Cr 10.5978496611989 5.283752240427088 4.2323187082015465
Cr 10.323673547285374 7.688061085900933 5.104673126251185
Cr 4.741725307442343 7.011085079824405 1.9447762724696445
Cr 8.14613064738768 6.400080215716693 4.171489217888154
Cr 4.221946465695089 4.382939955696905 1.7206020658148813
Cr 10.840502579774554 4.127412093799407 5.593344359818422
Cr 6.284548079404597 5.10058504914305 3.5548724491014854
Cr 8.491885094891146 3.699440519552728 4.158351481701324
Cr 11.403741615139559 6.611880803595504 6.766328212338059
Cr 6.555655415612722 2.571716238559703 4.850250387925968
Cr 4.642284789303612 3.2130224205745295 3.5451168124539745
Cr 6.068800127703841 8.168873249149012 3.7910000922323817
Cr 8.133804058788963 8.26294570829969 5.609545372288676
Cr 9.053529902489728 5.702450399821076 6.327629926012732
Cr 8.646632922639768 3.0136502433849888 6.651279587486236
Cr 4.308719094489292 8.49116865869991 4.251227234511197
Cr 9.682329803839492 8.263265662830635 7.668950319658195
Cr 4.560594842196221 4.374924152489778 5.666450859459748
Cr 2.4463744966912317 6.007330672449407 2.164702010680281
Cr 4.195069730418844 5.974994522354559 4.0632763228502675
Cr 10.298181810374178 4.568610559991616 8.106665338103223
Cr 2.3383479999862464 4.371161597631113 3.7477271512134993
Cr 5.9559161949754476 6.698644272061524 5.715225801391103
Cr 6.9286338478896905 4.71901697055686 5.988810526645598
Cr 7.436631267035566 6.921925731467087 7.509637111099256
Cr 2.0672460364945495 7.044287237604288 4.522895753113714
Cr 7.430560276307398 9.67682647693146 7.6072478155118715
Cr 5.907960107908656 3.0550371657134736 7.677438351522064
Cr 7.612639517907506 4.3386155761392144 8.386838656823262
Cr 5.560722029148088 9.018876103134247 6.3545436688391845
Cr 9.478203397792186 5.9826921403091085 8.92456792375253
Cr 3.3418104724446556 3.674648146989993 7.920486608655085
Cr 8.145080681037847 8.16352592404923 9.712239623053376
Cr 3.7966310543988455 6.903390420917307 6.541697865446693
Cr 2.2820599469291563 5.194212539219964 5.952822724556311
Cr 2.9262230560100515 9.214824180085992 6.383535589168933
Cr 5.166197804588512 5.562055639957344 7.849802122101523
Cr 5.661242757023166 7.840523485912302 8.572777019081174
Cr 6.855130536121609 5.834784929621622 9.835601413084321
Cr 5.125759462445952 4.163632804924261 9.895873642768091
Cr 4.7607125680982305 10.278114356681456 8.083181531446668
Cr 1.3309383209426784 6.954506016064991 7.396801170057139
Cr 6.493004256466684 10.004069235216928 9.652817494612052
Cr 3.387467849151002 8.036285921628389 8.549085627240059
Cr 2.74590253881912 5.206699203988044 8.674471272286311
Cr 6.066341888377057 7.648947000191231 11.133282035554402
Cr 4.260818593210372 6.390794286628422 10.24054946612559
Cr 4.41484834423408 9.109888011859615 10.561269397452804
