5
Energy = -33.90612861 eV
Cr 7.704621540812823 8.078095430911615 6.415823836251065
Cr 7.960144411394011 7.862228715718773 7.725861064314483
Cr 6.593831683787537 7.068360642119527 8.246606927317028
Cr 6.698488882904669 6.806733188231484 6.933176483624678
Cr 8.098918685968918 6.439226818150545 6.933176483624678
