52
Energy = -414.86352179 eV
Cr 9.987056747779139 5.622874172064396 4.2438360775524275
Cr 8.646643246851168 4.126749021622937 2.582586692351625
Cr 9.168911635560733 3.190087293025235 4.8629258562145905
Cr 9.042102114991138 6.997530023419663 3.069929029804836
Cr 6.865945901296085 6.314076492081717 1.5549670095335297
Cr 9.686871634424845 7.933421060169017 7.183952236389896
Cr 8.955591858192944 5.492129621824213 6.299521661092366
Cr 6.961365684989513 2.626569519901186 4.072224120708842
Cr 9.440780764961303 3.002972846306368 6.844144197048405
Cr 8.285995274743739 7.336353486742749 5.206610383887883
Cr 9.500430066943835 6.01762220687069 8.842809036169765
Cr 7.325931210577171 5.2861445868941965 3.9353007397048474
Cr 5.865389293552821 3.9350941609284398 2.4312292042628676
Cr 7.389372540715527 1.451788659975615 5.943226186560106
Cr 7.656066046335198 8.041731721535223 9.471957717815133
Cr 4.367716771220057 5.944182021580704 1.4047856697704988
Cr 6.731160453330874 8.070204591873825 3.2790080081818216
Cr 4.925704789759194 8.401496195270251 1.8117853408878992
Cr 8.068058913958891 9.208319103118825 7.270857786842372
Cr 5.0670360990195515 6.352707517126837 3.599129683738148
Cr 7.343741222087558 6.655119452886609 7.631487258997849
Cr 7.082591843518403 4.007725997698326 6.265183595198822
Cr 8.468699084936555 4.418363819698557 8.704990355915818
Cr 8.38305313058196 9.589889359348655 4.694077936075578
Cr 4.919130525686821 4.080643927518773 4.76206311700924
Cr 7.14658897110187 2.2375791974328796 8.247355588544812
Cr 6.695408114989247 3.212637564369816 10.39176426644957
Cr 4.6332847064117395 1.8938248071191237 4.06934533380762
Cr 5.0612418167014965 2.5954312763486618 6.7121080058452405
Cr 5.795053327566378 10.156166239911984 3.761088048159145
Cr 6.059131616975772 4.548005419022924 8.292770955138755
Cr 6.11229378746003 8.424802513655049 5.815081775681445
Cr 5.836395758058567 5.970501064372269 6.0243312649858565
Cr 6.507029532120749 10.729916109752105 5.8266451257089775
Cr 3.178830375633842 4.43590733151974 2.999388438026086
Cr 2.5708063988419174 7.209744701227621 2.813571208110187
Cr 4.508444929513029 2.8995324239891422 9.03801555048851
Cr 6.681137517189215 5.757577251508397 10.07310893547478
Cr 5.630649927851846 9.134224477561284 8.081973665446668
Cr 4.133632206112054 8.527378429035533 4.199708783211019
Cr 5.136147799325412 6.952651905577255 8.579069393815546
Cr 3.8900328745502133 4.961855413387808 7.269183559124443
Cr 4.3535581620574195 4.7858898026639265 10.090452121529749
Cr 2.6971588191452978 3.7320105145213915 5.715136272816042
Cr 3.775703654205929 7.633414198189013 6.716759668828203
Cr 4.145486479979658 10.188812500964303 6.096011772627638
Cr 3.07341735446959 6.0312899194623855 4.902423928222055
Cr 2.2744228679161402 4.035312529933074 8.68447196857659
Cr 2.1083211325814104 8.372525895745952 5.342479560817077
Cr 2.8870952381506134 6.458705799245563 9.097137092763374
Cr 3.1625353056190946 8.906706804896706 8.358551985734533
Cr 1.7803521976862007 6.146672496280494 6.8975945357623365
