52
Energy = -411.30553839 eV
Cr 8.208696429866777 9.511401582386025 9.6032616687179
Cr 9.318694699464807 8.298166765994534 7.580809911018137
Cr 6.438716760624934 10.881065983988814 8.906913465869625
Cr 6.0896415071232575 10.245551946431108 11.288004909005988
Cr 6.853216903930052 10.481299310650904 4.201529032782075
Cr 5.955524038905971 11.421949415308845 6.311036268133105
Cr 9.848365412849512 5.675069540657053 7.127659414305808
Cr 10.188119624183726 7.710958303070963 5.2801537643445275
Cr 7.618098068328567 9.930525569748195 6.909038258415328
Cr 8.80867993811084 8.838000294418272 4.907794552321404
Cr 8.52910393165639 6.760373234519384 9.281135171674782
Cr 8.513832245300545 6.395865608157903 3.8172904051089382
Cr 10.807682717454535 5.357295142827781 4.755488997880733
Cr 6.65109060783294 8.19126813835889 8.365693269082087
Cr 10.478398551141987 3.45452183839401 6.730975615822057
Cr 7.591886915368299 7.043022643185006 6.416945557448155
Cr 6.88076372861813 8.296040810689997 3.0516449826378245
Cr 4.727525220589186 9.887666995902995 3.2921836743130815
Cr 4.959103086806808 9.151773433963081 10.388152520518954
Cr 7.361413391042362 8.098474705428805 11.004167385423203
Cr 4.904869505555661 9.575462683312475 7.723081365780445
Cr 3.9792896495832806 10.438367474597023 5.289808296127396
Cr 9.476336327094932 4.4223669196724575 9.14380377273877
Cr 9.186843694030301 4.073144037817086 3.0387076570159364
Cr 5.963391941054204 8.763974504342615 5.600458802052117
Cr 8.337953560948014 4.816700090663621 5.549000653369184
Cr 3.2282172508525795 8.435344384734622 6.336374617310752
Cr 7.386904002080602 3.3079216767570983 9.94751812595548
Cr 7.025376677069986 5.318790470199429 8.170103768792007
Cr 4.210280541945065 7.932101527093864 4.305265032495225
Cr 7.591286711159012 5.4807240358615745 10.960165245144587
Cr 9.264431559503834 2.8477961594133565 4.466158805530027
Cr 7.400904357910357 5.796298766598967 1.9803155308916272
Cr 6.173702824373897 6.249231231034414 4.449548426386791
Cr 5.800125735280713 6.648469920033556 9.911994292972862
Cr 5.977222209796838 4.477954500880591 6.15715734931196
Cr 3.8143712891285104 7.369199882156143 8.817031025419466
Cr 4.915780816219837 6.810427433182748 6.811423649016537
Cr 4.8642444663674675 6.595837429914706 2.2226950262505905
Cr 8.222514561587602 3.2452249120190158 7.354237307277126
Cr 5.838621271092067 2.9013888412654274 8.101641559958454
Cr 2.2619687953432015 6.549348377834261 4.729942063228953
Cr 6.87520260199178 3.9648810682372346 3.6473450564078918
Cr 4.44707088068629 4.820340205854865 8.495450056116916
Cr 2.254965564476517 6.322251880151899 7.22487260335749
Cr 5.27965560587643 4.299614169656294 10.395308369377423
Cr 4.075717743003887 5.260052315928427 4.402979250610151
Cr 6.90187380726217 2.3757739309235677 5.547410093459279
Cr 4.945930334173463 4.764089528893429 2.156895925166752
Cr 4.629766831251457 2.9391543021116173 4.169343399636149
Cr 3.5185063095306788 4.475593859060451 6.367088944957695
Cr 4.529211565741958 2.1799049060114424 6.335647981521045
