52
Energy = -413.09400913 eV
Cr 11.516798101313428 4.260153611483634 10.117730054431341
Cr 11.431269557065566 6.364137183174033 8.190640187633539
Cr 11.234813638551305 4.336675753994076 7.8528078030978365
Cr 10.226115720867362 6.146020547476131 10.236970923525504
Cr 10.140811867372566 7.802127745772278 6.266709916512822
Cr 10.05224626920015 5.208300723129648 5.763062122796359
Cr 9.073878341848888 3.7739576025598414 9.478618102211794
Cr 9.711929470481875 7.243268435174756 4.060373726108036
Cr 9.3553578436616 2.866082222255572 7.139423690785552
Cr 9.366785435883681 7.94021844989997 8.444346995724011
Cr 9.396367428429532 9.721212251107872 4.521836007330538
Cr 9.100358336146263 8.604338365451131 2.012072603341958
Cr 7.892160386065165 4.404244086456451 5.8977318539966355
Cr 8.991387653834726 5.602464347132111 7.886837682317139
Cr 8.894822887891086 8.218592531397015 10.702557927882694
Cr 7.134106485746325 3.6320255571248983 8.359147755296739
Cr 7.982767792759635 5.504961130463335 3.8574365732008875
Cr 8.125583581543655 6.966366193499942 6.131199696082537
Cr 8.203813587953489 9.54143423074969 6.560153738517347
Cr 6.650983373452721 7.517461684881555 11.160557443570822
Cr 8.203623049199207 7.013458646895175 1.8557438424633645
Cr 7.537313321325192 10.300902987515597 2.983818601361063
Cr 7.805998239357275 5.891907349296046 9.855515741392804
Cr 7.362447781484987 8.115661345011583 4.218927831923068
Cr 7.6978499903554125 9.975045092160459 9.441467017771192
Cr 7.201265449018609 1.9421098367442713 6.430283831334288
Cr 5.879557143410963 8.247722151865032 6.27625198951223
Cr 6.271180718395863 8.736401110515567 1.7931573621858532
Cr 7.138644599067165 7.9436105246005955 8.401848052131859
Cr 5.580021863073608 9.245985119188317 10.260948111848885
Cr 6.313450237706385 5.827136426942392 7.686309613433111
Cr 6.242898424213658 4.510121627760356 10.207013688470711
Cr 6.071824342869566 10.258684690677368 7.761995424360038
Cr 5.795211977249402 6.680917140553177 3.085910166268649
Cr 5.8818637415912365 3.944675160640937 4.117828781468271
Cr 6.547799907790949 10.525854650300257 5.112247792228474
Cr 5.819632645529195 6.066558515330111 5.2392411913258226
Cr 3.9285200566496825 6.725044422874572 7.084816084260898
Cr 5.140644220700041 6.581095395423501 9.568737399374347
Cr 5.6042494763022885 3.5597657370822944 6.350619475193215
Cr 3.9891488232923518 9.485131070312972 5.967828215537122
Cr 3.8839302149628914 5.234424021497753 3.4894391332048307
Cr 5.149381073166246 9.321023739978369 3.863622457999399
Cr 4.361901172769139 8.68427976726068 8.402794431176412
Cr 4.248213353850247 4.423412874670413 8.484100934405594
Cr 1.8765264310525471 8.327654182585295 7.055113860512807
Cr 3.689073206619574 4.742906080656232 5.77993772489436
Cr 3.6537459278562783 7.335299989356666 4.816765878905313
Cr 2.323056215606418 4.7485671859432 7.893694772647932
Cr 2.8092553265884153 6.68536165094966 9.288816387650286
Cr 1.836803884346541 6.0126322802270495 5.3337593331692
Cr 0.8501881277137833 6.895073723589481 7.45851641734326
