53
Energy = -422.05413314 eV
Cr 8.59389486128434 8.70680207648498 10.260371376977604
Cr 6.404764356023213 7.188368106698101 10.62968880983871
Cr 9.060443947927551 6.17871449968812 9.538029258170086
Cr 9.410660364286793 4.228633658844149 9.59391503612827
Cr 4.213990530916146 5.874937266444797 10.494256839976075
Cr 6.404155516266153 9.54024691601756 9.153608548185714
Cr 6.767340356665438 4.869515299553377 10.26834349778838
Cr 4.718098520326496 8.01019497565363 8.850092759836377
Cr 9.268359564608998 8.790889434169879 8.394073609699737
Cr 7.377500594170494 7.2812998506121795 8.316584857042299
Cr 7.673169421284065 4.6277506013179845 7.891058835489433
Cr 7.223405425842169 10.113271101854558 7.0698738138472725
Cr 7.19989193502579 2.623075797866528 9.425832263116503
Cr 5.506181737600378 5.849380842345005 8.382866758798608
Cr 2.8442109030564517 6.643255544157922 8.72867834670443
Cr 4.732848376928667 10.37421997703375 7.589678772642185
Cr 3.264157226081654 4.26837996779785 8.387069138337528
Cr 3.422811833333037 8.53964319409081 6.721507167450057
Cr 6.009297862168416 8.118036679708934 6.641766809464396
Cr 8.502707429399678 8.010605843862052 5.927156483309005
Cr 9.3778193460678 6.385845361352767 6.814398346738536
Cr 4.757009053389989 3.510048754950255 9.468174604810546
Cr 8.828282011062498 10.709375342870946 5.933202197742958
Cr 4.144948876730263 6.16280117220093 6.6281961778076806
Cr 8.97976188316758 4.036844512987425 6.324182845172175
Cr 5.278565291563784 1.272928861548677 8.198699850961084
Cr 3.0549793157521363 9.228686203904752 4.3333719947081715
Cr 9.378932309052209 9.529163347082736 3.8446668066792573
Cr 6.864685525776443 5.7571587830497135 6.113194386241992
Cr 7.2446444015024944 2.3924074764371963 6.992882751213445
Cr 6.9381573647513655 9.497921079829013 4.395637618507179
Cr 9.634681195483921 6.860945765738756 3.931997846953062
Cr 5.471920151095522 3.6394035847066384 6.821831325724063
Cr 5.0408418810809765 10.25373964150746 5.377298092833434
Cr 4.858155665262659 7.632709578057295 4.711068911516133
Cr 6.998830116734877 6.982004787883887 4.167983154355165
Cr 2.7272339714531544 6.295611487184487 4.440861038178099
Cr 8.309564154577032 4.971087506744721 4.49508451054046
Cr 3.6199065606151497 1.9347770523985364 7.305556842713339
Cr 9.751888742471385 8.002175598803523 1.9625452751856565
Cr 5.115668096184129 4.9882548516933065 4.394790436417667
Cr 2.9996945491642006 4.235561564824565 5.8914308463070535
Cr 5.7123629301886245 1.1185962228028559 5.586621530227661
Cr 6.8700025345781786 3.2942903750716694 4.901697036409257
Cr 3.0377521964960525 7.244870784312774 2.70733954634868
Cr 7.462393481470701 8.31904575470622 2.3098101823872015
Cr 4.952070842572894 9.230566079780674 2.8085410057718025
Cr 8.178016516137923 5.949873467753769 1.9549224387838238
Cr 4.217133366251096 2.5096129256718696 4.7911745871123035
Cr 4.012783424788635 4.603061742368467 2.79558342375733
Cr 6.773661268843374 4.59961246254235 2.5136327692110276
Cr 5.405843776392379 6.7244027509791 2.2927599811737456
Cr 5.691183541627823 2.459922294444499 3.0832686425275373
