52
Energy = -409.44744197 eV
Cr 9.200068009282779 7.938982149313507 6.9126859595839525
Cr 8.261383746059396 9.524263511092148 8.55292314312149
Cr 9.865475133066663 5.341762810453128 6.958924248227172
Cr 8.465775455483929 6.422503505540732 8.837337086219415
Cr 8.372839902288048 10.517680717066046 6.371952859839638
Cr 9.218782761807518 8.83496768418407 4.683730306955351
Cr 9.03838101154282 4.10024900488486 9.207648067224419
Cr 5.873842617209961 9.919767340343597 7.5091222117093075
Cr 6.832367406037105 7.778917943476245 7.345003735874716
Cr 8.05941214221837 6.322262883924141 5.324862442317063
Cr 6.523386814460329 8.078784322032332 9.720806816118344
Cr 7.579569696218382 10.603408143464028 3.7134650509055183
Cr 9.923063284370578 6.395120380214219 4.3235519561496085
Cr 6.154551317331334 10.890767534821371 4.885574143021652
Cr 8.93673186849424 3.0695658691608747 7.446772265981206
Cr 7.935727305435812 7.865995374465531 2.9629312105532546
Cr 7.038138285900874 5.305627295606991 10.679022511083618
Cr 6.9129619193450935 8.577332864667062 5.230765875811386
Cr 4.269218126913523 8.010238724277333 8.22594956902618
Cr 6.7798821117996155 3.3286637364835645 9.032704446242903
Cr 5.707345381327958 6.806946050508776 3.8868258967098663
Cr 8.481248040623385 3.800890297538704 5.128611760266126
Cr 7.288332383664813 4.976122352203137 7.320924702361886
Cr 5.33942857440716 9.00800274446652 3.0578804289489803
Cr 7.387577963116292 5.188711284937902 3.107765026322014
Cr 5.2804855857891555 6.508381653341917 6.285628382348888
Cr 6.156883037964574 4.490191278357603 5.077618863161148
Cr 5.959774546040555 6.583365282707379 1.366882547806881
Cr 5.666218133201871 5.863980285950521 8.891923932286693
Cr 5.001240360119739 1.5954116335677648 8.673228517085608
Cr 6.485721805231921 2.433591903794692 6.51998284000425
Cr 4.150837080762727 6.652173534658781 10.327740841991993
Cr 4.529411108380919 8.727795435771279 5.6097552845145096
Cr 6.269136146100113 2.611146225299788 3.5168814049553063
Cr 6.251956105853941 4.0175718726095715 1.3658218838711744
Cr 4.87491317440045 3.918008041172617 7.230125228791857
Cr 4.60613598811445 3.9186927999080354 9.840714545719756
Cr 4.1345361015697275 6.948660573142696 1.5644011685167072
Cr 2.783043218814869 7.579187139461272 6.4280535886733885
Cr 4.676691951282048 4.729183572914017 3.076869991808334
Cr 3.3357663665021415 7.200627166562907 3.9214016787349206
Cr 3.5403421483081297 5.229185355039992 5.295942136058772
Cr 2.798263517911868 3.2317146025724828 8.77992719374478
Cr 3.402974424725534 5.510868829299442 7.961433542363256
Cr 4.360169778197581 2.6575216219915876 4.884124039297459
Cr 4.102152260956683 1.29843210972194 7.050460621327599
Cr 3.9737336243629615 4.487630279224714 0.5464796585196021
Cr 4.020081084422148 2.632556682423769 2.155823958020987
Cr 2.389260781931399 5.230741809048545 2.7194890780682273
Cr 2.5422200569591675 3.2829055313314597 6.488309692904844
Cr 1.291477095361677 5.4896403766199935 4.964254341414972
Cr 2.4758155892827407 3.2284080485205036 3.7891807328716838
