50
Energy = -397.1282631 eV
Cr 6.8845352491963 8.457414056636612 0.7214185766370131
Cr 4.435840174059689 7.764073644223862 0.8525261868642546
Cr 6.169804475228851 5.823273568260273 1.1758307641434542
Cr 8.673373882836028 5.01928512262793 2.0657074165240066
Cr 3.860010423604435 5.422880143322997 2.1849259370563785
Cr 7.292628101581909 9.377033037102402 2.3248336887779164
Cr 8.347387788053508 6.885062685941775 2.1339671899938653
Cr 6.068602625628639 4.313096314876841 3.20687084685576
Cr 3.0233976534551124 6.945816212426008 2.9504599232390256
Cr 4.516653016419014 9.108912444001021 2.1898474849971823
Cr 5.878833579284637 7.15923609979798 3.028489276183781
Cr 9.700392820620738 3.6210560944075816 3.9649569930598245
Cr 8.111779251412331 2.85250753775102 3.261776847275474
Cr 2.209313202895154 4.805822481531214 4.2923194409114425
Cr 3.8669200092612073 3.4535289221048786 4.0049089864149074
Cr 8.21068748028852 8.052165882851194 4.330468518082696
Cr 7.606860722786413 5.451770301600164 4.549410433551299
Cr 4.698903556781097 5.8642582221348345 4.593953084517323
Cr 5.903388087764293 9.395534242057874 4.4142822207284
Cr 9.968280741382399 6.161964494692272 4.14876844078647
Cr 6.036792626572846 1.9989951366544672 4.6657850990509235
Cr 4.045747373101969 8.233812613341401 4.9158403171878575
Cr 7.804361637880954 3.3664287619776965 5.710422387167215
Cr 6.336692409336473 7.126196684206597 5.691310699053126
Cr 2.338336518432423 6.674157589719522 5.491530844899209
Cr 3.2431425952012516 4.390995805351015 6.458684119209992
Cr 9.602064927142784 4.767521269523976 6.255685197634428
Cr 8.891684709592745 7.068425304165464 6.465226918429408
Cr 4.055627498158194 2.6010716881677007 6.454032819968802
Cr 2.569684676067145 8.510139298956018 7.164820163714895
Cr 7.352174550861093 9.493632963863355 6.188977266841406
Cr 5.733721079864772 4.293667937774371 5.967381662191148
Cr 7.070851591052107 5.52421743863518 7.407196339229509
Cr 4.396521281609668 6.500772966826491 7.0787634222379054
Cr 1.9167722848778246 6.0478622540052065 7.922418510068808
Cr 6.206529750805052 2.164389150971797 7.419838855414289
Cr 2.782825030584652 3.27123778848376 8.658201889278516
Cr 7.793894740161275 3.5035902971836324 8.27340195223473
Cr 4.39746262290051 1.8445118378177874 9.04041987309742
Cr 5.1830591434535345 8.661997339153226 6.927995362556754
Cr 9.311119653562072 6.080127268465551 8.520725226553362
Cr 5.131666043030747 4.322548263285275 8.504750553739129
Cr 7.412760836522025 7.906061803507431 8.053403755256573
Cr 3.395887764979463 8.359535179398584 8.851709862259431
Cr 6.2668081692437205 3.135746955028495 10.107204859010984
Cr 7.020934573920106 5.652721647863753 9.905323168441372
Cr 3.2021356650891595 5.7761176220701795 9.332297284444893
Cr 5.50494571923195 6.885261845460837 9.210658292282483
Cr 3.8086793764002236 3.748198523148734 10.894061908137955
Cr 4.872428826523463 5.268271775343112 11.179115652508026
