53
Energy = -422.19604289 eV
Cr 3.9265257484094405 6.105615586078562 0.27642840516896783
Cr 5.6144929486425985 4.220702447467885 1.5170018903870646
Cr 7.5786565747317045 2.330820216724642 2.209605348651918
Cr 3.403538737311903 3.3458302540546043 0.9570793146581827
Cr 6.562081562927324 6.691263638295028 1.3150537260388062
Cr 1.9378570047579744 7.913482299540233 1.4566339960598838
Cr 5.313248370004904 1.8087681322254698 2.138936506061556
Cr 7.992724759764425 4.637759358142666 2.005497892307154
Cr 2.4675262354936174 5.253130660106631 2.0594918664716513
Cr 4.510726324077141 7.922462849662891 1.8914486024608295
Cr 2.908723112388191 1.532521964633755 2.7067205942472987
Cr 8.079889089635154 7.27668469456982 2.1249592757786635
Cr 4.629417430700655 5.802366924654032 2.9196358199980716
Cr 6.1973710159678355 3.633782550298724 3.8515139388796005
Cr 1.2177282074863567 3.569853802675746 2.864420407219295
Cr 6.198675612409745 9.026645026081804 2.708987977797408
Cr 9.154915588487686 5.77253625731027 4.32090799698073
Cr 8.79681062134042 3.085860470018337 4.115275548384844
Cr 3.721922723933433 3.3164281104641695 3.5538056082937395
Cr 6.885772613040531 6.0854818053425435 3.936084570149194
Cr 6.955889998903747 1.0643349401346176 4.211007391673002
Cr 2.845908216487462 7.238179239354636 3.988430376275136
Cr 0.8099985147565892 6.45300510584177 3.1188673999034764
Cr 3.24472643227677 9.249229922253006 3.2339007979412613
Cr 2.0293991408397467 5.057307623410996 4.778972243891236
Cr 5.115317875176815 7.921390894035472 4.5957437132212
Cr 4.793632176570298 5.1656472323669815 5.094989136833192
Cr 4.33979377368272 0.8011731790017367 4.456146208294763
Cr 3.6243729527365875 8.994759513996573 6.048667540082113
Cr 1.9414503695115979 1.9546383947080523 4.924489590327317
Cr 0.46907213944628745 4.1275925007296586 5.679380871075263
Cr 1.2457614255659044 7.28296240789723 5.823965508927779
Cr 7.223831108158605 4.395773607018864 5.857064886884095
Cr 6.212319049362621 6.691582363615539 6.692485038946641
Cr 5.177279978347712 2.5973132060061555 5.699056607082764
Cr 3.2638770059615614 3.8204300155237862 6.269694047597347
Cr 3.6549673421172932 6.50285533029743 6.467623430822527
Cr 9.343840421313283 4.152106635240665 6.181617255450236
Cr 8.437587509610848 6.445245333700029 6.877528226978561
Cr 7.941219186825578 2.0387122883950193 6.471103918699037
Cr 6.1250883561065415 0.3047248772860159 6.343281130520934
Cr 7.320261316506418 7.9606392563501664 4.9030199958339375
Cr 3.5572386909693225 1.234021052726806 7.02096523002743
Cr 5.28207287799293 4.580376396899917 7.4528747497148435
Cr 2.3129406438499434 7.547908247538368 7.959760474000468
Cr 1.652963724716963 2.608871460143932 7.354275350281988
Cr 1.7200318840394846 5.321070065465184 7.731399009689001
Cr 7.799290823810725 4.107750142918983 8.253568294770098
Cr 6.639853477702442 6.391551301946032 9.039561290556168
Cr 5.859495657918984 2.1479302188571037 8.149344087970464
Cr 3.981712108982673 6.059573041561019 9.024894572372622
Cr 3.3861048010872277 3.325808472291574 8.895156691041558
Cr 5.68423904199363 4.21368098897882 9.561817951160343
