52
Energy = -406.90543821 eV
Cr 1.3431071245956983 5.506253538378372 7.028658455509826
Cr 4.928648320962168 3.8215129224197266 5.588174232015028
Cr 10.227579690084191 7.066272046603152 3.197268714007759
Cr 5.121010758598008 8.139947337018079 1.3581176220882833
Cr 4.390935412734491 5.06530650971085 3.3952018819296397
Cr 2.124355179821967 1.9398104412812007 3.363856191197571
Cr 4.368628604811747 0.29683828887989544 3.596680306282053
Cr 5.631236742390175 6.378593494765036 7.510053370024464
Cr 8.17828774340042 5.871669467200193 4.0139896627395215
Cr 3.8689365812885135 6.191017845684585 1.3797035055930722
Cr 6.745717514063996 3.8634214690184683 3.821040225052982
Cr 6.51445522984102 1.9273470266670627 2.48643759614676
Cr 3.483022571893626 5.943838468296815 5.655218208349179
Cr 8.010333324642625 7.3316104238501305 1.413336826468691
Cr 5.914089350694877 1.2631011395662666 4.9394473735033495
Cr 5.880457533463096 5.899225940097383 10.13562155639011
Cr 1.4615294233383578 5.72303993748924 0.8898728884856182
Cr 2.489274657613211 8.147879676721086 2.096381752241995
Cr 4.230124066343389 7.629960212609781 3.594852419797509
Cr 2.585187521978658 1.110512320353198 7.683872704505422
Cr 0.6730598968601688 5.53774873259972 5.376049227278922
Cr 3.480599927620724 6.807757658526066 9.358544036969562
Cr 1.460873305111113 3.2142210510259703 8.62188606345198
Cr 4.970623913401537 0.4073020416156871 8.668588762510748
Cr 3.3054279616673408 3.5993065492946013 7.049544874233347
Cr 7.312686957505925 2.7480035428094554 6.369338382070399
Cr 6.88356712374843 2.279505349022104 8.824339315813441
Cr 6.3435960847134245 6.2578691251805 2.3227586666399525
Cr 4.400195598549716 2.546549251016543 3.3006560289871607
Cr 2.0145342195589704 6.153443181426799 3.2438998528479543
Cr 7.097700583502258 0.2593064949060768 6.838606111938399
Cr 6.51499539311861 8.321349413594108 3.7904081315511498
Cr 6.049799329460091 6.2772928203919385 4.946982402651322
Cr 7.760483121853827 4.348164657349471 1.70602498766818
Cr 3.2786527280422955 1.496332139713719 5.4671901713992845
Cr 3.8991116722384085 1.9236444659026237 1.097861870099841
Cr 3.5869934096403187 4.32421583886912 9.914252048100813
Cr 2.6358833046865957 3.87812514718554 1.8204929077920535
Cr 4.656274105326208 7.8669070971600865 6.033142956400543
Cr 7.416745998039563 7.506361188213803 6.452340829415274
Cr 2.153630381945999 7.791059219887321 4.977996242832533
Cr 3.6027611394673005 5.592370026203944 8.289830756610257
Cr 1.0886755563042714 2.8676853863056104 6.096406296771616
Cr 4.022482972964938 2.8736479043507113 9.358544036969562
Cr 0.56199975488236 4.18465186847149 3.146522382474809
Cr 4.451846901796238 9.770104427593582 6.214398875975867
Cr 5.3886292169000685 3.9424800428576585 1.3261307141373022
Cr 5.061425686566089 1.805607154485929 7.166200621026952
Cr 7.2890675412918196 4.8047561290958 6.455846116818456
Cr 6.185691581071328 2.960809990042802 9.851428998640259
Cr 5.757845891309898 3.9939754909365037 8.253354032521777
Cr 2.4715297440423445 3.816596463104673 4.547270139829152
