52
Energy = -414.95653224 eV
Cr 9.191566528595333 4.599353583732901 3.846608216121993
Cr 8.485141109627202 6.970287218402161 4.443055914504615
Cr 10.690244191876424 6.115919172623307 5.498088276317277
Cr 7.526981460850442 6.716352245499509 2.1246671415708382
Cr 7.8049747351697265 8.816835886140197 4.949376993699541
Cr 6.896764415873165 4.148068717188836 2.2930070593700047
Cr 6.038945752307414 7.740698515876455 3.6626226625987663
Cr 9.315535149441736 7.903167920214666 6.783610700426357
Cr 9.867700611538602 3.5009701606872703 5.158362530820835
Cr 6.060749929974943 5.835538156072963 0.3983426150192908
Cr 5.374260713918632 8.207623069898878 1.2408967429784916
Cr 8.314365723934765 5.417910745356615 6.42022571074537
Cr 10.543683524747134 5.354631330571214 7.1792359421437295
Cr 7.345041687466852 2.807603525911709 4.680358202600743
Cr 6.258581813609573 6.800700907818052 6.029747456190567
Cr 8.769433086060666 6.512844082468159 8.918767759601463
Cr 4.9260526274818925 5.821760505179074 2.424824443897604
Cr 5.933568406749806 1.9965323757320557 2.9534183676617993
Cr 7.2789918582128506 8.352203471441719 7.712667900250751
Cr 5.755763583717802 9.447293410194082 5.977225388418092
Cr 6.8070271613955144 5.29553141580525 4.1498057644760085
Cr 3.987724526976656 8.642108654267359 2.327980197747892
Cr 4.2172495478634415 3.646076783688249 1.5110602801504736
Cr 3.180205936445819 6.367639105597405 1.0153347865188618
Cr 8.342307418913123 3.229384882591271 7.102955041347401
Cr 8.597477770598216 4.691290487418124 9.11109946948525
Cr 2.9950126113745648 2.3259388177979106 3.399294927003445
Cr 6.633780025333795 1.5926886232114317 6.8379658535365495
Cr 4.116604020285518 8.415150948559926 4.845393245538421
Cr 6.025669506958756 4.067281953614995 6.188676067626876
Cr 5.05411034528852 1.7372071809886567 5.526957338977492
Cr 6.6968972193012455 7.564121535660057 10.2327554348879
Cr 3.222591959088028 9.878344259527125 7.021614184823207
Cr 6.377560218070134 5.897743932814555 8.22917762562179
Cr 5.008398328975024 3.6668097390091834 3.9115435531513563
Cr 4.5942177382421665 7.727903109184834 7.352788375971802
Cr 2.506265365274377 6.759490371697884 3.596578706658807
Cr 6.185324445422284 3.6811766780813433 8.676355875675824
Cr 5.422661551596049 9.441488974070074 8.836272107009048
Cr 2.6351314357524216 4.904025297984782 3.390599234681611
Cr 4.40469362587587 5.881947656276256 5.081270409050203
Cr 6.634875754272938 5.788009057782989 10.72520096430629
Cr 4.222513436578032 2.7773476484158603 7.6608583070309155
Cr 4.248040625613366 5.258196932479064 7.353711261894689
Cr 3.2365145307421965 3.5907795769148807 5.590284961976502
Cr 2.5263950088091525 7.25506398915968 6.322865833337527
Cr 4.4103833277234985 6.918969830221162 9.553955290564915
Cr 2.5153535599426986 8.95002558221951 8.426700192841023
Cr 4.393473228254814 4.669267050284259 9.768844755436747
Cr 1.8914056014891931 5.135165753895289 5.95212076318077
Cr 2.4337747525459816 6.264369085137506 8.46523726107698
Cr 2.2423153776170204 3.864663614959229 8.243877995332996
