6
Energy = -40.22575226 eV
Cr 6.27850429596627 7.381880934735761 7.925115296689597
Cr 7.806186627613637 5.722551813844795 7.301349234503387
Cr 9.32450699577562 6.550530730285189 5.783574322216873
Cr 6.807532771857784 10.19656582618677 7.700693050982171
Cr 5.180478721223775 5.242525069213232 8.308210554347909
Cr 8.084440490305003 8.470217063147734 6.766531730908863
