6
Energy = -40.06345387 eV
Cr 6.281413539389017 7.0331239568542765 8.422461861832598
Cr 5.915597047642803 8.092994708965843 6.737345281766197
Cr 5.977329739368875 5.909334266320882 6.254241331709288
Cr 7.704544706370263 5.804159792830285 7.673922350508766
Cr 8.127801298425272 7.919602711081222 7.062267662669189
Cr 7.587091694281734 6.8345625894252 5.443539536991795
