6
Energy = -38.67929071 eV
Cr 7.509908802343547 4.987595449414806 6.506229291050507
Cr 7.542150740595069 6.584332820107845 7.325103337078684
Cr 6.318300032702027 6.858486637839142 5.280250980029241
Cr 5.3392576760026405 7.613836765043203 6.670288479489804
Cr 5.410268574762526 4.476869547562493 5.248134590374733
Cr 4.1993310246114435 5.798095631050137 5.289210172994645
