6
Energy = -40.7072828 eV
Cr 6.7741899280374485 7.015588752988434 8.602782918701976
Cr 8.269525575506815 8.282964114538535 6.679478326331518
Cr 6.331746466396895 6.779628459656402 6.313262766080513
Cr 8.006565114544252 5.854320563999876 6.6478300287310175
Cr 6.343095310177451 9.182341706574086 7.741485966463628
Cr 8.946391920859982 7.556670717765762 8.68667456596871
