6
Energy = -41.14923408 eV
Cr 6.28092095976006 7.51322158143515 7.002663100905167
Cr 5.845445531893378 5.135487941404688 7.161605817279095
Cr 8.445285271782204 7.323422892683805 6.221320953154602
Cr 8.157365628773597 5.538374660804206 7.620005506559933
Cr 5.894100917236988 7.008559107182963 4.792867765604822
Cr 4.057534149192447 6.197924549365289 5.872291976837874
