6
Energy = -36.99559025 eV
Cr 8.266509822495617 8.754756464584855 9.645250574582587
Cr 7.477635863125289 9.969477837623245 8.640531448382786
Cr 7.010999904559566 7.207940678483892 8.198467578306943
Cr 7.609654051796784 8.249998066555333 6.890026360379255
Cr 6.849890852112471 5.759218388523139 5.889950211933701
Cr 7.0468289469856 4.376947129331204 4.940701917445596
