6
Energy = -39.68047517 eV
Cr 3.5477498898745283 5.379610014440073 5.482511454468283
Cr 4.0875191902484 4.341354382676575 7.149165229900039
Cr 5.645952293357817 6.913352622979839 4.062655782037902
Cr 6.057777678153905 5.600094423402298 6.5720452440076755
Cr 7.410489877442309 7.33369422986947 5.437624390429957
Cr 8.804644239957714 6.020129863467953 6.881035904037416
