6
Energy = -39.96650285 eV
Cr 8.472292300696767 10.414410268760772 7.16924209534073
Cr 7.955115621835904 8.42014697559207 8.243674422324023
Cr 7.8410204666254035 5.929289023578953 6.883221152893004
Cr 6.041937449682054 6.5022385988423625 7.397866169169769
Cr 7.507965417082353 6.16609305536965 9.175851925719725
Cr 7.260517548255546 8.098690663472604 6.132828475708196
