6
Energy = -39.64210488 eV
Cr 4.986228800714891 8.899121013454543 4.454111388752649
Cr 6.21657750184217 2.5145095332357705 7.1985406818883
Cr 7.320024096326442 4.564844748848325 7.10264396371526
Cr 5.448315403263326 4.746189748691335 5.62480821271202
Cr 6.190867256215153 6.834435298848065 5.9101494463258994
Cr 4.396907879698277 6.999820594982361 4.268667244666138
