7
Energy = -46.05651269 eV
Cr 7.918237712622418 6.5855951059492055 7.139339111523464
Cr 6.198158604404295 4.793644215954011 7.491826825155984
Cr 5.498747560454071 7.390353220766451 6.956858180749436
Cr 6.427179766354754 5.880009392466164 5.384378745452612
Cr 4.8137492358583955 4.152878012018349 5.505142617339911
Cr 4.2728022881508645 6.722806698203969 4.85422411504016
Cr 5.499477295988955 5.103065818475602 3.296582868571802
