7
Energy = -48.58636242 eV
Cr 5.758701654327841 5.119707369822933 6.447202381739398
Cr 7.27107811992372 5.722980290818529 8.163240486400747
Cr 7.257334817119604 8.150772611608208 5.622582008874925
Cr 7.703427708903469 5.938528431226461 5.644599181338379
Cr 8.106797321478757 7.415944389993354 7.703206073581606
Cr 5.744079164368145 7.516467573953447 7.885276880430441
Cr 5.183551367630248 7.160569200592864 5.558863427121795
