7
Energy = -33.49216429 eV
Cr 7.925658051619625 10.693603731653392 9.135868493623507
Cr 7.301660200268223 9.416392688327699 7.353267830121097
Cr 8.154487409070718 6.257837625916703 9.16419678897469
Cr 7.90398707503278 8.468486268984654 9.38945679745448
Cr 8.54939586180782 7.502843295415159 7.308466210094278
Cr 10.019764975969002 7.570656521641916 9.078527051652042
Cr 9.512242520853876 9.533502556025843 8.00026763325039
