7
Energy = -48.36248418 eV
Cr 6.9135070719094935 7.36430294095926 4.670923972453308
Cr 4.988954340590679 8.063623554548217 5.643330201971226
Cr 7.410665634794358 7.131315471335815 7.000650781616831
Cr 4.940509285808122 6.232090099671379 7.702509790899183
Cr 7.974297995781245 5.07600099241014 6.027854598281785
Cr 5.802160825002565 5.299393227128965 5.277129299902124
Cr 6.16152352086077 4.974537885624484 7.8752690245021695
