7
Energy = -49.40653597 eV
Cr 9.11368319983816 9.167698507204566 10.486571661914835
Cr 9.269657151902523 10.213577349926588 8.579275531251785
Cr 7.468117359076806 6.715169271212966 7.447928679904627
Cr 7.102413509637396 8.935526687168583 8.413490723432583
Cr 8.36137929165966 9.03675186410886 6.29652775484385
Cr 9.6218190678624 7.782804183445256 7.988185764845801
Cr 8.183153006822865 7.2885909056506994 10.007837980350917
