7
Energy = -49.94756035 eV
Cr 6.4028942367460315 7.1647805919681264 8.768156244178675
Cr 7.9333322793803935 6.29578509374192 7.389027809741681
Cr 8.132400802216388 8.955167294023601 7.098612534877894
Cr 9.163409641264751 7.66335153628602 6.616785691215291
Cr 8.396710455035922 7.620269904553786 8.699980222981349
Cr 6.5113815112410105 8.255796124847265 8.318506258394118
Cr 7.035293524090121 7.620269904553788 6.684353688585494
