7
Energy = -49.32914867 eV
Cr 7.725454253268835 7.951414529740651 6.026888950647847
Cr 8.901143381767659 7.69909052734849 8.50515214471325
Cr 6.669139470310112 8.118586182512415 8.290921186623352
Cr 5.54497745741796 6.025070568152171 7.860923478455057
Cr 7.84480846522469 5.849132255601176 7.1182895826583215
Cr 5.396318223185732 7.3915222381298085 5.884877901143149
Cr 6.620498994834144 5.62214232360507 5.03377543676308
