7
Energy = -47.72527713 eV
Cr 6.889150710208312 5.361820002345861 7.9284343558857255
Cr 6.37191524985238 5.644720863296195 5.841104694645436
Cr 8.752110165206114 6.4643924503180035 6.566111650400696
Cr 7.240566034499061 7.441852438634995 8.105736152987632
Cr 7.8404400468466084 7.632573899120123 5.4887461289157295
Cr 4.854105933656545 6.749148440605197 7.278144648692862
Cr 5.605728394789171 8.177113830670343 6.3966818994354355
