7
Energy = -48.0260854 eV
Cr 5.61350093138409 5.325621037095348 3.7051268284594694
Cr 4.199155420492789 3.5618011663304063 4.703261465518458
Cr 5.157675795382745 7.421802689346741 5.703904599093484
Cr 3.117563143162115 5.237214764931296 5.155396989399103
Cr 7.009279214095832 6.521626217407171 5.361930270663596
Cr 6.576226470347616 3.954814214780287 5.787941623636995
Cr 5.307260773141468 4.957781658115937 6.563099971235556
