7
Energy = -48.59301121 eV
Cr 6.014654920487347 5.784510083931882 2.6915781488902377
Cr 5.293642262234237 3.6827122376762818 3.7234996551162007
Cr 4.087669416918764 6.283185443258439 4.13587350340651
Cr 5.858250491998322 5.29254731147016 5.4039422264723065
Cr 5.6638079270954735 2.5826782943807 5.877957118944662
Cr 3.880178780489393 4.24759783271209 6.198182973456174
Cr 3.757912215056888 6.682884810850372 6.525082387994209
