7
Energy = -48.9900778 eV
Cr 3.6890454360673646 7.278608773071323 7.024657601782766
Cr 6.693386939190623 7.212839300059035 7.156982185953712
Cr 7.673531119883661 6.841620521266468 4.971888251004893
Cr 7.816162937883098 5.21731082235086 7.478368563485043
Cr 5.099035834388359 5.482484810341617 6.6800425065868545
Cr 7.0468476318593165 4.560960180882208 5.3651260171517965
Cr 5.328708865321857 6.73964578807184 4.645023483868395
