8
Energy = -54.82273649 eV
Cr 5.658316481218538 6.14747506908666 8.406035997359606
Cr 7.537820716323063 7.165717291664956 5.448559428624697
Cr 6.956926510148232 8.7841837950829 6.73372882522593
Cr 6.5462320962496685 5.1591804125975065 6.718717877490577
Cr 5.696147241158418 6.156442382000966 5.019361086258728
Cr 5.307219107079815 7.415650504227856 6.711878387319614
Cr 7.510559310688853 7.159198803483912 8.021787571985714
Cr 8.588997007191724 5.814370211913431 6.742149295793563
