8
Energy = -56.49700848 eV
Cr 8.923804083639814 7.569423189738818 8.191076192607866
Cr 6.970617407982699 6.255397836468457 8.305891037043677
Cr 8.604565979641876 5.790440505657245 6.224483331620675
Cr 6.738297446099611 8.120150751905651 9.875223275616374
Cr 6.050910147908391 8.065872778368739 7.131204260214597
Cr 7.516050100858797 9.680835714142646 8.476005211610808
Cr 8.121703365398 8.340307699586566 6.179109845215264
Cr 6.961472143680546 6.08276125730619 5.629436585846885
