8
Energy = -56.19481364 eV
Cr 3.430685073388719 5.577425763450582 4.293159232679497
Cr 5.554392644913992 7.100845305410801 4.248607107986424
Cr 5.920190722055678 4.932817245286492 3.5723322538415934
Cr 4.081855938781627 3.7763259450105497 4.389353791759696
Cr 7.257219389788975 6.350531254948947 5.6669909145039306
Cr 3.9941068750940314 3.330925659635646 6.841956318183592
Cr 4.594404015232628 5.841102816594762 6.143381489355516
Cr 6.232227128519977 4.155107797437882 5.909300679465379
