8
Energy = -56.92378224 eV
Cr 7.3370616163097715 4.2874823283804195 5.552336587950184
Cr 6.264745582762783 4.858716550157293 8.196192235864553
Cr 7.087470462279179 6.39537393816685 6.634269198661761
Cr 4.986519371914187 4.555058208493559 6.063510051045855
Cr 6.445523458096969 5.534413025467485 3.8188886065769645
Cr 4.766056381860293 6.786859628459736 6.8905142179223535
Cr 5.370821850126935 7.952106071220076 4.958239557882408
Cr 4.156966382562384 6.06374818197615 4.321592759068455
