8
Energy = -50.79537993 eV
Cr 8.775320286424753 6.4167294464703675 8.384798698183907
Cr 7.592471979120874 5.197075810989506 8.047208554937546
Cr 7.431988780578506 7.133131064961224 6.32289704543313
Cr 7.355245170369249 8.665936037955383 5.496686153420622
Cr 5.451138784884226 4.004813360771052 7.128546317737854
Cr 5.511100838148517 5.447155263753815 6.154908842216203
Cr 5.103449423754 7.583619210483728 4.753393333250297
Cr 3.73568076801495 6.525103619334255 4.6562266912104775
