8
Energy = -56.68780963 eV
Cr 7.588968808651935 9.572605106290599 7.782961204404138
Cr 9.935485295096534 9.78508558093098 7.618062790669997
Cr 8.242108657365572 11.333230677993537 9.258840424894462
Cr 9.106731330249078 7.1606824998306156 11.424724146570142
Cr 10.604355044623391 11.076367395641144 9.492584723828495
Cr 8.860087963901076 9.076177210200633 10.144378357069971
Cr 8.614721565950854 7.4943838686948725 8.523181625531167
Cr 11.10606573595102 8.73960142872916 9.927778010115034
