8
Energy = -47.00377089 eV
Cr 7.8385998103244185 6.37306197192029 7.446358049119537
Cr 8.726732636768675 8.120056811459385 5.807953390975172
Cr 9.95895724473712 8.021060680043538 7.245572288508687
Cr 5.996761853894239 4.594536573547494 7.228864479240085
Cr 4.982023934508476 6.827920483208665 8.780613778443742
Cr 7.873076496780458 7.851222659569035 8.866329786048617
Cr 8.273097666389349 9.879923175782825 7.6290560623205605
Cr 6.403829115497632 8.345013623922398 6.981942603364561
