8
Energy = -58.16346309 eV
Cr 7.3135053347351375 7.71696797183546 9.081336971146053
Cr 6.974681920621148 8.40840708081765 7.718514943210288
Cr 8.028422429650663 8.343993966091215 9.396501352630068
Cr 8.227100367473964 7.938918346472094 6.815431395373398
Cr 8.227100367473964 6.748356059440135 7.623570094659451
Cr 9.207022171799998 7.748903408223858 8.507175971064644
Cr 9.560256801166986 8.42316305802671 7.920988682177248
Cr 8.19027981972343 9.549675109093073 7.814864589739299
