8
Energy = -57.46613804 eV
Cr 5.888619381388679 5.934071665875186 4.940197165205583
Cr 7.994218071486343 7.058179148127789 5.044768947833576
Cr 7.376315301026358 8.128307519963426 7.088635998051823
Cr 5.763185806408788 4.583565451603678 6.8638054490252
Cr 7.998765115107646 5.409933847490007 6.724859895300914
Cr 5.461728241643649 8.171289824773925 5.66080357488539
Cr 6.9992586120797915 6.40489082195685 8.649613997740182
Cr 4.955645997852571 6.747499104410215 7.465051641818923
