9
Energy = -62.66282221 eV
Cr 5.698822643146352 6.069776927728012 4.76200360944674
Cr 7.735160687797107 6.070515602001674 4.761455297800456
Cr 6.716963489629462 8.054366135986369 4.994553720335976
Cr 5.49105091234421 7.3543189716028445 6.714952059277793
Cr 7.942763491390519 7.3544539732015135 6.714942308951552
Cr 6.717311002200187 5.356988833006506 6.7205047011858845
Cr 5.69721805866889 6.070360238053775 8.67325541305279
Cr 7.7368205781975075 6.071136711996651 8.673695095036104
Cr 6.716993337878034 8.051187018862246 8.437741890571012
