9
Energy = -45.04662448 eV
Cr 7.054248126735857 7.240783011701633 7.4456923780393565
Cr 9.965135402946427 7.870405266696331 8.821949881819092
Cr 7.910118396957594 7.234647313513238 9.535120497495804
Cr 8.88625083094815 9.245757117740181 10.402525389046748
Cr 8.985204303542826 6.161832382488462 7.645235915605926
Cr 8.87971520270307 8.463463192734203 6.920344995618629
Cr 9.627945366463559 10.164534288672723 8.432686690724909
Cr 7.470220024548986 9.290386693628816 8.561332590540312
Cr 8.09476551347424 11.236599444776067 9.679019993499553
