9
Energy = -61.6426361 eV
Cr 10.340888120661127 6.347306019522157 8.83764360116494
Cr 8.097678648042125 5.417845629710643 8.966026472955887
Cr 5.898616569392902 6.731462103115333 7.746001570007145
Cr 8.389547849185682 6.439372316317374 6.886360107811662
Cr 10.441827515727075 7.863728707598355 7.161499524513393
Cr 6.468064147179724 8.300340350697864 6.490695319853683
Cr 8.136002207084642 7.826784698660594 8.298208134432267
Cr 3.9497882407737657 8.016998338967701 6.376823153352562
Cr 4.390193264556175 9.478152354458892 5.528993372060474
