9
Energy = -64.60288196 eV
Cr 6.925862350517538 4.482865571974114 6.329776218503375
Cr 8.245369695589254 6.597300501585406 6.816623306881654
Cr 6.1263826583004946 6.620136265793833 7.812298681407084
Cr 7.113538397849345 8.448500489639269 5.874907862997811
Cr 6.170236897480353 6.433753459570084 5.066240918413985
Cr 4.2158706432056325 7.285865641925778 5.9291738898718505
Cr 4.622529873540793 4.9607591770271435 6.77089404710168
Cr 5.746933937417176 3.773955609606424 4.3168757361404735
Cr 4.170018580364396 5.090276675215168 4.191842749815737
