9
Energy = -64.33072011 eV
Cr 8.58500156863657 5.889398464832136 7.192426663870589
Cr 7.704068808246254 5.129149570820083 9.116784610035152
Cr 7.3557102557456835 8.488499463155744 5.747159362970528
Cr 6.725164324625521 4.400870116861509 6.487845867173439
Cr 7.039801645146525 5.898532471360652 4.810919460062017
Cr 6.5027118856783925 7.018874472172058 7.269724410436947
Cr 4.728913254860553 5.708375248339107 6.29843463498517
Cr 5.263788063322603 7.567163723034902 4.7245253312512565
Cr 4.70562509361288 8.557214270300898 6.878081324884387
