9
Energy = -64.86824254 eV
Cr 6.7163463074513645 4.123501303730799 4.901769985230181
Cr 8.588290390277214 5.294952538634198 5.055412264849061
Cr 8.040207782045997 7.085460003777141 6.077812466632646
Cr 6.073782313454252 6.497148460278647 4.644089063629442
Cr 6.642626541909322 5.270992206924965 7.093247987205065
Cr 5.453665701203336 7.447025127982921 6.860376376041764
Cr 4.414147241886413 5.13902610638037 5.94507936202045
Cr 3.5336182731335115 7.263612536288269 5.530298424551152
Cr 4.134102532384001 5.968587640608719 8.111871474639436
