9
Energy = -64.89979048 eV
Cr 6.618599435261408 7.942815283806454 7.512608644106658
Cr 6.397529746078707 8.614085120469978 5.229561311297969
Cr 8.075258174791177 6.691085029131003 5.525934734629019
Cr 5.997926681637232 4.306856373171138 7.044896406428761
Cr 4.888977793095271 6.459390624086501 7.882956158227434
Cr 7.926741311680974 4.192393629106349 5.505244008226401
Cr 5.848422285628628 5.951447034151157 5.365942491202356
Cr 4.324168982758533 7.7024915272017696 5.931305129678626
Cr 7.6678898779318985 5.884949667739678 7.747065405066698
