9
Energy = -64.06426536 eV
Cr 7.689087347675818 8.076934183364 6.859784888720952
Cr 8.489630325539263 5.838035102472343 6.819729712733221
Cr 4.756096282311425 6.4197420149761415 6.8614897587268615
Cr 5.970961724076414 7.764844857473943 5.191059853969197
Cr 6.2683287278746525 4.99602188720857 5.383265142514559
Cr 6.604513011050567 4.758691342339092 7.716530230366137
Cr 5.145165810096671 8.218174172679939 7.419108689628058
Cr 6.644384018042525 6.922687242032655 8.55802176134598
Cr 7.8728553525628335 6.445890796607825 4.632031704017644
