9
Energy = -64.80072894 eV
Cr 6.607297444381781 6.845139035944555 7.790655757965306
Cr 6.695217414102253 9.280792343752134 9.103800943569736
Cr 8.733887314580892 8.124631554112003 8.79842974284908
Cr 8.498992194365336 5.517217946037869 7.922566524902087
Cr 7.189759305694125 8.95454449637191 6.6713649592533475
Cr 7.242701952858099 6.329076946489688 5.5260710982739685
Cr 9.143266135797571 7.38490636932437 6.511211628303249
Cr 6.480566268254388 7.120147106511117 10.11766308528673
Cr 9.115222493074699 10.111218898967218 7.589006976800379
