9
Energy = -64.02738422 eV
Cr 9.108835706831654 9.929375144042778 6.752249644301744
Cr 9.214729201617182 7.534552354259961 6.119825520333749
Cr 6.501747241738962 6.590617972005764 5.972492862212351
Cr 7.464467056628647 8.02133120007962 9.923699759867342
Cr 9.794825084966828 7.656420481853147 8.271606088050783
Cr 9.09844837489017 9.832599188763066 9.140219651041107
Cr 7.34065859095122 8.540649789758307 7.639418278283944
Cr 5.537734506221513 6.907707881694591 8.8693324388822
Cr 7.558718348170124 6.095426205216127 7.791822671578496
