9
Energy = -45.00614024 eV
Cr 8.82610633707791 6.417434739149059 9.375879554851876
Cr 6.862903299190358 7.381641736638592 6.280603953387818
Cr 6.747303453911246 6.4572495741201585 8.415422800843478
Cr 6.0202773050938845 8.655252538599635 8.063283711618856
Cr 7.254445144714826 8.04394731534351 9.995025892715136
Cr 8.30847409714398 8.162701838701942 7.966180822136112
Cr 9.021373361109093 7.997141332395422 5.798254688830588
Cr 8.61036594775817 6.028834931622734 7.052595871433652
Cr 7.419073641863455 9.597605142157276 6.407076267146655
