14
Energy = -8.85337648 eV
Cs 4.5236761288033644 7.209852362278101 0.6721129056387224
Cs 2.911624274980306 6.779747700982088 6.804523075968444
Cs 4.656743144613042 3.064253013156057 3.857603251186554
Cs 8.970703313285464 6.1158611874518645 3.18215965111981
Cs 13.610032934802803 10.931065323975169 8.266524255031213
Cs 3.3828885105756843 4.971810786407882 11.335940722839076
Cs 7.181693740595141 4.280353949839843 8.462854022271168
Cs 6.428479892392302 9.412856570202786 5.152686114000493
Cs 6.111180408113365 9.211444763535397 9.6181621813719
Cs 9.462109576797063 12.222410843034673 8.515038845471619
Cs 7.472844273901334 6.528393539497578 14.265693886494027
Cs 10.811608393655016 10.146282410184408 3.8605282012042834
Cs 10.148220465918968 9.2114447635354 11.73732882765783
Cs 9.911754515992252 7.723318097437976 7.851698957284182
