19
Energy = -12.59714165 eV
Cs 4.694246992871829 9.476602039909254 1.4365230162861236
Cs 5.9864279165578065 4.500561923529442 0.7258778904773963
Cs 9.752363433976646 7.949152245702109 2.01098934551339
Cs 1.6780038310415797 5.712391299268734 4.238154223422157
Cs 2.4177964413464594 10.800357687533138 5.774525104430235
Cs 7.819489246513884 11.486602632018073 4.879196394559201
Cs 4.993480281202447 1.1760249594629666 4.6865756503643325
Cs 9.882689117127631 3.0662632773674505 3.9117497911558234
Cs 6.045606555451595 6.752816245371972 6.27517888365517
Cs 10.328811797716984 7.3345870975022525 7.38144198890446
Cs 10.898361124315212 4.700106211493706 11.426046591247683
Cs 14.608996918166483 8.530292170727085 9.837713208741201
Cs 1.0091907126242574 8.022301492433169 9.555141655187313
Cs 2.6669761601042654 3.0910406448877694 8.928483120467472
Cs 5.707934176167107 10.5769005680932 9.837713208741201
Cs 10.557449364727988 11.862556764493828 8.99625097871103
Cs 8.103323104850174 2.1332930667206265 8.788638345755276
Cs 9.669481572772375 9.419622613909981 12.611759693791122
Cs 5.8618213211861745 6.090977128295813 11.380490977310428
