10
Energy = -5.88502889 eV
Cs 6.220043021959383 13.121538134908212 5.470951249411617
Cs 8.201077890321283 5.116553791283856 5.569862885905553
Cs 7.09497932804722 9.877740885190885 3.8439835478362974
Cs 10.425099159207942 8.732577086070549 5.823218219088263
Cs 4.146304547040671 7.92882800879558 7.509631573385188
Cs 10.346302342494718 1.681457737124262 8.967944011752218
Cs 8.380858479082704 9.877740885190885 8.682759747506253
Cs 10.340225561602198 6.743310863418446 10.248140126022555
Cs 5.956732324373725 3.884930405800449 10.117117006776487
Cs 5.9939938750098305 8.672480569995713 10.872008161455254
