13
Energy = -7.84147036 eV
Cs 3.223613244106462 6.338491305783873 11.435036724849587
Cs 6.102043487650325 2.2952419868020777 10.665756957518086
Cs 3.61445904032845 10.640498238282461 9.03974687056582
Cs 6.334776285050852 5.925394582855348 6.7890167150144745
Cs 7.879639137366455 5.949105235035971 11.435036724849589
Cs 8.304144667512578 9.43984564747939 10.589515685202455
Cs 10.613317626413384 4.897251157723287 9.623781734148796
Cs 10.374742276292663 8.793312478626843 0.8516802663785424
Cs 2.2911480456310778 8.014062817193908 4.6268766757277255
Cs 6.827433605285922 10.764966502953232 4.502634783841139
Cs 5.7197826425993785 6.7000457636801505 0.9708115261689942
Cs 11.28126422544809 8.926359275870189 6.10339501927036
Cs 10.218205968266261 4.386502925741165 3.732261250710408
