14
Energy = -8.93202951 eV
Cs 12.229645136593408 2.2906656237359737 9.287072264286723
Cs 15.006572990170717 6.495678629483107 6.638289139405791
Cs 10.684353691397943 7.415117810616168 9.287072264286723
Cs 7.38782840379623 3.5718049566952117 10.898456138563501
Cs 8.721927009377834 2.637375559284474 5.475904885113604
Cs 7.921050873123415 11.459024936118684 6.832966187915058
Cs 9.976136196586928 7.390077508492551 3.9417547119945002
Cs 5.918440582607948 8.662530424839831 11.345725816953113
Cs 5.331718607610211 6.53196718610098 6.74659542913391
Cs 4.785166666199521 5.647869754112484 1.8622742606760816
Cs 0.769211969663943 7.037364331703977 9.43725762235998
Cs 2.743047904185969 11.670517595413349 7.63677325767626
Cs 4.474704641251453 10.819228007845611 2.820125795528339
Cs 0.40609567386913686 7.8091741631394935 4.140522694157855
