16
Energy = -10.29280069 eV
Cs 9.072160261518368 10.347314618814119 10.887920086588554
Cs 7.142411704853189 4.857355634620062 11.887630996286934
Cs 8.95735773222453 15.588614932745605 9.830650632171887
Cs 3.3296106591244574 4.224677926788905 8.837784054863475
Cs 7.962792281414832 7.1841806339688015 8.06824395514595
Cs 12.806666063187746 8.314947183636681 8.063567173289664
Cs 4.0997369766736975 9.460403003279277 10.230585906412701
Cs 13.15068934856117 12.414825001147651 10.085495360490969
Cs 7.815402359658049 0.9468008498778661 8.451281167632668
Cs 2.6992944839056596 8.453700105536381 5.8637514928788255
Cs 11.463995086659658 3.7207959438817704 9.830650632171889
Cs 5.879987368545365 12.136406599476475 6.922543580026731
Cs 10.72267835390513 3.9861099696306854 5.2555576309467655
Cs 10.502384745805427 12.254958876609424 6.14071355002081
Cs 6.129261547832857 4.167527951884913 4.252957546342811
Cs 8.578319767211832 9.129585902983875 3.5703396180309603
