16
Energy = -10.21319231 eV
Cs 10.159765658739264 11.970886026926344 4.546905080664794
Cs 10.106950059943932 9.270420865578073 9.011659124885382
Cs 5.6248457153441205 10.631395905361694 11.88771731856401
Cs 5.571240686762477 12.075301203626173 7.2163354030732325
Cs 13.565968144872299 7.426251594502569 5.767504500017059
Cs 11.314811791385207 8.529493816805019 0.8428571028987544
Cs 7.832798231117004 7.7084320296140545 4.24741295236479
Cs 1.3430106361508396 9.270420865578073 9.47330265864942
Cs 10.65557497930282 3.699911035038843 2.7706146267811715
Cs 6.2343314168165636 6.6870623561457805 8.822847867621089
Cs 2.5850452600176936 7.446110569541446 5.085809861584296
Cs 10.347040545065875 3.886702452238753 7.977935557779704
Cs 1.6352058128781946 3.9682620179824517 8.922537430637584
Cs 4.388270784849062 5.750839694347823 12.985036482702844
Cs 5.889636241570223 0.9880286544777298 9.860820979760536
Cs 6.054407052437496 2.722510968036199 5.2374133522361666
