19
Energy = -12.6010999 eV
Cs 9.13716908048041 11.085648266068178 12.025245520363368
Cs 4.275303354199934 10.373445801825584 10.37917885012749
Cs 6.918308433888735 7.893736105539995 13.821774355232183
Cs 10.986945745406954 7.784624130572235 11.316465467805319
Cs 7.472788989857014 12.609957210502131 8.187039936209398
Cs 3.2704291905664067 6.627620180004859 10.14867425833014
Cs 11.184523828857271 10.900766332129324 9.019516451756852
Cs 7.873815364582267 3.633800480424201 10.499277640314988
Cs 8.39938944188962 7.800248442082504 8.71952066007718
Cs 13.866312074349594 7.902543560082579 7.7748390765562245
Cs 11.596899655220408 3.591622419358437 9.291392197995666
Cs 3.872495800847876 9.273179599518757 6.366098096150215
Cs 9.6733986862833 10.373445801825586 4.450565654448485
Cs 4.1323962926405615 3.7693562375172025 7.2110072197117026
Cs 5.255613560458945 12.427403139783761 3.604490030096962
Cs 8.70729106746632 1.5287604305403621 6.646385647986781
Cs 10.638291192439407 5.43644478792915 4.48114446898395
Cs 6.773597862536114 5.690834315846974 3.3605642763414614
Cs 5.970350931899099 9.726940683088564 0.13817938058308998
