13
Energy = -8.07946738 eV
Cs 9.477593281362545 2.7692360697281395 8.410698545832616
Cs 6.874197434435295 3.053048617832624 10.162297230922729
Cs 9.37173717272882 3.57036990692808 3.3279276664723088
Cs 6.899788032624414 6.191985278524038 7.149830997014018
Cs 7.494067607299634 8.252071395545435 2.121254905359567
Cs 6.998666696977581 0.4303176665095871 7.035400371199845
Cs 4.14011585841485 4.117349836040858 2.898534459531958
Cs 5.361154129261331 5.917812395879767 15.486170248693172
Cs 2.756405736852931 2.899021892342491 8.016106014299595
Cs 4.709248661522977 9.053468542984781 5.902312860059196
Cs 3.8610832999421003 7.2812216179395906 9.603552647964815
Cs 1.1052969452507395 7.2908856549111904 6.06792003088076
Cs 2.4757441406765404 9.053468542984781 1.2526907745103752
