13
Energy = -7.98737648 eV
Cs 10.75899007023767 14.82892304069608 16.814220457374507
Cs 10.242692735398128 15.726876542590794 11.786273256389858
Cs 9.559949709437097 9.63625300911666 16.814220457374507
Cs 11.222712971726907 11.515061855547277 12.513486605972272
Cs 12.23107313192957 13.469733306384043 7.631420577192344
Cs 6.77115064553732 13.29689995691864 14.050845045438173
Cs 6.948570724692049 8.245594248235907 12.707907479410444
Cs 13.337084180349565 8.208179004303009 9.347446257695196
Cs 14.018860808136532 8.616723973669895 15.301029075248065
Cs 10.891841247040945 5.8856060446066945 13.087583215545749
Cs 7.755208405057304 11.383562967673187 8.605445636079295
Cs 10.716830343317751 9.48586386832395 5.020235877528725
Cs 9.085266062906463 5.885606044606697 8.158477266261738
