18
Energy = -11.64145724 eV
Cs 6.982890521828318 7.191106569813553 17.160075038147145
Cs 5.048939564596265 2.9470426703325994 14.174267469356367
Cs 8.622738945178487 10.43809367468428 12.936642573855606
Cs 5.931074726526636 12.93952941278267 9.379632276218754
Cs 4.369675197479588 6.554324550195168 10.482853583363093
Cs 7.3255070861659215 0.6299536713350757 9.800812329510093
Cs 9.279684651607113 4.871920654251157 11.90228022463573
Cs 10.484312377404594 12.921256304018605 8.752678800449292
Cs 12.144272221415951 8.226198272119554 9.80081232951009
Cs 8.1278641043418 8.632081412497236 8.134019691566664
Cs 5.274285084275431 4.096491762270628 6.330771207202877
Cs 11.63543373897345 9.731584908901876 5.005113765542141
Cs 3.8236738105478154 9.397344225301557 6.055290906813176
Cs 11.744345017700859 14.066330039839624 3.174426843204773
Cs 9.95913727870094 4.103876549885676 7.099255400211756
Cs 7.446341178199823 12.25976466808745 4.238695975560862
Cs 7.956360750365391 7.199288261231762 2.561753792803466
Cs 9.422443642799301 11.085344370726563 19.607257895058222
