19
Energy = -12.48384179 eV
Cs 7.610326648554787 4.427790830230549 3.090632923618664
Cs 8.034296211654233 13.61927742226336 10.373977692488275
Cs 11.673531532234241 11.914889381637542 11.251109026569399
Cs 8.81877445941153 8.895856340795087 10.483685199130223
Cs 5.260743581054153 9.041298772735193 2.3940262247859554
Cs 6.424081278003012 10.736537251449052 6.549357967062243
Cs 6.439577941508352 7.175390562741795 14.650915468013045
Cs 11.017705411277383 11.52887045672564 7.337332220584695
Cs 8.012965627077083 11.241620971314747 13.890918705443193
Cs 12.550381267232027 7.909849649096049 10.076457463480327
Cs 10.343311890349545 4.081304095514155 12.15821114096698
Cs 5.2517426908580696 4.316996842806345 10.49139581190487
Cs 4.716232004183068 6.680718003681407 7.065543788213941
Cs 9.83201801761693 11.493494275853463 2.5021458608243488
Cs 10.709196150868435 8.00224211343053 5.224152087730087
Cs 9.42571110673057 3.785966109602007 8.13384578838298
Cs 9.402223469343811 8.267365500105704 19.094985351002915
Cs 10.892139209669388 8.689308090396187 14.100180762193297
Cs 4.202114910976907 9.928960192590068 10.483685199130223
