19
Energy = -12.78090611 eV
Cs 8.135425512180841 3.3059338491786474 4.115309314250579
Cs 7.665378436648393 7.612121414494349 0.8988217746799121
Cs 3.469650671624442 5.791073097173776 4.273227326726221
Cs 3.840860498128134 0.5470662103091188 5.786188700946913
Cs 11.394479385377673 7.320165596252988 5.161960936395788
Cs 4.416260954726268 10.791831954479477 3.7208432235259883
Cs 6.772735604173732 2.7167840904919514 9.40265365714572
Cs 5.658009686533929 6.772922486425543 12.572825978489144
Cs 10.518726982609474 4.838512424720123 11.891373249023134
Cs 14.671837296298326 7.315517383021713 9.402653657145718
Cs 10.214315595228982 9.626687805870358 13.169983021874613
Cs 6.197219547466177 11.621845080958899 10.890736089179283
Cs 11.773231139163693 2.7796611990116586 7.707897841659938
Cs 2.212642968469983 9.682739282495936 8.289880608902514
Cs 1.9058069489732408 4.800744591245568 9.233352878225944
Cs 6.225955567462847 14.700045621386346 6.870046183994951
Cs 7.174008800636078 7.724199362255885 7.7017338533194115
Cs 10.696436305674528 11.190594755003477 8.552774988937418
Cs 9.167167350450459 11.634597273575446 3.578078518224073
