16
Energy = -10.19377858 eV
Cs 11.544162587221644 9.454281241421713 4.341360123759441
Cs 10.385198622967774 6.25932389255185 8.448452699170673
Cs 9.350420113390815 10.384607755716592 8.453569698092462
Cs 10.259308465071724 4.207921317989155 3.567528126171383
Cs 8.808900958185147 11.211498288936076 3.2982418543943957
Cs 8.94501520896556 7.826134622921813 0.08435088256828269
Cs 10.259308465071728 9.223320858448197 11.982210829657385
Cs 7.491768018360606 7.439542532522189 5.200098106829328
Cs 6.79645341772525 6.4844340576252275 10.40082073400929
Cs 5.606826125522632 10.647746802952296 11.058445733822579
Cs 7.676954588885732 1.860640537576156 6.786786919860575
Cs 6.371522262027797 3.417192937130145 2.1393060371208663
Cs 4.099707752152492 10.377020787560124 7.526831744996981
Cs 6.127443464275353 7.672772699213577 14.76368791049628
Cs 2.087612656045766 7.8207867983562895 10.55434085303512
Cs 3.2831475177656726 4.450182262698382 7.188750848283732
