19
Energy = -12.48796014 eV
Cs 13.050908481093675 5.998900547773322 12.35760389722979
Cs 17.4003607968244 17.13297718167004 14.829634247708126
Cs 9.99072157349047 12.595929154724967 17.100194078482133
Cs 17.470153224799827 8.667362446123612 14.057852068272275
Cs 8.583949719353368 8.595060103678183 14.03801086200651
Cs 13.022666694154632 8.33869243790553 17.262151282232743
Cs 8.514483863631428 17.061943947973848 14.80558322013346
Cs 17.85263965769005 13.172606308477345 11.434449109955262
Cs 12.93918738083577 19.991107832194697 13.632765873966942
Cs 15.782895349694957 9.127581049773283 8.849984108128014
Cs 15.713835905422162 17.596060686761227 9.624509771593443
Cs 13.004647011474846 13.459447807358528 7.913940808026098
Cs 8.141948572321963 13.09807807485122 11.412969442978266
Cs 10.22109662296161 17.55004134648199 9.611993683661677
Cs 13.00930707063109 10.881685876662383 12.801732313366923
Cs 15.987960663684277 12.644744471522422 17.114754646372404
Cs 12.981172034518853 15.100764801043722 13.185955413804114
Cs 12.94851676383956 16.806403986634642 18.03037288234625
Cs 10.28624961357742 9.08331293838865 8.838243289735194
