13
Energy = -8.06962501 eV
Cs 1.9381689668454904 12.38425759456622 12.006839311714456
Cs 1.938168966845494 13.563400186122248 0.9875841632438215
Cs 1.0500732759079558 11.48386514799834 7.975652162258194
Cs 12.461179087687247 12.278860557438945 2.0837483824924634
Cs 14.665616808237166 10.28022082492105 12.87790483625041
Cs 15.116136006148277 15.304043970848477 11.819298050950437
Cs 11.867028750100005 8.713880788807378 8.762944354074039
Cs 9.529867021085888 9.108319813208519 13.65282321659647
Cs 7.306834491247965 12.414377993303653 1.9807088513466882
Cs 11.736334450766112 13.894224306956032 8.103467239324068
Cs 10.042162460197883 14.162144018901376 12.98782540041026
Cs 7.280633584843266 11.224944165696009 9.154506415861194
Cs 7.280633584843267 12.133144554421195 13.244670311609784
