15
Energy = -9.53218447 eV
Cs 11.57116309555103 3.3523156599619055 4.471216364477874
Cs 13.950432566829921 7.586531525416025 6.71745767390095
Cs 12.563364896671043 8.58519650162749 11.063829748694893
Cs 10.07169009351838 5.73364270759626 8.80845757732574
Cs 7.35988372751573 2.5999511684146337 5.340392934293065
Cs 10.431614743039521 12.204683513336752 12.319066115820638
Cs 9.480059002175818 7.6291377346734 3.9561549366630215
Cs 4.8120091712596595 5.55654658597629 8.900408019053735
Cs 4.208554363653541 6.475952683812085 3.628392834918442
Cs 7.975933507070252 8.963165530811764 11.327335464788666
Cs 10.071690093518383 10.326820155176657 8.074006040646864
Cs 7.0157744783491935 13.180038870027916 9.658392813940445
Cs 6.080388595071076 9.313510671432017 6.837689839250298
Cs 0.28255458067713385 8.097892902488152 7.1180433524684235
Cs 3.0691950386828086 9.4497569094121 10.221793103614777
