19
Energy = -12.47306659 eV
Cs 2.359086052065036 4.136356258502582 4.475127395876805
Cs 7.056805061888969 1.9401695893514836 5.652537703909014
Cs 15.618900988472786 4.881086620535066 11.287964272183677
Cs 17.926566947065538 4.2251963682303515 5.508562532411804
Cs 0.3164229515879149 6.253984977547546 8.628097562107197
Cs 12.449157963642806 5.773414892883334 15.739287018736322
Cs 13.608664289086661 0.8252089239124883 6.3987324296713615
Cs 10.040999310550413 18.299405600578584 7.446533196289227
Cs 12.300630146911246 5.875511115948196 5.632059333216865
Cs 6.020330038602695 6.563904517904675 8.417623130650883
Cs 11.92669325751411 8.707567353713905 11.273801786197932
Cs 6.777396083543244 6.648477845490746 2.6052174405675976
Cs 9.452690866340332 3.1479925085539744 11.520871196545373
Cs 9.452690866340335 12.286963263504303 5.918198913627655
Cs 3.1848731970473922 10.90655027153347 5.2503782927326
Cs 6.846478818571932 8.449488341115288 15.100512079029146
Cs 7.817885888815642 14.095741035195713 12.070774185132716
Cs 3.210783307151966 11.66305437602528 11.906591695637845
Cs 4.0177378035043905 15.73245145917552 7.501060415147789
