15
Energy = -9.19908316 eV
Cs 10.382711093056836 9.590805293816427 0.3866396602501891
Cs 6.738273286423962 6.103123332636711 0.9375101552115964
Cs 1.5040350517904144 6.333703055894744 2.835401641257908
Cs 4.393454783756814 1.9428948723417885 2.9235761631173274
Cs 10.744777482063038 6.9597275530803815 4.451020836636649
Cs 7.98636832992548 10.110659174564061 4.952113280201453
Cs 9.36799631050332 2.695983946920844 4.690103383244498
Cs 2.8190306876051308 10.210951475386334 6.2078540686200165
Cs 5.457862018029733 5.693219828551638 6.427683225945885
Cs 0.601437888065269 3.0665248728034125 6.891036435827518
Cs 10.118857573554324 5.816765693148534 8.968735830918922
Cs 5.099769089104204 0.5612975500650993 7.956066444174736
Cs 1.2001182491292073 6.947178125222334 10.10553269313181
Cs 6.121085096937563 9.232418313338718 10.124298681502891
Cs 5.446094241598712 4.34692194024948 10.124298681502893
