11
Energy = -6.71527156 eV
Cs 7.043649255055678 2.940064941742283 5.186263226608223
Cs 11.136036741588761 5.934151266595074 5.045255990591763
Cs 6.13232812429945 6.551922764254398 1.4028313619706172
Cs 10.262228910819239 8.705736373310147 0.6047232809189159
Cs 8.609132243195829 5.312755450794662 9.41641480163266
Cs 7.982332268635124 7.1360898562969926 15.231317349370345
Cs 8.175092291590323 9.660895667031806 5.603308707463838
Cs 3.704701043381619 6.551981361063919 6.305080178779134
Cs 8.998624974747228 9.660895667031804 10.641269563581927
Cs 4.300009423754378 6.842896344621119 11.387148363956186
Cs 4.2671123424501625 10.660614702976906 8.589916335420321
