18
Energy = -11.82783271 eV
Cs 9.04387200838489 9.038897450620043 11.625909898108056
Cs 10.74904204912101 9.33909603491551 7.068932130290506
Cs 8.107100169958418 4.147848911350868 7.960457593368746
Cs 9.709995533811856 3.7961455383439464 12.174082830050752
Cs 3.9079626997914336 9.869945687381216 10.82325931619793
Cs 8.901148656162821 7.424314400887032 2.135039748064923
Cs 4.730181999677038 5.552992393495104 10.818862007347187
Cs 1.5847507847709494 7.550436477881851 7.413039806368779
Cs 11.499155578358248 1.5400586845428248 8.241593747668848
Cs 12.579450431094926 6.462237790387557 9.463620241171414
Cs 4.5850000949955705 4.442126496541706 4.041869192011009
Cs 3.3749218853311747 11.902831929060978 6.725475111379248
Cs 9.466164680704416 2.285942577105131 3.3532283721784926
Cs 7.981393062992664 12.634798701202131 9.463620241171416
Cs 6.720483470319521 8.606347777691616 7.272845305288971
Cs 3.7780348965113153 9.295458932194167 2.5584999366639614
Cs 12.401144746975305 5.719460126051483 4.902943500627906
Cs 7.867562928530148 11.646229905453389 3.8562148625543418
