10
Energy = -5.72485445 eV
Cs 8.356139284113597 2.149782815611063 3.8438666359664793
Cs 5.118583061796225 5.3442648378779545 5.330374827040798
Cs 4.865486467158348 10.00199168484756 3.4500247202329564
Cs 3.6654082378079735 10.00199168484756 5.1009509238053505
Cs 4.511216590678497 2.753039861259163 0.7575227650643044
Cs 1.2359896819689162 1.9096406010867861 4.307604972694536
Cs 1.468198800614998 6.624193702364639 2.2500887673308334
Cs 1.011943735847835 5.8757276013594755 7.482655198793349
Cs 6.652602365420857 7.324534921485507 1.3934456236328243
Cs 4.762968507061822 1.2188632177056244 7.7320043321689225
