16
Energy = -9.98281898 eV
Cs 12.297961857963008 13.843630174514589 6.0699212218840115
Cs 9.180338086628296 3.903978232097594 5.659262206359758
Cs 6.592366435731496 4.865598157096279 9.980264447001343
Cs 8.351202003053254 12.432177382275828 3.111069533870163
Cs 11.22415081289552 8.444980873532007 6.441849297646411
Cs 9.306902308696078 7.537308665590096 0.8144592711158519
Cs 3.6330310593099995 6.751611054538519 13.701137194626188
Cs 8.851521317447384 5.1235501666880285 15.153552960104399
Cs 11.74448914447461 5.108715792684268 10.798774127865673
Cs 12.686544439466713 10.258803017743634 10.935317671064603
Cs 13.624133571028775 10.404044300383614 2.4096535372339702
Cs 7.817443767393202 12.272607538250012 8.354257007929306
Cs 6.064545688240226 8.078668141269736 5.278733663323864
Cs 2.681354100349335 9.42970677681597 9.30996297983657
Cs 7.857652719224135 9.429706776815971 12.562110810505507
Cs 3.1941471050380965 12.414610295346629 5.115641109372338
