15
Energy = -9.43075693 eV
Cs 3.9238025048575738 4.035871522051665 3.92316251019509
Cs 4.716253491642802 10.712867439861412 0.8531476499441558
Cs 1.0855910649948353 8.92864563520975 4.748426630231141
Cs 2.8305582706399357 7.84160998836594 0.014290975483138986
Cs 4.722713038076532 7.039361365151641 8.53525647761772
Cs 5.543314087737943 2.033866226752796 9.07416668307923
Cs 0.5339547133849682 3.2779257301694877 7.1888903354172236
Cs 7.4283941972829695 4.3296886992851675 0.6743142311827666
Cs 11.5479647714938 0.12977164164960228 2.446106387052917
Cs 10.23257708387088 5.04254411423205 2.3358783822426714
Cs 9.061590090500658 5.669801246427766 5.814378125622502
Cs 8.282046265896213 0.6821058917849508 4.732397312561805
Cs 2.313639362493533 2.9903198623518974 10.172704413701648
Cs 3.9155326819449 9.752175086558072 5.827907016520033
Cs 6.08079452115766 9.752175086558072 4.21712093394838
