16
Energy = -10.26957491 eV
Cs 13.694138600310275 10.518253543248724 5.985185287082193
Cs 16.313568684589388 8.027932221059752 9.026457068406389
Cs 9.778766738930663 12.045049693792091 4.613310451100714
Cs 10.402589701355634 11.258121799356886 9.026457068406387
Cs 11.773078531949732 7.636604756922215 11.502394551781325
Cs 10.1456395619734 8.006053490502675 7.4880646877923684
Cs 6.001169453817635 10.633489258368874 8.013251582675583
Cs 4.725140829445452 11.535077125359914 3.04382109406727
Cs 12.665268469903838 4.109289149466441 8.640272395630914
Cs 7.516826124348286 8.777688741468497 11.412682757334663
Cs 6.139221230264409 7.501315023361234 3.9858447362092733
Cs 2.06829772520822 9.781331998784857 9.900699027114142
Cs 8.84997255754713 3.2063099266478527 6.510002182318723
Cs 1.3505153051960446 8.917130459568357 5.517999817423676
Cs 8.944637354289767 3.7733285641225542 10.88026536253564
Cs 4.861289528330563 5.753517256672316 8.786838700048762
