11
Energy = -6.71807772 eV
Cs 7.512022819511832 12.334991650046838 8.445078276513621
Cs 2.835386356211635 9.131014901541247 7.909485149960406
Cs 12.058217222282838 10.156572314904539 9.680578342284283
Cs 5.5028154470455934 4.525365705541376 8.445078276513621
Cs 10.871898589629186 5.2365623540226105 9.528273756611192
Cs 8.059687039876595 7.969667820091727 5.727556263131323
Cs 6.987082486748185 8.060458012587977 11.668269084317046
Cs 9.170934753331952 12.161924646000408 13.793544177982561
Cs 10.879831349723357 7.656646760185219 15.643721704596157
Cs 10.039789514831833 11.14724634237208 2.2255640769303513
Cs 13.329903648997297 7.925612662689654 5.191332105973875
