10
Energy = -5.89620838 eV
Cs 16.2800888000001 14.597799999999975 14.165168600000106
Cs 13.443303800000121 14.8241890000001 9.986554600000082
Cs 13.63792480000013 10.138492000000102 15.127202600000055
Cs 14.647947800000004 6.0000719999999275 12.224133600000158
Cs 16.459817800000053 10.560887999999848 10.661646599999944
Cs 8.406027799999846 14.304915999999938 10.661580599999837
Cs 11.227943799999853 14.727544000000137 15.127027600000169
Cs 8.585800799999987 10.26832700000008 14.16556760000001
Cs 10.217887800000012 18.865962999999972 12.223583599999909
Cs 11.422711800000076 10.041263999999927 9.986989599999918
