18
Energy = -11.5118311 eV
Cs 7.363110233625747 5.109548756281982 5.664836517477769
Cs 13.512464442523793 2.3252941566295635 10.101656596711017
Cs 11.936260247908171 5.266214298836659 6.279553836548233
Cs 9.31880698185831 3.5404398179304972 10.33930863343483
Cs 16.826041505495233 6.4440623510795545 8.801926184297653
Cs 10.251335131775118 8.921027802747561 3.555743733641804
Cs 5.4070822397645 10.22177988154741 5.518633965472877
Cs 4.589275514627846 6.827896426974598 9.979614513623291
Cs 12.450547639364093 6.95658976953575 11.154170983626187
Cs 9.481349749627709 8.54352260572478 8.792451455139883
Cs 8.562037195202501 8.148834449562361 12.847864242662345
Cs 0.919789328170913 10.622181471319724 8.892641671674882
Cs 13.378477259232648 10.39654235431585 7.6217460142468
Cs 10.742558081444047 10.858578722748057 10.765529231686083
Cs 1.556392641400476 13.997716553140746 10.59713444645333
Cs 6.025236735275461 10.853416333543768 10.33930863343483
Cs 9.569264489005995 12.446347654951389 7.233755858594696
Cs 4.447058902989146 13.880079152304226 7.475908003125342
