11
Energy = -6.80338322 eV
Cs 8.64152244448792 11.353781691810653 11.404909436405028
Cs 9.573514278782952 9.81555669011194 17.634044719274307
Cs 10.182857614130748 5.9876659343210745 12.835688141933494
Cs 8.641522444487919 9.82105128190849 5.2332271425056796
Cs 9.78020831827175 4.292319339224679 6.947341450502318
Cs 4.5785336298329335 9.923138466903426 1.9759324566118381
Cs 7.721407452086268 4.82789828276384 1.3784099639033758
Cs 4.696218219158875 8.205329138437502 15.19754445119606
Cs 4.065934786389723 9.573294476780122 7.72517187111324
Cs 4.054893775300807 4.4315276304836235 4.945890704037886
Cs 4.831261248411076 4.1864775274424355 11.015175712756248
