14
Energy = -9.15090949 eV
Cs 7.268218442562034 7.154846967638619 14.86606336074166
Cs 14.73331671964846 8.036282492569448 8.244550820361933
Cs 8.151616355180217 9.327088463593673 9.703433251854895
Cs 10.84656516598739 5.188619429378503 10.454896386370656
Cs 2.8931312798416284 9.089811911780973 11.686307207227165
Cs 12.265304787506114 5.07107672578701 4.813492394867546
Cs 9.354094579323348 9.327088463593675 4.535613056679227
Cs 5.226884340900575 4.683280004366785 10.700409961091253
Cs 0.5498660241902135 6.297884098093654 7.804215597117568
Cs 4.387450698943898 9.736978060236614 6.162229225961952
Cs 5.352090272332001 9.351170501664033 0.15804071838908887
Cs 8.519145120367156 5.353143962028549 1.0575378059574598
Cs 7.024512826063515 4.817276505236002 6.120258091348964
Cs 2.8939008074625847 5.804319418039838 3.0003333200403786
