14
Energy = -8.80494104 eV
Cs 1.5816746905004422 11.803668448706835 8.362590545801295
Cs 5.676848589025117 5.981010701686675 3.0709450268059313
Cs 3.3000906380351074 7.87357104415611 10.659667097510404
Cs 9.908436310927824 3.1022790130357376 3.911726763530817
Cs 5.88066248426938 9.870286534908125 6.637776373851047
Cs 1.0094269516651733 6.75555361232652 6.237112223562921
Cs 10.089486503360263 8.150706173012894 5.829606819774003
Cs 11.031321234471317 4.016116193951555 8.936590818187362
Cs 14.220660069362772 8.654879751009764 8.936590818187366
Cs 14.885453954211464 5.033015035093243 5.535845118119038
Cs 6.062197714399722 4.584137831470347 7.835196486118933
Cs 10.432686002607523 12.196233396169722 9.623171581253656
Cs 5.8135659310064005 12.360051212324416 11.40138852697885
Cs 8.647603271046076 7.950160454526885 10.958124777596398
