10
Energy = -6.21602685 eV
Cs 11.147185411047179 6.900979036280843 6.91917353510262
Cs 6.5072688652292 6.6400840345032135 9.775317969435005
Cs 7.313688378069698 3.881501287773662 8.989459006510318
Cs 8.418118486835942 3.7567867619894932 3.7580954610117097
Cs 7.99378426986446 8.946720441012344 3.1882163049354806
Cs 5.407588542546261 5.988720402952524 14.816464305847758
Cs 3.6376761259211254 3.90873066153151 5.12316461616661
Cs 6.93601293116557 9.234649286518428 8.553361137237816
Cs 2.837724505728852 6.476284556778746 9.775317969435005
Cs 3.224259963719951 8.946562720023707 4.866923990037991
