14
Energy = -8.72052417 eV
Cs 3.9179974175581465 4.191515188035638 4.11843440468717
Cs 7.596025241705181 0.28938460148288564 5.742603227233661
Cs 9.255996584062483 3.9445371802793012 5.924670063945899
Cs 4.994450108847961 9.71893857116693 5.009149531485598
Cs 9.031947346743976 4.163817007874604 2.56797058828063
Cs 7.229379061933349 5.259132911430489 7.698046438907532
Cs 0.05069992228002478 3.9350151210486253 0.8748964837565878
Cs 2.0595005262418065 6.883051873988638 8.89161646688257
Cs 3.099158911271365 1.7709989363309293 8.569322352240563
Cs 3.140318277931514 9.71893857116693 3.49270531451973
Cs 0.15707045559224012 8.483705919703276 4.169601821553608
Cs 4.208033395354346 7.4634714865228675 0.30332135838374236
Cs 4.894960417489528 2.574226335828427 9.371366092245548
Cs 7.846507558522539 9.76681627418787 0.7483424375856609
