19
Energy = -12.6979355 eV
Cs 8.129919117234813 4.054462564919294 12.835874644486932
Cs 10.471550206240375 2.610220341437773 8.855569828164322
Cs 12.21454691458188 6.820426151188171 11.5182494315909
Cs 9.79557217903168 3.9713661504449456 3.8430262520389613
Cs 8.451683634442261 9.381725211645918 12.887873151222664
Cs 4.806410773791409 3.8454155836888027 8.737969813391215
Cs 14.126745147844106 6.307116677176869 6.682133005533956
Cs 3.8662674523632976 7.1877809593874655 12.809212078493326
Cs 8.55863094844392 7.184718501756912 8.259558666569614
Cs 0.737771063706974 7.310264165974802 8.420281856445495
Cs 11.169214208458458 10.713899368666517 8.20536700844894
Cs 4.926225673832324 10.441521426082465 9.158296067847868
Cs 5.732487412794513 6.8188919712034775 4.105028764687674
Cs 0.8311188845668583 6.020375122055017 3.3227753071658497
Cs 10.879312803400492 9.000809708739375 3.222275221937181
Cs 2.2088441528738434 10.76707690893741 4.726963618119686
Cs 7.2487668729426 11.67059264040601 4.254128459819382
Cs 8.338668556119233 6.9593691149995 18.05920653077436
Cs 3.60846585074905 9.381725211645918 19.03730879951906
