12
Energy = -7.29333099 eV
Cs 12.456449583333356 13.967340416666532 10.379062499999865
Cs 9.857762583333507 6.085355416666746 12.795107500000148
Cs 12.401533583333238 18.98743741666666 13.139150499999957
Cs 12.498591583333345 8.91706341666672 9.27007749999993
Cs 8.18646058333336 17.04659641666665 11.177814500000071
Cs 8.334529583333383 10.97209241666666 11.542987499999956
Cs 15.018616583333252 14.548539416666708 15.28216750000007
Cs 15.122919583333287 6.117915416666749 12.833154500000017
Cs 12.449250583333296 10.121542416666683 14.902865499999947
Cs 9.815289583333326 14.513489416666712 15.24684649999998
Cs 16.59969358333321 11.026101416666556 11.603206499999938
Cs 16.67139458333344 17.109018416666622 11.240051500000122
