12
Energy = -7.51520946 eV
Cs 11.86045056407505 10.62474971537465 11.682639236807594
Cs 9.337636851201928 8.957510562235978 15.724297927735403
Cs 9.945512376673506 6.326358265038234 10.608317072726274
Cs 6.927552992845637 10.103881419179439 10.200137268331265
Cs 5.40738146611595 6.579639874244385 13.588099040458044
Cs 5.545802525770758 5.46182593156874 8.83618424221278
Cs 9.556034386224317 5.022166506095547 5.714119298469287
Cs 10.098305632862337 10.103881419179437 6.741235091203186
Cs 5.504998831714964 9.58588397497126 5.316863592380612
Cs 9.739396030506157 8.35363561976173 1.8057687789858414
Cs 4.333776225891054 4.829126723181149 3.679380302309481
Cs 5.145519156706187 8.132342797752557 19.31079648414634
