13
Energy = -8.07562844 eV
Cs 11.533524158746955 7.075485940092101 7.260010494895816
Cs 9.7150237286129 9.356298396199112 3.033603894053565
Cs 9.755329559147317 5.004269597909964 1.8100194177501308
Cs 8.177551561766535 10.702472025248545 7.786851085162669
Cs 9.7150237286129 3.23855643751242 9.75658155306496
Cs 5.752350045213391 7.13539861396041 0.4606651088536758
Cs 7.36432314470799 4.834371269509981 14.444371396574407
Cs 7.429850180358065 5.991878131668967 6.1667837979195435
Cs 2.5803901795052164 6.175597457994543 4.981687919431748
Cs 4.536158282030071 10.18965268612088 3.9939769533668263
Cs 9.181780929671307 8.093716665406257 11.040980784548486
Cs 5.080783002298611 3.498836729840564 9.523150062185756
Cs 4.247220871215 8.496899141833447 9.177980688766127
