19
Energy = -12.60273909 eV
Cs 9.267100256316416 7.341668414855941 2.4151654983382302
Cs 4.2377087740142985 8.256508274077994 4.1260232368818945
Cs 7.536791689904887 10.969039265358585 3.549611121446785
Cs 10.960590149955351 10.007200774791666 4.771488704110906
Cs 4.905081776610455 3.3371703849695065 3.1114270842143696
Cs 0.010395875433277316 5.094653185012292 5.3638340052974876
Cs 12.525641465396635 6.399259986977176 5.081774349712657
Cs 9.471607779511547 3.275280254668548 5.904177502178339
Cs 4.263645486734861 11.261255208649914 7.415316370825507
Cs 8.085535242360496 7.95087124680056 7.958780326972838
Cs 4.404339705761221 3.5662514517932995 8.214713484601653
Cs 2.0759454484211197 8.233358793404273 9.181019593060036
Cs 11.67511327722334 4.604663844990054 9.877113443738335
Cs 9.321699209848992 11.82300614175877 8.879816272698903
Cs 11.789664102368866 9.729997955021117 9.594943761280309
Cs 8.519945803439585 2.8604987234847195 9.88232962932247
Cs 5.776253921137786 9.72999795502112 10.832507267606491
Cs 4.942850247643095 6.038843815763245 11.678648424540537
Cs 9.916284680937624 7.850449006205794 11.847504816192671
