12
Energy = -7.67689476 eV
Cs 9.272055869950984 5.104354805168526 7.711965218956136
Cs 9.36221693476002 9.720334422385507 3.206614285157797
Cs 9.855928500032158 10.136579982010117 8.352900593982858
Cs 8.609935779426968 4.618337363011824 2.523457898088497
Cs 8.60993577942697 5.901310886383979 14.321101507081742
Cs 7.335974920249377 17.961393829336828 8.195286604033038
Cs 5.513583177485614 9.083693743609503 11.286960518273611
Cs 6.547284127644386 13.616148180222114 5.651270452329966
Cs 5.45611065387724 7.921070214085865 18.060423851967084
Cs 4.9979084328319034 3.9617174267962536 10.642836233929774
Cs 4.420767070985227 3.3110662777588424 5.376109355144546
Cs 4.985454471456322 8.233601925538169 5.998091321525118
