16
Energy = -9.61099931 eV
Cs 15.349835881350092 5.582034018524188 2.9076540159465325
Cs 15.349835881350092 0.23327401336887954 2.9076540159465325
Cs 2.9076540159465325 2.9076540159465325 14.54419237122829
Cs 5.981314118649911 0.23327401336887954 2.9076540159465325
Cs 2.9076540159465325 2.9076540159465325 6.7869576287717095
Cs 5.981314118649911 5.582034018524188 2.9076540159465325
Cs 2.9076540159465325 8.41201075739987 15.40851861828749
Cs 2.9076540159465325 12.919139242600131 5.9226313817125105
Cs 7.929919387166691 2.9076540159465325 7.293846490592514
Cs 13.401230612833311 2.9076540159465325 7.293846490592514
Cs 13.401230612833311 2.9076540159465325 14.037303509407487
Cs 2.9076540159465325 12.919139242600131 15.40851861828749
Cs 7.929919387166691 2.9076540159465325 14.037303509407487
Cs 2.9076540159465325 8.41201075739987 5.9226313817125105
Cs 10.665575 2.9076540159465325 2.9076540159465325
Cs 10.665575 2.9076540159465325 2.9076540159465325
