14
Energy = -8.99693263 eV
Cs 5.700944336934738 6.9533169116597655 14.634128993339669
Cs 4.886215444472006 10.190513455324492 9.418921814796326
Cs 15.335458498232375 8.72840088855877 6.471326610299476
Cs 8.553702573031037 6.221744451721478 10.386334134147088
Cs 5.7946553169355175 1.800912441042853 12.542890418115434
Cs 10.206951026694126 11.268753336268405 8.123093518105001
Cs 6.162154857950637 12.136873876388469 4.529582389455693
Cs 6.820023702842526 1.8858944784385583 7.173280423412515
Cs 2.9933256212252144 4.938767013980266 9.373234208277383
Cs 1.096569029881965 8.207827760346357 5.63759037388996
Cs 6.296362668208998 6.718913916254587 5.176710432461952
Cs 11.50126611527554 5.200224915754051 5.851158372242843
Cs 11.105755818618205 10.154842061866251 3.2456290186375836
Cs 6.56481796218941 8.72840088855877 0.13267330313732753
