18
Energy = -11.46381117 eV
Cs 11.298505158163632 9.092331416399741 11.026668622383491
Cs 15.328018793420762 10.922309296695015 16.60968140080505
Cs 14.196844627252482 12.96128336256641 12.057983750187482
Cs 13.68705760644564 6.555854167231067 4.595674522025349
Cs 11.807182085763115 15.109487710813402 16.457448330567587
Cs 10.154420618369247 9.752847362954963 5.440620588365961
Cs 10.00490381981305 6.06650406861069 8.004566245040353
Cs 7.709401300752265 16.685022736767944 14.957233741029055
Cs 9.745889726879941 12.075044024975838 13.442994499110167
Cs 12.269130136639209 1.7204244057443066 6.629774633672395
Cs 10.79313020209132 17.897597219737555 11.520779443606566
Cs 7.083074260479292 15.601432181463034 9.766286548302546
Cs 14.314467533238387 5.307275343379609 9.766286548302546
Cs 14.718722333081232 9.751324150660903 8.088490403764805
Cs 10.915838863881604 13.583395960889156 8.985987573389984
Cs 16.505977478802436 8.756846352577021 12.438110836376316
Cs 4.56285929286843 12.438117961510518 12.938719981199014
Cs 7.477409075051546 10.033994534502943 9.609118501605474
