14
Energy = -8.86535677 eV
Cs 12.401981280810572 10.75871878966419 9.812527219277197
Cs 8.16947093483866 12.678836945032543 8.563628513160705
Cs 8.822898641082405 9.532616430310515 12.268994674756138
Cs 14.50917379228635 7.196637596237091 6.647579263117811
Cs 5.80572127286769 7.986107826860957 8.166112846823257
Cs 9.821683811627054 9.807566519190212 5.266902850151863
Cs 10.195096134063798 6.080432714154194 9.414032003707167
Cs 5.018833244205111 10.565499379387932 4.350095366685826
Cs 5.948575292140973 4.617032109908839 11.42300702546237
Cs 4.238163541279862 5.677084740308372 3.36213125157623
Cs 5.40848190505395 2.2513895996969024 7.051710934883232
Cs 8.822898641082407 4.752597074817684 4.585866584538016
Cs 1.303905557336684 4.602321706825113 8.969886126708763
Cs 0.3503310247968104 8.34596092054559 5.549295011126746
