15
Energy = -9.29786307 eV
Cs 15.986163442645179 8.890111010101595 12.605482591971473
Cs 9.874062775899272 9.032676389698995 5.989571456078399
Cs 15.949910042807286 13.483929061140135 9.918179132458873
Cs 6.483365003578409 8.95869297565753 9.85270004112069
Cs 6.4451121320096965 13.556637945262883 12.526541658328927
Cs 11.26460804287986 6.586047135522249 11.212906358781224
Cs 12.63421846187007 13.395336055818694 6.007251541107095
Cs 7.6742065231227095 13.487051928292109 7.4624303752262735
Cs 11.220368918308596 11.217806335622052 11.239121300597377
Cs 9.810557585679417 13.440772590888264 16.402776254825884
Cs 12.549947573848879 8.991176244787074 16.425499092002543
Cs 14.729471179041468 13.444344857159155 14.967399744688402
Cs 7.652145675109634 8.981595699344117 14.9163790340072
Cs 11.170080741554484 15.845859836233595 11.204588606507432
Cs 14.81099190164473 8.943171934471401 7.524382812298216
