17
Energy = -11.08606232 eV
Cs 18.874990110002173 6.437657023163951 6.39798312504902
Cs 13.660250158910932 4.192717112881578 3.9139935820022536
Cs 14.259365125518485 9.157530646224332 4.44691036261338
Cs 14.461697229869037 3.811780461336911 8.893869914001169
Cs 12.094000029612161 6.284689905430865 12.505327415629855
Cs 12.619183071576868 11.145682968715898 12.542615711547063
Cs 8.361263943769039 9.546295990730194 13.748850518068432
Cs 10.284905479661361 8.33323228470202 8.49230686023438
Cs 15.683310003698772 8.907899252071395 9.599649957015144
Cs 12.508664576679267 12.49825512816332 7.517458688315153
Cs 9.487408819425697 3.372415162003529 7.220998288182976
Cs 7.119928381035298 5.307877528455589 10.833787841188999
Cs 8.618423923499147 13.053736017128418 10.044744125375413
Cs 9.351061284122236 7.185589143260282 3.0755147520384676
Cs 4.850945715895559 9.819836530025395 9.599649957015144
Cs 5.325361247340801 6.501816827213574 5.975850544982255
Cs 7.553576143141709 10.986854158132706 5.586257805230776
