11
Energy = -6.43035551 eV
Cs 10.63314844277109 6.991446576892868 7.915557462785368
Cs 8.632718014155502 8.455082982078558 3.7612172143712157
Cs 10.82807106688521 11.615189340320237 8.349164640858305
Cs 8.829751910918244 3.452886906827615 5.189142414895446
Cs 8.96729249822855 3.011178086028015 9.765789754603503
Cs 8.96729249822855 9.07098704965271 11.591940263705004
Cs 5.5309317983631985 6.318224308690572 9.000525937370961
Cs 5.0914743955458555 3.7802594018238955 1.5885170697908906
Cs 4.201225659568685 1.93786892931437 6.531891132693224
Cs 3.806937310984502 7.300890117971377 5.064817041800941
Cs 6.631746197770522 10.30114820594974 7.913238746768478
