10
Energy = -5.87988201 eV
Cs 8.173931629022395 3.6881574429035635 7.885038059074948
Cs 5.845591152653718 0.7893045359838761 4.619432796475081
Cs 6.414253255863928 1.5038133072312503 18.221714591069578
Cs 2.742919110164444 3.4248882739632687 7.885038059074951
Cs 1.6372052872589977 2.599354942476148 2.600987087058535
Cs 2.267937680272034 8.097897961695598 9.739541092826688
Cs 9.002527484469736 4.5146145997316625 2.853202553479607
Cs 4.627877873026217 6.409471979346312 0.9656695476735208
Cs 5.866489159928285 7.513856733968863 5.864206982623523
Cs 0.9736782671293744 7.349969578385148 4.784232288119452
