12
Energy = -7.48398966 eV
Cs 7.2764817449042125 6.880945933929587 0.26001988270051474
Cs 11.717044942694752 5.220541570034447 2.645346516118624
Cs 8.058213404281274 2.967327022147243 4.174249713404752
Cs 4.662015469403699 10.61779802906396 7.036717449539771
Cs 8.795956856060625 8.620132124076965 5.106898281817805
Cs 4.128117587279192 6.340279682223638 4.818041058506863
Cs 6.211350120775871 3.912608263928547 9.20351726921402
Cs 2.337707620945078 7.280319635841858 9.774532320805966
Cs 10.66958011087857 4.939292230917611 7.950589247064258
Cs 3.5902016460512316 10.772476121131831 11.757759996209439
Cs 8.102756206359771 8.63406722845675 9.774532320805966
Cs 5.692027464467787 6.7681156620540275 14.015997908842191
