13
Energy = -8.00565625 eV
Cs 10.580285568819777 11.170544468454365 16.064933405933694
Cs 11.132286150804681 6.1870210301935575 15.16240922492332
Cs 14.8019345015615 9.123973924789347 14.915293361426663
Cs 7.957795851012348 14.681751740705453 13.153818819238287
Cs 12.592404601913511 13.249350870875928 12.188493380917333
Cs 16.132270733064775 10.932185988454977 10.121035072750537
Cs 11.120361502445032 1.292030556998113 9.823879127221762
Cs 12.480110499664198 8.024453550246239 10.099251240577164
Cs 12.35769085169156 13.260148641230739 7.0764075953984875
Cs 8.168255152972327 10.106485263725265 11.857432466462994
Cs 9.602951904203161 6.187021030193555 10.819922885201231
Cs 7.436977253973217 14.681751740705456 7.860882743526135
Cs 8.523456202490683 9.813220072248477 6.690274376103804
