16
Energy = -10.12924698 eV
Cs 10.53466090305948 8.206041127720422 11.067917124424726
Cs 11.450699243793354 9.488134750816663 6.931928371014105
Cs 10.513745448949415 4.238331236195056 8.349620980635875
Cs 8.063347945344843 3.9571251871419317 11.328900571430534
Cs 8.827754983918616 11.8340949452792 9.992052709482424
Cs 10.524292765774131 10.279770506991618 2.051844923639584
Cs 6.434389343405332 9.903580065536778 12.609935609835235
Cs 4.398865939972173 5.8002157649241255 14.554738900892726
Cs 7.719975817738813 7.83571632272535 8.569560270161823
Cs 6.7001900726178745 2.812984277583352 7.31028244072637
Cs 3.12658504567942 6.158117860298286 10.34656637563211
Cs 3.9958702146021867 10.279770506991618 8.981637273697167
Cs 9.342312839532031 5.865963833000555 3.7286830015918455
Cs 7.436409929907425 10.790883212474684 4.742981268037223
Cs 4.005742171523564 7.492662670647027 4.84811193380134
Cs 6.41741312340966 8.582044063213639 0.1077138592180457
