18
Energy = -11.97444829 eV
Cs 11.370693826022356 10.297818784216837 4.2387485484040415
Cs 8.712613311938874 13.999619553127415 5.334352841494239
Cs 11.00770656183869 9.779356529904044 9.402915131617922
Cs 7.3532529623966765 9.509746221968948 3.4418187405972556
Cs 9.12702823375293 14.36549275966324 9.620510277976578
Cs 10.264794726459007 6.287540084650833 6.444203846187632
Cs 3.708770532667488 12.087306693445614 5.087673732920567
Cs 7.779952262033037 4.221191048827877 2.8785968634858037
Cs 6.836164627367159 9.597359993231015 8.716680522735059
Cs 8.868320859038711 9.509746221968948 12.76749730797504
Cs 6.089728761641119 5.492419775999975 7.839657958127877
Cs 1.5303001575658397 8.863605389261835 7.741458566093508
Cs 8.874493315356203 0.8407030037635111 7.874674243150003
Cs 15.124184199223427 7.073927227326658 9.140922259821794
Cs 9.764403883074836 5.463661014763585 10.671294455979718
Cs 5.717186470993142 6.133153022245631 12.198198827388685
Cs 8.574258287633334 7.090789023731999 16.9902298407217
Cs 1.3732139878468623 4.546083289524159 9.622992411481142
