13
Energy = -7.83052252 eV
Cs 8.969119153894578 14.965363318740378 11.827487312732888
Cs 12.62092369128036 15.50152041330574 15.101227104414507
Cs 11.557806515455693 14.945651954759448 7.349893934744489
Cs 6.002672436660608 9.403200307572218 12.919965647102096
Cs 9.143786179984577 12.317942155583147 15.1524265464753
Cs 15.216288487678836 14.965363318740378 10.621229367762842
Cs 9.890277973108661 10.476161899928265 9.511708531514707
Cs 13.463023301676335 11.552755634238878 13.046453652296599
Cs 15.068981241391329 11.168343344318393 7.648083237057568
Cs 10.319265767568716 7.271669998563938 14.267618908718731
Cs 8.52723173494007 6.840666530347855 9.722936295803569
Cs 11.741841303633628 7.184977457534686 5.767187789742269
Cs 13.763645991034261 6.840666530347858 10.41804002432767
