14
Energy = -8.97826449 eV
Cs 5.170667048717379 7.458858433946434 10.250241649635852
Cs 7.211864493712342 11.16587087977204 11.542838583625581
Cs 10.254750443663989 4.805124576907396 7.9792698314414015
Cs 7.834952113192797 2.8765062944309197 10.534480484065499
Cs 9.759697737253015 9.75260297955516 8.606968312286062
Cs 10.348655486008564 8.208889048848967 3.9303163138383215
Cs 8.22626300440082 0.18695985904178578 6.831472406635572
Cs 9.110051899938348 3.519108281671388 2.7312775290175004
Cs 5.00416888159034 9.75260297955516 6.916387234709104
Cs 9.477999945289843 7.3369778173579245 12.953450748579694
Cs 7.72327818848716 14.47170171575567 8.243941472101383
Cs 6.227452920695574 5.591113139485037 6.475876063643394
Cs 8.597814305452369 11.907407663990272 3.7509787758642794
Cs 6.807121559475443 8.243480801721226 1.5745624656619532
