16
Energy = -10.20859404 eV
Cs 14.423386793507897 9.497194967788834 10.625609080536805
Cs 11.442403653413573 9.55381859308582 6.412586449087976
Cs 9.753955719204098 10.20961034841249 10.293541597206465
Cs 12.69004568053663 13.861197425394069 9.546681213695004
Cs 8.663837502340693 15.236008872254638 11.073340029027088
Cs 4.375103344130706 10.591310137580194 10.603860096760686
Cs 16.72392328934175 10.872482014098882 7.1084271833722905
Cs 12.395579840764979 12.954452783178207 14.017530036494936
Cs 7.854311470814628 11.70489142225417 15.015260031055487
Cs 11.021628501871565 5.761562913793209 9.546681213695004
Cs 7.095079649649286 8.027603898152856 7.618186928021891
Cs 14.967847001594835 6.539396023768696 6.549998501425347
Cs 10.06589715138437 5.203582153926068 5.0535256791999235
Cs 3.5768143132052 15.50735915482455 11.351260767271194
Cs 10.996671909196042 8.566875450870954 14.443598923180597
Cs 17.606555618138948 13.021861798245652 11.565791832185116
