17
Energy = -11.10249862 eV
Cs 8.194744176758851 6.045223607003068 0.6545042659143204
Cs 3.675720044639479 8.839410181769459 0.8783497890602365
Cs 8.348643484469878 11.097329569610984 2.697462090027016
Cs 8.890895589350578 2.544183879848517 4.965720944988616
Cs 3.755075819611145 4.033361286871926 2.6822345435061368
Cs 11.965307673788166 7.283984007330488 4.882479464827398
Cs 0.6322346418946121 7.132381365873741 6.353471827515619
Cs 3.891845654184046 11.750990249731712 5.2411347170841704
Cs 2.434429600698728 2.1602213933531687 7.33026951258364
Cs 6.1958852208986 6.589150912516819 6.598261898711797
Cs 11.747570825583336 3.89157509878061 9.578158811478035
Cs 4.016997906185744 9.994844315513658 10.434372605921686
Cs 8.890895589350578 11.052863318631026 8.070311032454162
Cs 6.8397194592048995 1.7984114783564586 10.331653788823816
Cs 13.91946131687705 8.415009457750294 9.9947691687602
Cs 2.9371676408632696 4.909087318469724 11.893285414521516
Cs 8.073543917352616 6.872111120299792 12.441350304710376
