19
Energy = -12.70738299 eV
Cs 7.040948966677368 10.151100557318646 3.1121986903717147
Cs 8.931701912541996 6.323122353891704 18.017570669983133
Cs 4.453553875842104 6.6600901674921955 2.5597048001622156
Cs 5.902008344252638 1.8865988136672651 3.6891717787704374
Cs 10.302615123759894 8.7856379046473 3.966165147963926
Cs 5.34469622310375 14.272978722285306 6.439100686022195
Cs 2.460467011495248 9.471123050429913 5.490049025904654
Cs 9.321049650649464 3.7011771399821103 5.198875092021502
Cs 6.995833021293951 7.009698746256702 7.268799768593102
Cs 2.052315689904687 5.1002449030019426 6.978421040165812
Cs 9.078686343689391 10.656136426618877 8.106054426171598
Cs 5.314971192476267 1.0782370535031887 8.649555980097144
Cs 11.37551004670873 7.162867335500617 8.875849496670103
Cs 4.118988406439463 9.629061742707238 9.060422247457248
Cs 9.321049650649464 3.572746716991283 9.734855600951969
Cs 4.233829994179692 5.227486988426719 10.582147394783298
Cs 7.94689602168247 8.657098634548634 11.8142319498094
Cs 11.116687106175245 6.2109395293906156 13.233165290805543
Cs 11.391237839432023 10.057365886573072 10.986039235802206
