19
Energy = -12.44141022 eV
Cs 9.914647323654883 6.5664972443778 3.7043771284867275
Cs 3.3923829912245544 11.400333317549652 7.3808941099317735
Cs 11.64991289833366 9.749916976064526 10.879245112149531
Cs 10.302376549958781 5.462633021158905 9.035387961167991
Cs 5.623219810623904 4.621949774190777 1.3761929922791802
Cs 2.0877382387370176 3.7272847894525887 9.732655891601356
Cs 6.973086010966746 1.510309688277954 9.732655891601357
Cs 8.885498432306553 1.7633339339355691 4.921907936519326
Cs 5.47091662532277 9.458669757925835 2.881920456834547
Cs 8.763064732799307 10.709479090080896 6.86878957206882
Cs 0.9679736884165783 7.01373582674881 5.62887910613797
Cs 6.5700394163889015 10.162402248296107 11.399871185542107
Cs 5.860224296533725 6.4995675558761725 7.411563760349202
Cs 11.78313945667693 10.991853776376512 2.884002299349782
Cs 1.6299441933403005 8.76574378901385 10.968441450531484
Cs 3.6923045721955057 1.9374403306722554 5.33337774304426
Cs 14.570471311573524 8.195418446869525 6.865345005805878
Cs 5.890661138954147 5.499886421456847 13.03375308870671
Cs 13.179400351042995 13.170546050726632 7.410403294270399
