16
Energy = -10.13715429 eV
Cs 13.69153177753539 9.886967184109896 7.553168704005668
Cs 9.511331184848233 12.787190859775876 9.348932452887565
Cs 10.32724749294383 7.7669024648849785 11.433780198303708
Cs 12.934253639393644 4.907979964386658 7.6483348702821035
Cs 11.974752786883323 7.127510900534241 3.016875364926933
Cs 9.91788339858127 11.702607142109985 4.14878054522185
Cs 8.1964565215452 7.655823165487222 7.124962630586952
Cs 5.34740020241815 10.389876896522713 11.295696895387087
Cs 6.637135226435568 3.978304852016665 9.922123961257798
Cs 1.9733687762064476 7.4198824957102305 7.252924899905876
Cs 9.19607200527106 2.9886281666252477 4.09666787072662
Cs 6.251010508347892 7.765469058386726 2.820279448523184
Cs 4.87195164867867 11.55117118026179 6.309912767001099
Cs 1.6107405208316519 2.5319552197792152 9.348932452887563
Cs 2.749399009978822 6.402660401556068 12.532036670814408
Cs 4.241852795287632 3.0734831354854886 4.975947705800101
