11
Energy = -6.89411218 eV
Cs 8.245689266728183 10.029523403045744 8.133478540398606
Cs 9.165400588453073 7.310699062044184 9.207775165009936
Cs 7.934174999434616 9.033064459741222 11.768636818894816
Cs 8.770585401784379 6.971939052868362 5.379653482262823
Cs 8.245689266728187 7.458416473709227 16.180389434549372
Cs 7.212299939392423 9.028774425613332 3.6695018438890585
Cs 8.096576202575466 3.6933023682779758 8.616164042202136
Cs 5.807471463380912 8.98209207935203 8.628880011011393
Cs 5.512461236962226 5.547436423720465 4.211594778113726
Cs 6.1713447655022025 5.750177530982684 11.634187283104888
Cs 3.063824772740703 4.867432818654343 9.125402959021525
