17
Energy = -10.91136823 eV
Cs 14.190467752451994 10.478389291000118 7.225888572917961
Cs 9.531323570085926 10.894618138997675 4.895794429030534
Cs 8.07400639665854 6.962401807501441 2.967844450748439
Cs 14.716853956718177 7.63557661475039 10.126708354943787
Cs 11.31816784066272 6.698934449559752 6.681093277359424
Cs 5.867319335162298 10.915492412014094 2.03361722513504
Cs 9.808133369124054 10.1863308288569 9.534924905957368
Cs 9.02764870687862 2.690052164151289 7.920838846021145
Cs 9.810752276653924 5.885843071391459 11.317370968308206
Cs 2.8416188123357706 8.206966386023018 4.485342427176474
Cs 6.853628654509718 7.371122698619858 7.901471857840996
Cs 5.565776443016291 11.457635575327679 7.511805875906363
Cs 4.623424187052834 3.361051706414726 4.907152473906431
Cs 5.960335095021154 8.982280085822996 11.708854974497292
Cs 5.7395230192284465 3.5868796013829685 11.209238525600348
Cs 1.22339826854782 9.788822942046938 9.534924905957363
Cs 1.8840151539249494 4.7803391996950735 8.904677649677529
