19
Energy = -12.27054678 eV
Cs 1.7853978398441015 6.35523575656951 10.123886793432908
Cs 2.1833285133103244 11.860585234247203 10.245954241757396
Cs 5.386592317301334 8.46235067135599 6.288196682691932
Cs 6.8917067589908285 14.52113945716076 11.410459836749821
Cs 7.156776039462319 11.814430871688728 2.1848781663015844
Cs 5.702707326125017 3.684455221001153 12.236668893783987
Cs 4.868164378368367 14.048444517940883 6.372864136579017
Cs 9.577412593099044 8.902574843789697 19.999436383928117
Cs 6.739298125275916 8.985336905936764 11.434556193935622
Cs 8.346115887382663 12.074928908878782 15.756305675332698
Cs 10.386482383200226 7.422188471493804 3.2981332367798712
Cs 9.82166269338219 5.87263097951116 8.375307300472167
Cs 10.405572037320535 2.0300398514545166 12.33302885892825
Cs 9.684485435445879 12.067440652170683 6.910850506576441
Cs 10.405572037320537 6.623861047745546 14.905713133667689
Cs 12.12783973498539 10.715876641047345 11.666004129296347
Cs 14.32078649874616 8.914457542159912 6.725267120053469
Cs 14.50643226547559 5.549021848728624 11.410389537892978
Cs 18.70982811075749 8.749850839040189 9.942211977917797
