16
Energy = -10.3919973 eV
Cs 8.802818482262134 12.501224480175823 6.73477922929955
Cs 10.389351672365589 9.204581238357976 9.715135559299407
Cs 11.307622132775258 7.907925287614487 5.530224177592382
Cs 7.25620876116328 9.729168182459738 2.6926812883465545
Cs 6.364356942904015 11.042069194399094 10.518823316603225
Cs 10.729386372553785 4.492967554709189 8.958021183950892
Cs 4.353082814414424 12.09231888200932 6.339899183188089
Cs 7.7356796850419345 5.382634487506901 1.478720871369384
Cs 9.753557592513753 2.553567944374768 4.999745246285077
Cs 7.2418291270010595 7.225505433716585 7.264966624612204
Cs 2.2742722301572864 9.204581238357974 8.791498845355493
Cs 7.384738405407085 1.218260175703237 8.793329149936836
Cs 6.999679679006583 6.323616031298796 11.813475262427128
Cs 3.0885605225248534 7.244834195735067 4.48714805630051
Cs 5.297639694150443 1.8837041057215556 4.577808378774822
Cs 2.9761131514538484 3.986449856953896 8.67390667490161
