10
Energy = -5.73387686 eV
Cs 6.9081064172546975 7.703387876728077 7.718951345186906
Cs 1.245080439880975 8.530363705303852 8.466102231808284
Cs 9.566422025006213 6.024376016729032 3.966489393401709
Cs 5.244985533592005 6.340819605886193 2.89020412736843
Cs 0.36387718065530433 7.95647636645743 3.4767182963659913
Cs 3.4796149152259437 4.679038355627969 9.797769695396372
Cs 1.9140067653572934 3.2877073452148333 5.233278496940898
Cs 9.566422025006212 2.9192202032364913 0.008041146672004297
Cs 6.79498457409149 2.691992701188079 6.713248896289803
Cs 5.613506938098954 0.7929993266662027 2.079457617856629
