14
Energy = -8.89018706 eV
Cs 7.761905981205898 12.478645622965159 4.80073970135941
Cs 3.224523034371391 8.897296054254461 2.817957358457546
Cs 8.195098861157446 8.369314270697577 3.4577177833722788
Cs 9.748914324985723 8.944881842361388 8.110951309052792
Cs 4.337913326582632 10.068845409361346 7.309678453865414
Cs 8.649390010143202 12.413553643598876 8.888188179340226
Cs 9.694611145820575 4.043089900549511 6.1699474176422795
Cs 9.748914324985726 9.306367835969377 11.946409324733315
Cs 5.336158956615313 3.804781117977464 2.993575326214143
Cs 11.604816722092027 5.0164215334955236 9.567943656835176
Cs 6.065902744314419 9.3230566869512 10.623457021806024
Cs 4.972934655301373 6.2147146792783925 7.56538375030959
Cs 8.01283874915221 4.207779975941953 9.918771185757532
Cs 7.026733873582465 17.34132307405298 7.440498111218303
