13
Energy = -7.95185268 eV
Cs 13.396438370080684 13.292876995844171 5.64275584161067
Cs 16.48415655186959 13.869527823979656 8.979755770971133
Cs 12.88728819337183 8.349067317451638 4.994349904856463
Cs 11.216623927528865 13.869527823979654 10.114764064216375
Cs 16.22908821702175 9.145881506750296 8.951722738560653
Cs 8.073273708850628 11.133099937968808 6.914314434774062
Cs 14.70546765000729 11.629457172559203 13.024420279162483
Cs 4.390922566038297 11.361009390635743 9.119535299915173
Cs 11.766328361310851 8.213669546606319 9.798324762122537
Cs 9.321815465715034 10.295629224046607 13.557464063355715
Cs 14.132717548781786 6.664602767569318 14.222993998412289
Cs 8.073273708850628 7.784170135027428 10.387475786633265
Cs 9.188598723423484 5.03786501546861 13.826445763277261
