18
Energy = -12.20431762 eV
Cs 10.468415928563335 8.096157295119221 13.232279900630049
Cs 5.580777923830977 6.497541501382324 13.463805340777032
Cs 6.526352829354103 11.50238118408598 13.872256323612897
Cs 11.372384237057327 12.91928343246254 14.269164419620003
Cs 8.896200945287296 4.1598112731897565 9.928375471480194
Cs 4.633589769803378 9.53107756511035 9.392124584192931
Cs 8.47914322781892 14.109628099765427 9.56270520870704
Cs 13.581110377614069 11.655753414684094 9.663991151769102
Cs 13.578245183009258 6.385245439198936 8.997979857568364
Cs 9.375417801786742 9.142309606350663 8.227747345653354
Cs 9.617124072576242 9.40244559274443 1.1287723304953357
Cs 6.2469988345753285 6.404342863568548 4.961161852054425
Cs 10.995210971368653 4.814702914181342 4.807802786055852
Cs 6.666586831192203 11.752628299680849 4.942661768676821
Cs 11.223816057331671 13.747102583922512 5.084391920631607
Cs 13.780763348126307 9.233472357716737 4.808756274415071
Cs 3.7691082475350894 4.3927331552689095 8.997979857568367
Cs 8.153384243237648 0.436503306558846 6.537197697924041
