10
Energy = -5.91334724 eV
Cs 9.935574892483835 4.803021102225954 1.110162588459673
Cs 5.706496228488416 6.345336529695731 2.580025209205916
Cs 9.935574892483837 8.133590623490118 5.3194631115412125
Cs 8.685866632452864 3.1848837719242953 5.869794840968599
Cs 5.128844665565729 10.127885605057035 5.9814390221174305
Cs 4.029145311511735 5.021174759611247 7.368513942525507
Cs 8.943154173786823 10.755891648462761 9.361881175333696
Cs 8.412492448655552 5.933886669778861 10.124663014532118
Cs 4.040820825773278 8.765872512863906 10.674593112854208
Cs 7.748669583648202 9.49509643174035 13.930530671412273
