10
Energy = -6.16033988 eV
Cs 6.751970882791513 8.156709444999846 17.918046221874025
Cs 5.886297613273159 4.9526854942265555 3.0766341247003868
Cs 9.921229274677973 7.563704997698739 3.2173200975439036
Cs 5.580951077271177 9.510545114346105 5.397881859155126
Cs 3.7525016452590685 5.666589604898314 8.121094217554319
Cs 9.882541848367103 9.739844397344994 8.230475611418935
Cs 8.800936187917458 4.91636642335633 8.155192656527008
Cs 5.737570284804246 9.510545114346105 10.970838703183578
Cs 5.962186948541541 4.6417511321246785 12.978365341815511
Cs 9.801314481790412 7.545574549467523 13.378946374866926
