11
Energy = -6.15817859 eV
Cs 12.582833470749883 2.5226901197146843 9.752043400371575
Cs 4.801489818750924 5.066894969424902 4.277775176852484
Cs 9.194482017159642 4.043470837692304 7.448842499894327
Cs 8.785051508091847 7.987847964013543 3.8803310187274143
Cs 10.673862821528925 11.46363014290399 5.081190945752586
Cs 9.194482017159642 5.583530277664955 11.884627678246838
Cs 4.9261066121442285 6.842755240364036 9.224202372409957
Cs 3.689603118963749 9.449234936174829 5.090411834099652
Cs 8.930235420145571 9.170976941544925 9.046485791446031
Cs 6.504576746009942 13.186081903407132 6.473608556917886
Cs 6.401118414512009 9.043001558298386 13.311454272260796
