19
Energy = -12.72680877 eV
Cs 7.860468157088439 6.134256131753892 18.172088161940167
Cs 3.776653453907979 6.647621027628265 2.2867226131140144
Cs 8.124341750808743 9.670281010407031 2.890537974930038
Cs 7.257074958936753 3.2690259167535918 4.235779026105735
Cs 10.978828109116881 5.961804727509043 3.9589416780678186
Cs 2.9976891242080734 4.998786565327433 7.151345696865106
Cs 11.668652586162668 10.077651246222793 5.8835708723956905
Cs 3.7520609886460266 9.932646535508031 5.771398730307343
Cs 8.17632091750286 13.08436870126925 6.376892847232703
Cs 12.683310574258787 7.110972330929648 9.26767964923857
Cs 10.535733898810847 2.6259941328633953 7.999875051513753
Cs 7.6454820568652675 7.508914215372874 8.021272933248936
Cs 5.29733830555748 12.265119086160635 9.74080260149325
Cs 6.503863410632702 1.3764782315912598 9.251180049413943
Cs 2.0279088903352576 9.009378482921415 9.792058113651677
Cs 9.587990412293365 10.412044990857282 10.112270348594965
Cs 9.587990412293365 5.141020098192578 11.760448117693626
Cs 4.210054140883066 4.690999712129126 11.728349764128394
Cs 6.3969038094543595 9.151302814364508 13.299978378222365
