16
Energy = -10.2252994 eV
Cs 4.781671600762023 10.883736408554787 14.306191141650691
Cs 10.233421521979352 9.596727901634093 15.427168962978657
Cs 3.398193935709329 9.30598110240646 9.175977020222124
Cs 6.104373641911236 12.396350119137637 5.092409377189845
Cs 8.074629394816125 4.501380649370804 1.6519183982492662
Cs 6.968207434184322 6.1394782630060165 12.515826371841756
Cs 8.757270795360233 9.596727901634093 1.1881730004904807
Cs 3.840198187300892 7.25083754600044 3.5363541047915823
Cs 7.529169564801778 7.383985601449905 6.732382106161442
Cs 5.038420696885535 1.7380094032036812 4.517928843536086
Cs 12.309693402091986 6.173203015544555 4.490987005791365
Cs 3.7512070387441816 3.7510113340075524 9.070178315823426
Cs 8.77572380213264 2.742039046959233 8.060907364056405
Cs 8.336292807842414 11.98870543651333 10.58891958410813
Cs 11.446979237108437 11.719681829981493 5.617644840476007
Cs 11.925590558333354 7.411142624718054 10.369502582590343
