17
Energy = -10.75801192 eV
Cs 13.110136763447294 7.055824558938433 6.937463269093835
Cs 11.050434039757013 11.94737086273132 7.43522375784638
Cs 10.145655742836109 8.83404657868597 3.202480433295278
Cs 14.276525030684077 5.5156960914005575 11.442734238820814
Cs 5.791179864938159 9.881626287808858 0.8864921728036289
Cs 11.40603917940447 9.773264677396247 11.781435978964948
Cs 9.220100856221645 3.8579037251684305 5.269675002671048
Cs 6.407968524304649 12.338121965394965 5.647226559277909
Cs 4.634249477856825 6.379183172650985 4.249761433331579
Cs 8.09742453910247 8.077167455859982 8.198315118229573
Cs 7.0569677232528205 12.069668504799228 10.789463264207138
Cs 9.88180466634012 3.5789110145736722 10.313443440595186
Cs 1.7797189674489202 10.40849775757692 4.724558746474112
Cs 10.145655742836109 5.915807149149046 15.052973305707338
Cs 2.9250636944188635 8.990154940910463 9.369955675083201
Cs 6.0236347887907735 7.434308402707155 12.981937783820708
Cs 4.987452025048671 3.9684947359577083 8.866343134954493
