14
Energy = -8.93375322 eV
Cs 11.221070266860574 3.722325046249203 7.3471121436903175
Cs 10.240513165514285 6.558839165492942 2.014567884415851
Cs 7.230924674214284 6.560933575685284 5.742688949580571
Cs 7.476885884921226 3.6560892506204428 10.647840701881977
Cs 11.470917782039244 8.815542862637832 7.177960794466997
Cs 6.286685616599613 9.343225738006247 1.1120975224445122
Cs 7.088445826897124 0.9287470072889499 6.55910920710416
Cs 2.407041485516856 6.294399171302901 3.3225463179407804
Cs 7.769436823370679 6.575291081578212 15.337862650906759
Cs 11.61458759691386 6.372513638687995 11.6309905875703
Cs 7.342584449493305 8.815542862637836 10.106115970440344
Cs 3.204046987237439 6.144080839357413 8.565671542565525
Cs 8.020725949049819 12.154261157772092 5.627392506757826
Cs 3.228884793960126 10.651172696176646 5.230657537183604
