10
Energy = -5.77931534 eV
Cs 6.59919375743596 5.166333363047154 3.884648986091881
Cs 1.6816546388823272 1.7508781988908777 8.782222818868409
Cs 9.26830913415804 9.364758257168079 3.323389717099916
Cs 6.689191322833983 9.278267970253204 7.747196705641374
Cs 4.07812088228989 9.364758257168083 3.5158360449540633
Cs 2.386591050094375 6.373055001136868 7.008331448595524
Cs 10.29488393170588 5.643025713239484 6.797805058133251
Cs 11.162603951488858 10.403109779044334 7.834729467681196
Cs 6.412535694411729 3.71447239487731 8.930736545173348
Cs 8.960234074675107 7.360762511200803 11.0375761578118
