14
Energy = -8.98451465 eV
Cs 10.562666119336722 6.532013606161066 12.98252085158528
Cs 11.561954724560419 5.1007718023673245 8.22557272728348
Cs 6.575831206321165 9.131888946721556 12.995351332028639
Cs 7.44389252882484 6.399014390947408 5.419390990220659
Cs 2.929884409474983 9.295702378397245 8.621974995872929
Cs 14.709320676383838 8.98668658559592 9.12968151161887
Cs 11.320707555274815 9.364727749970381 4.983003700197048
Cs 10.404689409772535 12.611846729857083 11.985156843349673
Cs 6.776386651846708 11.632091410284234 4.880700188619985
Cs 6.149461604396274 13.639029579060878 9.540433323189399
Cs 10.293669568306875 14.170458034471718 7.1598536239342385
Cs 6.921893297877826 4.863142451216249 10.05582326716247
Cs 9.112290417469419 9.146047185028012 9.129681511618868
Cs 9.326494707577254 0.44763075405910635 10.019294366559489
