17
Energy = -11.06756006 eV
Cs 8.42973009829109 4.765490383575928 1.069757737279745
Cs 5.172983676886004 3.7118518751305354 5.388475947377035
Cs 4.445382539709873 7.862426872618611 2.015357096303915
Cs 8.961251357320192 9.922402498737313 1.753241853870863
Cs 9.418815859589635 1.8966011978813686 6.667702535891804
Cs 14.513222139859908 7.03944718430863 8.304926908532027
Cs 0.8269852587162949 7.977940867965726 6.193294212241731
Cs 9.479648596636004 7.19579746958746 5.843583508301252
Cs 6.30414868137001 2.783129131062682 10.190036857481134
Cs 5.691916418388476 7.699664099673713 8.354667754689883
Cs 1.5997648746161772 5.0466262928424195 10.101609599459396
Cs 4.33221930291851 11.623988141985704 4.752752548943992
Cs 10.609186603991478 4.578325738706663 10.542218468386663
Cs 9.119273847778505 11.996582920063743 6.516132674279302
Cs 6.54477051647161 6.525257415027904 14.19625924262475
Cs 9.119273847778503 8.952595089476091 10.6418621324767
Cs 5.180140220954072 12.030353062872791 9.581057089612598
