10
Energy = -5.87929354 eV
Cs 6.399523218185772 5.50910990495181 0.2264991641167723
Cs 3.3788957119505914 9.98282795840826 19.279636285511987
Cs 4.541693339266127 8.150646029354334 4.518384629092647
Cs 4.683914906767979 1.8265934181914996 3.8489301767708333
Cs 9.095183870908121 5.020151926454325 4.826637177667861
Cs 1.4663469381909298 4.93019868513186 1.1999128276733182
Cs 8.080866048082951 0.6822128857319486 7.777488250381139
Cs 5.517081354310407 5.398325060163957 9.177591662103868
Cs 3.345054764430173 0.5558136088224233 9.177591662103868
Cs 1.0613161980832257 4.653267573069939 6.376477491075852
