12
Energy = -7.33982374 eV
Cs 5.5738985923651425 8.747457999832893 0.5054768160085327
Cs 5.221809681661739 4.12216548683662 2.451960843568549
Cs 6.277357135858033 3.428844721554427 7.605964562900229
Cs 9.447014282548054 6.896474253134904 3.9842880068905218
Cs 8.431795205258423 11.856449588988514 2.859472959690645
Cs 5.355371666669851 8.706156096622374 6.399877658573291
Cs 10.160072885970264 10.564710665960492 7.647230658406925
Cs 10.160072885970264 6.010272523486433 9.223122941671543
Cs 3.202084406840927 6.487744631427041 10.194288700406197
Cs 7.2659756702312706 3.8188401598912733 12.411540354327109
Cs 7.148443470286345 9.580603626842022 11.324082689680838
Cs 5.246023341879065 7.239620751524867 15.735046609491418
