19
Energy = -12.67246769 eV
Cs 5.7617876662907745 14.136892529694158 8.388235461926998
Cs 2.2214353656475296 9.980085370098408 8.788529127372025
Cs 6.447646238760705 1.9359097625762558 11.85668584270181
Cs 4.823909908078861 10.1346670730823 4.12262324220155
Cs 5.086969793108216 1.172331608701394 7.133282161206713
Cs 2.6108392284976625 5.909812265008985 5.619465975644867
Cs 5.337337997120547 6.402725012417061 9.910022733635943
Cs 7.149784607162931 4.683977928240969 3.589083339237137
Cs 12.971465678016662 9.83936413480943 5.076264077583991
Cs 6.3258574647611745 10.7847490444004 12.006152777343615
Cs 9.170577046850395 12.887538633935623 4.62766456236039
Cs 10.64169250974416 11.461108790598601 9.547392992952846
Cs 12.02185156715901 5.222961376379273 4.110542435874892
Cs 9.587978709365775 3.4357479318584985 8.50696147319052
Cs 13.80973357850671 6.859509439533989 9.040982098932252
Cs 8.532107015811532 8.403841361593285 7.079572786705495
Cs 9.636043670954386 7.017935387147402 12.262507704750131
Cs 1.0195821259171975 3.791995752703045 9.631069196258666
Cs 9.587978709365776 8.908239084836719 1.2773318704185503
