11
Energy = -6.54345758 eV
Cs 15.680035863636487 13.576769227272685 15.48646504545461
Cs 9.408125863636366 13.57513022727275 9.606550045454343
Cs 12.542268863636426 16.44270922727275 12.543808045454472
Cs 10.8204378636364 12.055308227272675 14.987186045454509
Cs 6.0025348636363764 10.798771227272663 12.896202045454519
Cs 7.169134863636244 15.671780227272603 13.76236404545468
Cs 14.687102863636438 8.666072227272732 14.107952045454452
Cs 17.92096586363651 15.676342227272725 11.323406045454647
Cs 14.26322286363645 12.054924227272858 10.096641045454405
Cs 19.090395863636285 10.795400227272868 12.191191045454662
Cs 10.399009863636197 8.67002822727269 10.981470045454532
