17
Energy = -11.09492796 eV
Cs 7.05493158409388 7.9662983609968725 2.072075225262523
Cs 6.75252667354271 2.8769608523697916 4.231057397599375
Cs 10.154621820576258 5.022687207683149 3.1560158919892407
Cs 10.332219286992833 8.76337585787658 4.654713779223359
Cs 2.9499548174013266 9.36041732507114 3.733936370280694
Cs 2.4974847228950523 5.801632141914436 5.949421150614147
Cs 7.219948660444005 11.465005140813263 6.03845238326334
Cs 9.605195263750206 9.066174603605512 9.849397978037874
Cs 7.5532579961415935 7.303108518312277 7.289897374504728
Cs 2.765347189714819 9.322539913239378 8.92223900920877
Cs 13.237376605810296 6.387352162942998 7.6404685315568575
Cs 9.649493152560291 1.959517971880765 7.4426269304894435
Cs 1.6632155844677454 5.959368488768976 9.849397978037874
Cs 6.555711786549735 12.02620768134095 9.903682956746055
Cs 5.83124918365973 2.904595046656629 9.455877672068944
Cs 9.333417197803234 5.179617723553066 10.223443865777856
Cs 6.303732089060509 8.094824618437906 11.447676865252781
