12
Energy = -7.32303744 eV
Cs 6.735726256702316 4.651082252212747 8.540606114730746
Cs 11.91331636040727 10.888508427233425 10.78876368881601
Cs 2.9512550470345533 6.628044190833787 4.728182307049354
Cs 7.570442106877287 4.931513195703048 3.3237284124479514
Cs 7.279413006661405 9.765845125404136 3.3594269430229255
Cs 10.592857229569214 7.5544354229929525 6.749375540450348
Cs 9.782576915183563 12.611005575150498 6.701790566054168
Cs 4.965136525050086 7.3219556147321665 18.94591469603107
Cs 10.312505158959183 6.470436502009244 11.599533304821223
Cs 6.594718117794419 9.765845125404137 8.8376438934866
Cs 2.297037179338948 7.049097318496341 9.527231658418682
Cs 5.912894688001668 7.303254806953743 13.6976618936195
