13
Energy = -7.91812614 eV
Cs 8.939671557274018 11.303241094241187 5.177471956261284
Cs 8.677367632756555 10.249559798591017 10.605745223748754
Cs 5.555285239148765 7.7987729617356365 6.448162683545824
Cs 8.939671557274018 7.023164962432698 7.391164321615867
Cs 5.965480383770725 7.030993988301443 13.69814379837282
Cs 3.2174041573704675 2.2868011506330657 4.239360503051535
Cs 1.243500993788909 6.865180904038801 3.5961435586039943
Cs 8.005544259803461 5.14364329658044 11.394965383476697
Cs 7.894324666629116 3.0685578540591965 6.340263058003902
Cs 5.162591199189789 9.73359509542881 1.258791463694696
Cs 8.923913180519662 6.436624520327916 2.3250940856855826
Cs 3.2560486096930625 4.420191354762947 9.331692839285898
Cs 4.4387546699724 4.713589679725691 18.485287328397728
