16
Energy = -10.24131091 eV
Cs 7.984435212916324 8.976991605023498 14.451253297884563
Cs 9.476760594303295 8.243387668239631 6.700463319535198
Cs 9.483405605106613 10.872407349834914 10.150535965267217
Cs 6.073163344176455 11.0728992074726 6.95864573743051
Cs 9.483405605106613 6.166096849985324 10.305549778578264
Cs 12.228677092198327 9.366770132598864 13.646721199175248
Cs 5.446515232458163 8.240588275275915 9.48994481797141
Cs 11.683210704818848 15.435057296480394 0.07778121631318081
Cs 9.755909194327812 10.421705951521023 18.216903425341275
Cs 16.065165177889856 11.558508708111212 11.763257840186531
Cs 10.488438336430699 11.96700021862925 4.901784194118478
Cs 12.648273836355353 14.014364487315055 9.34632604663102
Cs 11.015851286574993 13.75079811419375 13.613312141925848
Cs 6.141934789014835 4.370409999219032 12.795406311473284
Cs 12.942743646331083 9.752069794888486 9.183769391679444
Cs 14.86693651846348 11.706823499612785 16.813709916525724
