18
Energy = -11.62130146 eV
Cs 3.2386495709503795 12.574137855643777 4.747701474863665
Cs 8.365240337039637 11.036211496662188 3.6711632491576216
Cs 8.603263250439554 5.7254801451643225 2.417006943235322
Cs 4.18607706413519 8.453545447674081 2.8323994510437602
Cs 6.824472370306263 12.825010133670235 8.598730576498957
Cs 12.01035355656635 8.519022687070148 4.770246422910905
Cs 7.776991166695058 7.628714534145438 7.367395803851739
Cs 2.974211400680338 9.411366330958199 8.451863765544438
Cs 11.343477757998812 9.957325653122423 9.31779298323659
Cs 11.842091447263511 4.217623092675636 7.497979832114396
Cs 6.827486859379352 9.452501496973415 11.983275201084888
Cs 9.760056812479567 14.091385076757602 11.826877692554847
Cs 3.1467017060368154 4.713469192438866 6.10583839167961
Cs 10.076269847169797 5.436828739412051 11.73092728138787
Cs 7.83822987961607 2.174867731987921 5.971254509578228
Cs 9.270040423161689 0.08399208272136371 10.0739715112896
Cs 11.06408832293683 9.957325653122425 14.166379378342716
Cs 5.701084980239992 4.194469693129808 10.340095052566419
