18
Energy = -11.95279962 eV
Cs 8.877233473743821 14.99492364708298 9.00345419835093
Cs 15.019543064330131 9.674977506492294 6.978832663756111
Cs 13.039672701024317 17.652681764284452 10.300771161194815
Cs 10.249028900285493 9.872399810651123 8.834564261817695
Cs 14.022383039300907 13.602145269856049 8.117349594038508
Cs 12.915341736474343 3.990081255296335 12.891785477939697
Cs 9.741199881374905 8.1230622684386 12.942749188399628
Cs 5.8642821596387495 11.341545030415793 7.829511821059629
Cs 14.452679065390615 9.381017790935516 10.988406810568417
Cs 17.490953129242182 13.164986696110573 10.921592987253014
Cs 11.966981195692838 12.795927464806077 12.33974385872357
Cs 5.954733477442394 6.713293004787966 13.032848502264407
Cs 7.444671420139546 7.288442001622129 8.98384244897153
Cs 8.604891175323298 2.5992966425040063 10.553175263618538
Cs 11.443426248899804 5.653660925092402 9.223947236581184
Cs 7.7175918553410945 11.062667763130719 11.577668291190111
Cs 8.87723347374382 16.281946449410093 12.906763556976133
Cs 4.507771110287974 15.34615608755672 9.912623155216789
