18
Energy = -11.7948197 eV
Cs 12.287644305065724 15.235074282090128 17.801821569345613
Cs 7.922879826418275 14.825560396056346 8.522541054500467
Cs 16.494600791211283 12.473134731668445 17.215578683566594
Cs 12.429428421299018 12.293878912345741 6.722369171810643
Cs 15.398877874392067 8.471498131609415 13.826906798770084
Cs 5.9914109059709215 12.311154534149983 12.525437911354862
Cs 16.838195389961818 14.901657435597976 8.620702183311415
Cs 12.339456295140243 9.648718879935165 17.875352320878957
Cs 15.320889731715337 16.358402640031294 13.715908148172327
Cs 12.37572694514896 12.366153132799148 12.369717384980483
Cs 12.446506857130919 7.723251757727408 9.526998609074962
Cs 9.313443417960109 16.30739833349779 13.661220357198125
Cs 12.361154292734328 16.933774738905374 9.398082350957539
Cs 7.968248633760448 9.727190956006902 8.592398559794535
Cs 16.888293421163073 9.814657699033548 8.689018427452245
Cs 18.729604774959196 12.433373522551062 12.654927040281946
Cs 9.380322161572508 8.407157121727225 13.767446389156566
Cs 8.140627954395757 12.395274794266152 17.14088503939298
