10
Energy = -5.3003081 eV
Cs 0.32418899288321334 3.0775632262310726 6.673855362636824
Cs 4.4027767048967865 0.11429579979357359 6.673855362636824
Cs 8.48136441691036 3.0775632262310726 6.673855362636824
Cs 6.923482541267949 7.872230626328762 6.673855362636824
Cs 1.8820708685256253 7.872230626328762 6.673855362636824
Cs 0.32418899288321334 5.7279901835625 2.131698047156747
Cs 1.8820708685256253 0.9333227834648098 2.131698047156747
Cs 6.923482541267949 0.9333227834648098 2.131698047156747
Cs 8.48136441691036 5.7279901835625 2.131698047156747
Cs 4.4027767048967865 8.69125761 2.131698047156747
