17
Energy = -10.80185455 eV
Cs 3.3770489392578438 9.780917387870216 7.871454200053531
Cs 5.861968315147484 15.428661443710023 12.054841789392563
Cs 3.2848833307592855 13.029072971802156 8.472999957809686
Cs 9.25467483549797 14.159640382580127 2.837050043331596
Cs 6.645289157004466 7.7583313543559775 4.477123875835375
Cs 5.0076372613961215 13.027754942263957 3.5053632284822105
Cs 7.3166890960174475 7.179134447111354 9.915893736841566
Cs 7.574271517903574 19.336228823459415 9.233555315459922
Cs 8.048221784034656 12.487805988383997 7.661320650598302
Cs 10.167065558099688 10.998297691623593 2.577587031567573
Cs 11.565162956015218 8.010320175875236 6.726657209458242
Cs 5.430315915928207 16.464043982889756 5.425886344445031
Cs 10.30607300725154 15.46145636638306 7.80316231804224
Cs 11.262160926910557 10.035273937604321 11.546096817840239
Cs 10.437524775347871 13.172225432746169 12.408053242871004
Cs 13.023942226616148 13.029072971802153 7.062956638843569
Cs 6.101799538172016 11.831978450995958 12.499550389483366
