11
Energy = -6.55988233 eV
Cs 2.914220541327079 12.143380457503254 6.773813674095815
Cs 6.972831173415651 9.20339167166865 4.953729973914512
Cs 7.614434437346479 13.84683737094993 7.640629736212589
Cs 10.435439948621598 9.558419710747176 8.465198785899274
Cs 1.9021644321945006 7.564726493009238 7.0007066828592555
Cs 10.428255478936698 5.765002183759097 5.346587975431047
Cs 5.9089852467278705 9.558419710747176 9.88880036960856
Cs 6.304855425106051 4.821953269194269 7.813268273015198
Cs 9.595265165022727 6.044295680894629 11.221521181524063
Cs 10.139344981343754 1.5185017258323905 8.742180024056195
Cs 13.928817398344766 5.237867701078551 9.172683527088088
