15
Energy = -9.42020251 eV
Cs 10.040273748329017 11.11454861890276 9.113884996472724
Cs 12.023229730310533 7.537662705096988 9.401379834390744
Cs 8.812552961320023 0.10198078602095306 8.319509795223412
Cs 7.862330966753467 14.631283112458718 7.527043679364428
Cs 9.401680831058247 9.092522002544971 11.739146651773765
Cs 9.784212107856526 4.137839815152194 10.283569837520993
Cs 10.457606111284706 9.189047871410814 4.5527390076189524
Cs 8.194982235175722 8.044408616154053 7.955186873459343
Cs 6.6098095848000815 10.580721522861449 4.427043558749859
Cs 5.451414784490886 10.713101125746467 10.096967955767598
Cs 9.784212107856526 4.137181755955603 5.746832011687734
Cs 4.7634987168646505 7.034080786839574 10.297993122164605
Cs 7.060188524926856 6.829932352437311 2.9966863969840185
Cs 3.1075476567630367 8.426490099028783 6.60375933742408
Cs 5.194382864577177 3.626254730033616 7.012094477810364
