19
Energy = -12.64832102 eV
Cs 11.996542452827036 7.232492940480973 3.3380116253429395
Cs 9.544381768820971 3.4685345517792294 3.726450820298329
Cs 8.101180589569928 7.844736128238668 0.4848348585622577
Cs 14.617454483496164 9.481055695331252 7.598430940539899
Cs 10.355479453177528 5.723907053139767 8.113354858698722
Cs 8.396319459346541 1.3234048092316135 8.479133543697884
Cs 9.973401471685222 10.448082221723073 5.495284017691375
Cs 5.599993916834103 6.364199647461997 5.15055883116139
Cs 11.692395008257115 12.941223304799864 7.861215573820835
Cs 4.888921638175214 10.448082221723073 5.975410959421261
Cs 7.251569392083088 8.562863904675742 9.579038679891092
Cs 4.344127913924324 4.206824292251646 9.972754076076404
Cs 10.870938238744145 10.078251140980674 10.026493423687251
Cs 8.153430479870934 12.808576481397212 9.778368378633765
Cs 1.2526611736427935 8.330598921449175 8.12698239907823
Cs 8.972279511773733 4.992717112279074 11.733750369742221
Cs 3.6600199637362754 10.633870216080693 10.175244739101256
Cs 8.319618823682829 10.206690342102087 13.621811929301908
Cs 4.108509957611124 7.219245968637505 12.873268837192363
