16
Energy = -10.29217778 eV
Cs 7.996191788326369 14.772606634815268 0.2991311705525811
Cs 5.7838915837327205 7.559278379115697 9.796787880706708
Cs 9.6853966164912 8.419979135605967 12.131339997313365
Cs 9.357842541722258 15.44810090178466 13.951352057897465
Cs 6.775598828041164 12.13433218595524 11.039052719409534
Cs 12.412513254790651 13.676498948652199 18.204074522035206
Cs 11.448348356704269 12.963694832236065 9.811641303622231
Cs 17.846471610094014 11.284796215360403 10.398013944200844
Cs 13.78983825190769 8.829108864381501 9.31602476890407
Cs 14.68036243393964 15.460053712056357 13.677392578739425
Cs 8.70273711564778 10.787168614625383 15.869565848149065
Cs 13.648670550166033 10.491749905963212 14.063136228494052
Cs 11.576693255647966 0.2858343658108434 10.906958834533308
Cs 9.35784254172226 9.546266425490764 7.3238534269727
Cs 3.283695812571466 10.748061832103186 7.878010878983664
Cs 9.932652254544216 4.7227891688737715 9.211846360716459
