13
Energy = -7.83285693 eV
Cs 9.776051186768091 4.526122935998685 3.0072894837983415
Cs 6.4533608981099 8.086854457320232 4.696085015388867
Cs 9.813091863644273 4.150414309664725 7.8605297517152595
Cs 9.232789599279476 7.882853330089227 9.90662770884159
Cs 5.961917012414095 5.863084770677831 17.28550346114774
Cs 9.813091863644273 0.019845537549374875 5.525107040533881
Cs 5.164842242603991 1.8911670429999996 3.184492990199498
Cs 1.7626335397858042 10.795349712308186 6.110726351818248
Cs 1.9232134163321666 8.935292894359858 1.4196884122822315
Cs 1.1368472123923463 3.9637641220166207 0.2716379007205017
Cs 4.157027908454253 8.20578060795596 9.797425717997147
Cs 6.5670536177443015 3.774130994468624 7.808828123265198
Cs 2.01187117803815 5.416910028238566 5.419819478288759
