13
Energy = -8.03758131 eV
Cs 1.4381147028627186 2.009123541876664 6.390764850025637
Cs 10.08031546208848 6.36682232203294 10.356262491301441
Cs 1.5573220047801248 6.775690257862778 8.44147772651693
Cs 5.662673307445922 3.719258784101831 9.672794366772075
Cs 5.420705584358262 8.3965433992813 9.672794366772075
Cs 6.003847309510894 8.470283554185208 6.734620519344072
Cs 5.414276246413827 8.679968781443264 1.4451430300289878
Cs 10.751616412343465 9.694862672425257 8.669065985190477
Cs 10.25894949004915 4.730567202904801 7.61766917581342
Cs 6.231764402862111 3.920043681527396 4.198767333514927
Cs 1.3814976187432562 5.8718604123677025 3.109460520696293
Cs 7.2039097176233895 6.099887735351392 14.844193696339293
Cs 10.19474830755712 7.748234703796283 3.3438479348081245
