18
Energy = -11.89105094 eV
Cs 9.228418994098394 10.098169326905339 0.7983922116012283
Cs 10.74775248712246 8.884152047387353 5.071390097136442
Cs 4.537624449850591 11.73152423468776 2.1009733375776647
Cs 8.041555923800415 11.961867631559208 6.160625347677199
Cs 5.91819366398479 7.35821412502383 2.8799517068875433
Cs 9.676711981609964 4.000999572041241 4.411350007930547
Cs 9.801210532229915 9.533981125884262 9.6498184888314
Cs 13.0405053320351 5.378147679526389 8.199143499350388
Cs 6.931348934227212 7.115673274227463 7.999040720683663
Cs 6.4385088864853355 7.928352926630477 13.439840159907396
Cs 2.781679333917783 9.533981125884264 6.417302155806386
Cs 10.884158986023712 0.5059700861933849 7.779362412330617
Cs 5.488586560398017 11.135852397813254 10.055563002219646
Cs 6.547418475415689 1.1632171147933337 7.644308021054701
Cs 9.677726117876913 4.24062155319798 10.626495677040758
Cs 1.7011309151925875 8.079534066825905 10.473259561747582
Cs 2.487615599789714 4.943722626009865 6.845914089553762
Cs 4.273689444349253 3.6006682750356998 10.888202740889714
