16
Energy = -10.40084413 eV
Cs 9.807106035872582 8.321156754283612 12.884584886657793
Cs 5.6383233073887675 5.705833571353943 13.6261109550541
Cs 5.44445490800279 10.837493495904857 14.278609697457249
Cs 9.899828946625425 13.093443664963413 14.437573495063848
Cs 7.884505045816939 3.9060345099218776 9.26337764064953
Cs 4.436896450019927 8.934224246624668 9.556594400486729
Cs 7.390492414572358 13.369351913435347 9.782801880021466
Cs 12.316304757875681 11.800032864761274 9.6871106061648
Cs 13.23809823896259 6.570650849366272 9.244972921221782
Cs 8.993270732294876 8.855580259034037 7.724560341585538
Cs 8.984554731414613 9.149765065328896 1.1109484333176542
Cs 6.167576627539478 5.894887207933644 4.708186069728122
Cs 10.96539592886493 4.561463629732626 4.8564144683484285
Cs 5.63392503482237 10.901525410607507 4.830449011989776
Cs 10.429660281057243 13.252340044824784 5.020061117345533
Cs 13.447990551268612 8.934224246624668 4.713294827195496
