16
Energy = -10.12854635 eV
Cs 6.618120718592109 2.1249947986514557 4.835259745614536
Cs 13.641485758764832 8.806519813665131 13.535843114108166
Cs 10.134878149876428 5.769407506333516 4.702689002541069
Cs 12.414709686945324 6.602324127918818 9.201723305949118
Cs 9.729810908949247 4.436530978797857 12.942559719995003
Cs 16.772657913006068 13.930938443665639 7.570738224948898
Cs 1.6745955027168642 13.808980704178715 11.125096113680968
Cs 3.480502911203434 9.706608576308167 8.907325487353278
Cs 4.863969066067768 7.045938717490552 4.689496452491141
Cs 6.872372450239178 14.036116949254867 10.624009155709203
Cs 12.301645664528108 12.570738040494179 10.24160293520103
Cs 8.627262392647614 10.11183116379118 7.162788111610273
Cs 6.616311647615393 5.365330774027139 9.188461116313228
Cs 13.645710020323337 10.127777858263642 5.8052835228411555
Cs 17.44076352643545 9.706608576308165 10.112116400815363
Cs 8.516531450076148 9.453220963517909 12.137186914158637
