15
Energy = -9.74464905 eV
Cs 2.3556701527877353 2.1574629364090026 2.1793514287026627
Cs 8.965213859608786 0.8667255996962759 2.82337166863104
Cs 8.965213859608788 3.4337135128152623 1.3536088011410632
Cs 3.477755576482381 8.756156161837955 2.4659051361961764
Cs 12.619843655031865 6.983082042096366 2.4157876373864595
Cs 5.557901603151128 11.039281695404407 2.0450272995295284
Cs 0.7320567537190547 9.501252580937106 1.8988853739587743
Cs 1.5352620684934246 4.858977648083408 6.343119489124241
Cs 6.565863268098966 5.061287811593414 5.014120419634218
Cs 4.003349168894422 13.952681942892017 6.188925887282092
Cs 12.260325681705623 0.19195553654752967 4.292386169884555
Cs 0.4394115844882801 4.373579420938745 12.280692988621627
Cs 6.154948588866498 4.421620653144042 13.854233891669539
Cs 2.9364359607103583 13.52684622517546 11.982412392286708
Cs 11.839529930584495 13.267321393995484 13.270952230339706
