20
Energy = -13.66111751 eV
Cs 6.281212499096421 9.304757398004368 2.321704543074849
Cs 8.459586691321096 12.214256356918282 5.313524311770017
Cs 10.414703723216022 8.07790810663068 4.115389792436698
Cs 12.508832388941112 11.442567700833761 7.307515686502569
Cs 9.901903583466162 15.872728996486808 8.760550845099925
Cs 9.213722130395045 3.5609740704249475 7.245523510993603
Cs 3.411761156510555 10.30121411200594 7.12791567025037
Cs 7.531996707296698 8.081926697310854 7.777909103803617
Cs 14.070482274995841 14.410191612167017 10.882341979950157
Cs 12.892591021317648 6.951259634847908 8.865358812649758
Cs 7.552920360292705 11.756395678818391 9.655292000220209
Cs 11.63504942808511 1.6627402707021735 10.80996398879996
Cs 8.87257540652695 6.150667335725905 11.540219656467965
Cs 4.093133373150821 8.746105477769396 11.401303676197676
Cs 16.988976636659885 9.753906941075028 9.869943710836118
Cs 11.209530040014794 10.0047906155203 11.383959315227548
Cs 13.090654742463036 6.311547786947397 13.227115566857602
Cs 9.21162886855004 14.465492355039617 13.456752064948589
Cs 8.381223454964632 9.753906941075028 15.447709258583284
Cs 4.773998268160858 12.456671834555864 13.986489260753913
