24
Energy = -16.29680095 eV
Cs 5.808729479874909 18.131777214701547 10.171218467350407
Cs 10.273284836773334 15.438282368481417 12.175749664670496
Cs 5.6942473002008995 14.747136770858681 5.423082518758445
Cs 10.753567894158168 15.293222296079831 7.4019821947500715
Cs 5.556474144129542 13.084746056677883 10.33265976652489
Cs 9.926543540055754 12.902240534040667 2.892682266772705
Cs 3.3881105743558977 9.158597279736133 7.042112349887686
Cs 8.680990463326332 10.191304289485855 13.218757994568582
Cs 5.801016471741804 10.021469207247097 2.5899212119801125
Cs 8.706847211111059 10.320488004359506 7.5959821369227445
Cs 3.5085948911501785 8.805001464097554 11.868924311096556
Cs 13.65032739051445 10.909420899313986 5.817405974783575
Cs 6.646588353155151 5.534971659678277 14.166483797056076
Cs 10.60480202280361 7.607984408716147 3.5096017993244737
Cs 3.7297282362524 3.9895656580325416 9.599472968017873
Cs 8.547281351925896 5.559649863858127 9.105345754426835
Cs 11.637430860433085 5.829106233787597 12.79802008328223
Cs 13.511047075278967 6.365296060192976 8.000228968071312
Cs 12.909463391552556 10.909420899313988 10.914524922653037
Cs 5.986581658627471 5.140567446810734 4.58361957660236
Cs 7.747976832652852 0.7945943109570411 12.254398085156017
Cs 10.785865197615347 2.580493156233918 5.121303434200573
Cs 12.00474779298104 1.0520889675510505 9.899469826933185
Cs 6.652983580973229 0.31091992181408357 6.837400171034776
