20
Energy = -13.31534058 eV
Cs 8.505073008693252 13.982347257884175 3.1703173410727983
Cs 9.003952238517284 9.161996457920198 5.096516212329712
Cs 13.221775716740783 11.930421293523457 4.86051736218783
Cs 7.840695600217284 4.271031078524796 3.905773553786049
Cs 4.805894566733123 7.0391548848301975 7.2844241091286435
Cs 12.797519825155993 5.869496021619351 4.480783390031563
Cs 4.978529258612163 12.107204742308301 7.182362187639701
Cs 9.685995760861145 14.326109759291008 8.256332816706646
Cs 13.531863071344787 8.614991705615118 8.713332436817158
Cs 9.652170764997345 4.4815089625287 8.75218948403985
Cs 8.784802383561999 9.548306941211566 10.224681561473346
Cs 13.923985919158952 4.687243812859767 11.801865440720107
Cs 5.092013564112761 4.039634175276386 11.26551058823337
Cs 3.501942629388986 9.161996457920198 11.780829545373138
Cs 10.489716854942577 14.019293350865876 13.34215928369294
Cs 5.624890995949104 13.767256949820132 11.933744484395705
Cs 9.196872899436224 5.778336069659187 13.745936930863907
Cs 14.664404492721118 13.105356307011071 10.22743857130419
Cs 12.862833965163736 9.404187718465762 13.894022320822545
Cs 7.635904086280122 10.237660410226075 15.748448359356287
