24
Energy = -16.60603598 eV
Cs 14.482700055093307 8.932175679337577 2.5258267501175076
Cs 11.343526181372328 7.345299936495237 15.127885365620235
Cs 6.696836873994774 8.815588224927424 2.426805682544909
Cs 7.372119023448447 10.437394987312599 17.3183428364397
Cs 10.709500660139122 10.091997182917162 5.823862900914611
Cs 10.035915283682082 14.47240262958694 14.959584984279667
Cs 5.946986552917179 8.402326208484077 7.864868908838568
Cs 10.983676901119551 5.801052912507917 9.829769348065552
Cs 15.375582259273473 6.5781582345015215 7.121398697274327
Cs 10.695702980046473 10.819940484036781 11.100331429074249
Cs 11.01865459342639 15.047018932544374 7.9794787530167115
Cs 6.705602741315727 3.073151818238798 8.564642729147199
Cs 14.705408712793028 14.291476487288278 11.916060338026698
Cs 6.33437954218534 7.371949609092261 12.882869803390907
Cs 6.988078077891131 18.476832027624607 8.290293273960337
Cs 15.12443990181174 7.098265938087308 18.715982699414752
Cs 10.4219304107342 4.912020122932319 4.511874791707933
Cs 6.33910833891852 13.434803910444455 5.886757509332051
Cs 14.079925697741215 11.85793880660798 16.719052995049136
Cs 10.035915283682082 6.332459123825118 20.30417096629677
Cs 15.644389886568355 8.684194007891323 12.141968618325889
Cs 15.53629717687616 11.853545366891138 7.370820471420623
Cs 10.8027331166065 12.142897051005802 0.21755918254303933
Cs 6.075653732882567 13.271476202382145 11.342407235092141
