22
Energy = -15.1635045 eV
Cs 2.561702156295182 5.134621104962824 10.053288813871761
Cs 4.869343034330695 8.425608515615851 13.345247872231496
Cs 8.508036257188751 5.042113724975563 11.440337449486972
Cs 0.5211242638712611 9.511765439735715 10.064161722948104
Cs 1.6011970886592617 7.753419581495315 5.432275807708772
Cs 6.337283877898656 4.612959296622615 7.034892070825796
Cs 13.439246703650063 6.094121165397338 10.862378778462444
Cs 5.568969305521517 9.511765439735713 8.27256314623476
Cs 9.587036402746806 9.56149932991077 12.276715303769365
Cs 1.0596003618080077 2.7141629532313596 5.955090080926982
Cs 5.685519126621941 12.639239230747512 11.143544015734989
Cs 14.390587633111881 10.330942909446467 9.339588548486136
Cs 9.658693477992339 13.024615371645567 8.662729369488448
Cs 7.58216039223302 0.11035843894443784 4.760632473068998
Cs 11.011781809581237 2.842956819822611 7.584282356896071
Cs 4.873318287833127 4.447744673819417 2.162987195718602
Cs 9.92511213644645 8.123603841061259 7.848871898917036
Cs 15.228121680825534 5.817086494654498 6.1039178178266775
Cs 6.238243765136914 13.708164804925623 5.3955684420233405
Cs 6.1170566013805345 9.48246264662788 2.8488092337056243
Cs 9.656492223147895 5.675461230850807 3.2345650762487668
Cs 10.46052437558205 10.757982740179875 3.912484975443765
