26
Energy = -17.18976629 eV
Cs 8.497067343638788 6.053138100445773 18.78473994300569
Cs 7.1502491221563815 10.806756970632605 16.309108768960485
Cs 6.59489483012559 5.913932231084292 13.753704341340367
Cs 11.391293927639008 7.96495461913428 15.125051371446789
Cs 3.4777294675329116 10.803041014859971 11.986566355112846
Cs 6.910877325238049 14.389747408464485 12.908147234484206
Cs 14.446747736118118 8.914215040194527 10.936275756885776
Cs 11.366175925338787 4.71972239969857 10.67083486602212
Cs 11.745670034423918 12.777691009697369 13.498407372087922
Cs 2.6551754658004434 6.182116433026936 10.258786208232094
Cs 6.643923654058313 2.990613942764037 9.3686108705693
Cs 20.95886241282408 9.854869649789617 9.854692278740552
Cs 8.781008763895715 9.58388712833402 10.92717709903707
Cs 6.4802811478922955 7.284785442690105 6.3427590892808166
Cs 15.40738023387047 4.839817353722545 7.39783960337536
Cs 13.089652109457852 12.82918838722953 7.963362461349728
Cs 2.4085431401103614 10.53539936272353 6.586527339805189
Cs 6.89424329513596 12.954668402822296 7.683876416930067
Cs 10.29159064863391 16.465206304556325 9.81888216502867
Cs 10.40528718495806 3.59870862468362 5.510851919107054
Cs 16.88485261331679 9.592955795400623 5.785129430488127
Cs 11.366175925338784 8.63686775372749 6.096242041778881
Cs 14.549462569222408 5.885316563460173 2.4318169596927612
Cs 9.601165952982342 6.610958358498136 1.3037633523224343
Cs 7.2914767475914335 11.309726909383798 2.8054991917559287
Cs 9.598392255294064 11.075851428912317 20.945562900469135
