22
Energy = -14.81149953 eV
Cs 16.06407413069262 10.71636879750163 8.487072380147593
Cs 9.280925763673629 10.220088038527914 21.431321948037905
Cs 12.879556503326533 9.966225951468171 4.216760496505999
Cs 13.926149377308281 5.302937639298587 6.858117201015109
Cs 13.686863016996469 15.14912373409584 6.20672378413286
Cs 13.789184534309458 20.903933637131633 7.002220372813308
Cs 13.412513305016141 7.691595823004814 12.516903643654524
Cs 8.521255212985562 12.88753740702353 5.793184536067703
Cs 11.555781369113335 12.906097243732221 10.951763946882753
Cs 9.684957432205902 17.692951826049754 8.752736752717027
Cs 7.979760817574039 7.0070017287795885 4.087863260832745
Cs 9.801544553270693 10.737282336588905 15.801046975623308
Cs 10.737463756689028 2.742271514331858 9.944878158796334
Cs 9.801544553270695 8.382385922034922 8.721205025105814
Cs 7.53947568784617 15.552688060022858 13.516347933121347
Cs 4.7436020796211995 15.000176439509808 8.879614009164989
Cs 4.208082793495057 9.69109367487858 6.485007225729919
Cs 8.218751784527056 5.828586093303922 13.664280717975013
Cs 6.3476852605127005 21.034510621411325 11.406654373359176
Cs 0.21442857723620112 11.532057524853057 9.396418660316339
Cs 5.555060693989823 5.027491620362003 9.009534069440875
Cs 5.931763489290424 10.599780581987277 11.7959381740027
