21
Energy = -13.93118074 eV
Cs 10.602228425526427 6.9288342713063775 17.1429570035553
Cs 14.64077493058239 9.676142465785126 11.526898011339586
Cs 12.04040120957545 4.817250708791189 11.923491893615555
Cs 17.656453394108826 14.101719776552716 7.3414946883829915
Cs 11.900823763021192 3.260133737023727 5.213855722615275
Cs 12.432031801200141 14.921628673924486 9.930151922206568
Cs 13.448801459602787 11.753140092497109 5.088606251427736
Cs 1.5624429021120103 4.189416010448984 4.7105262612128955
Cs 10.862097983503048 7.818720060447049 1.721952911680786
Cs 7.192333019052513 13.239044219448253 6.660533269884614
Cs 8.884295105648365 11.38348984685188 12.837512547925838
Cs 6.298932542735964 5.745976481549757 13.23916201110222
Cs 10.069190658649356 7.742112448269132 7.443239596987748
Cs 3.9162806616536865 10.713637784980785 10.867641042720743
Cs 1.1901914124516038 13.092745686101233 6.136487500780805
Cs 4.596785445178882 8.225798779222657 4.847492248822727
Cs 6.411561875165984 3.3836427005916345 7.71097196418214
Cs 15.741613148924285 6.137876048512606 7.169428053627871
Cs 20.122641130315525 9.676142465785125 9.085979134901516
Cs 1.8154042763967404 5.060121558802901 9.730018028311411
Cs 6.776591528868349 3.903770241413165 2.4701979796515063
