27
Energy = -18.82294915 eV
Cs 15.60292216610067 12.416926662091031 13.278732045773099
Cs 17.031838840471526 12.084153173778182 8.524052757298945
Cs 5.287501611090722 10.545759896517987 5.329818223443355
Cs 9.349218452515805 3.145948389584107 7.344545097268823
Cs 4.267896320318048 1.3817456794167076 8.561084946272983
Cs 20.38741869280993 9.30381448359235 5.799112626133253
Cs 7.621762196959586 17.22118784126825 10.748312635980177
Cs 12.764557945888212 15.873257464362922 10.2120881280665
Cs 2.984004887571339 4.405745148985355 12.483419383960161
Cs 10.554139192629922 14.20842898639832 14.43374641439028
Cs 6.730479058852071 7.0738661727530125 9.435952586760665
Cs 11.859667935580857 9.321654207348706 14.74727200524182
Cs 7.878513463330011 1.8059004932455751 12.238597280278654
Cs 15.10415706392115 6.58824724868673 7.269125735122006
Cs 7.49556192867802 6.852352306336386 14.193365834023977
Cs 13.519725288011292 15.082295329873242 5.181802317190185
Cs 2.0341397558353624 9.451545621853493 10.745855047515631
Cs 3.8581703010958317 5.654583553345868 5.434586460327337
Cs 12.13527582858798 10.460668144236312 9.597684891758028
Cs 10.386399783009864 11.980869769319225 1.9264341196301589
Cs 15.013900981858429 10.460668144236315 3.8927335739090423
Cs 9.064334179899388 13.66061803793886 6.956977929953567
Cs 11.738891288361472 5.435404935848146 11.187906198880485
Cs 20.269777118789058 4.759058309686866 8.66353184126843
Cs 17.284633691427533 7.880150366297507 11.821206804004667
Cs 10.230510757299728 8.241777014438243 5.426053877315238
Cs 7.363011099714518 11.57944576288413 11.442074382556171
