26
Energy = -17.96990951 eV
Cs 6.292471211711523 12.796498170523607 3.590216631006292
Cs 7.235911765009115 17.43924850531777 6.322045919331665
Cs 3.3975054616825724 14.262177999351605 8.094473960779927
Cs 10.794659809891394 14.79124179939289 4.660586973883339
Cs 3.9758492866233905 9.778930270161306 6.448350835140775
Cs 8.199390109685845 8.77317951994121 3.1055237300378273
Cs 8.789485033409695 12.66135234053076 8.170866160639482
Cs 7.094799232567861 16.195232410690007 10.890207429152873
Cs 6.297027068527087 4.561379396751217 5.908461248364434
Cs 11.191935361821853 16.897719103830138 9.564546752274412
Cs 12.051592031028926 10.246538984164365 5.062990540425037
Cs 5.023865542833348 10.81976260170692 10.835373346821935
Cs 8.748427792319907 8.858282633243364 8.336444046828328
Cs 13.99312622224748 12.492296785377107 8.65787652412287
Cs 10.957714449120363 5.2248108268610345 5.321661558375709
Cs 4.556145161701337 6.370983262627961 10.835373346821939
Cs 8.68378104564305 8.733144313344821 13.211963784124801
Cs 9.602174230100955 4.57134313995378 10.38856239472455
Cs 10.501906871598065 0.3810024294044651 7.010929689133417
Cs 12.710895869448091 8.476744439892153 10.587306583229399
Cs 6.00468062213869 0.7066556657834364 10.163955194003805
Cs 10.559883027948011 12.122909231306977 11.862960225039403
Cs 13.39125737980809 2.6789011277030768 10.162742901026943
Cs 7.256162947258132 3.651622839825012 14.093729730429944
Cs 10.538845176051332 20.813645757223494 11.97690407875703
Cs 11.730485004702505 4.995701717305624 14.031478898896848
