29
Energy = -18.9640854 eV
Cs 12.579097257465984 10.003161212516021 17.318799100710837
Cs 7.006808447933934 10.68127229813163 16.75986878369543
Cs 14.481028590256912 9.984571478513313 12.472248959982878
Cs 15.267091521436825 5.6585297418665625 15.431210014275923
Cs 10.258814433855871 13.955204513653385 13.811308966738643
Cs 1.2486918550652848 9.8863845157391 16.418657725872638
Cs 9.69485416277231 6.049444714383947 15.030430474538274
Cs 13.390394223596564 14.33151494395534 9.02778942238681
Cs 4.1613103924537995 12.592984475589189 12.575198441389146
Cs 7.689369081216041 14.895417782257516 8.74369986073153
Cs 15.841752226994233 8.916479908899243 7.150208744446918
Cs 16.766608018591555 4.703054341541927 10.264169072612315
Cs 4.306343229937765 6.735681608385187 13.768224080309514
Cs 10.259047882035272 10.409104902454043 6.30480531737713
Cs 15.467483893103928 13.317645221984822 4.290337335497066
Cs 8.275697865593648 9.47222201908435 11.37386775532703
Cs 11.979843064699555 6.222784169485907 9.547893347748321
Cs 2.268021994574958 15.299672796398298 8.085430603432506
Cs 4.445831295895392 10.68127229813163 6.885117831914865
Cs 10.378138841785367 15.4270520355595 4.036815164193942
Cs 5.266413350535319 15.434341578136745 3.905356170607327
Cs 12.71370741412104 1.7510385238008845 12.603909767601655
Cs 7.294709304229768 3.125895435037118 10.937699418237106
Cs 7.1645651221952695 5.941412564243915 6.240160343375106
Cs 10.661783153001576 1.7477010897155127 7.122744208821483
Cs 6.860184877575799 10.25953279014459 2.1347559329235697
Cs 7.136195380220121 1.8676987468741597 2.9729423272661175
Cs 3.87931790987519 5.782511512623976 2.0109338009349638
Cs 4.330012342200552 8.193013918874383 20.49204332745008
