24
Energy = -16.72450957 eV
Cs 11.210502925949676 4.543348772440986 3.6680757416605836
Cs 10.063328467465976 8.80190456599464 19.540154850710078
Cs 15.428316561013304 5.5666356607931515 7.157704698237022
Cs 5.504206450648031 5.098219492701427 19.627279231346098
Cs 12.445380613210325 9.668238675454035 4.940846731934859
Cs 10.452427127569395 2.816270199580012 8.681643066751475
Cs 6.180779081035247 2.666163094273438 5.197667667852126
Cs 13.704646491629243 6.323563786887436 12.281937130961596
Cs 14.65318956433367 10.683975074654553 9.955515159031581
Cs 8.546016209471903 12.686650828697335 3.422010785323369
Cs 7.531366269639175 7.695333763485738 4.493471452044676
Cs 4.671724750622769 9.963400377672642 0.93154820986927
Cs 9.943818740841678 7.907561066183422 9.051021053224185
Cs 5.451130843390405 1.9452978722476066 10.422704729544497
Cs 9.63301232822183 12.8338569785579 8.847353269978907
Cs 2.0747637647948567 6.441183466221759 4.020558253055038
Cs 8.306236771525043 5.804615734871436 13.431124088625824
Cs 10.592998618395841 10.438014542602208 13.925477557142017
Cs 0.7110860983338645 3.4170346118936785 7.924416540964425
Cs 3.15146125225027 6.207779030628063 14.009230489161165
Cs 4.436469021962032 11.320621585713017 6.691011884266363
Cs 4.882347524134529 6.654593767534687 8.837231780214875
Cs 5.704531589249976 10.578655809689751 11.911472773296955
Cs 19.797190430421093 8.664727506504438 9.95551515903158
