27
Energy = -18.74444521 eV
Cs 14.224174442157874 15.02911430323165 5.276132429523113
Cs 16.726459599772 10.436852669887264 5.550747226865084
Cs 11.876897130015738 11.116553061374951 2.6713043672960444
Cs 9.461571842291487 15.821442436079295 4.345416916734709
Cs 11.382802950895325 17.392338352553377 9.064305274172472
Cs 14.354012219151041 12.534448732418483 9.951038731715302
Cs 12.143082120482509 7.25286699985336 6.509163071407244
Cs 9.983297950376208 11.263373583225706 7.7674205214587015
Cs 6.427229264116357 11.396262566933824 4.094765556213593
Cs 16.458519094414214 7.475910213316375 9.990531958930664
Cs 6.298682265074174 15.18345530655098 8.553526782283658
Cs 8.902883301843483 7.236481239511279 2.2729449994482667
Cs 10.081989530792761 13.734643931360987 12.41283676755139
Cs 11.492086540176237 8.780378399172463 12.005068530132997
Cs 12.019290433604777 3.552508202401557 10.206871939670611
Cs 8.911486390460537 2.9000057246092306 6.182892103383413
Cs 2.10243909716504 10.983593655287528 7.611722905543293
Cs 4.876179598134486 6.980718726982715 5.820424855370469
Cs 9.049747814622247 10.088983237005088 16.4550882717071
Cs 7.404116817411833 6.17150178235521 10.206871939670613
Cs 5.919379130167172 10.576423589303154 11.34239743556056
Cs 8.017254521132712 0.15353457750491292 10.97431728490487
Cs 8.928419631462846 4.7049017484371705 14.522819029980292
Cs 3.9720876628921364 2.2274494816741557 8.256491023173153
Cs 1.622211926625565 6.82240803689301 10.440796878613604
Cs 4.398453388433529 7.49785091662799 15.136782206871711
Cs 3.9799445236937574 2.7765782827862786 13.083980369172684
