27
Energy = -18.79687182 eV
Cs 5.102803987716605 7.173465851689594 4.8737138802262665
Cs 0.7665307036156407 9.228885801247225 7.815931684204298
Cs 5.997003975675916 15.34781518721116 11.80883239001081
Cs 5.632107922280942 1.3879843218012409 6.530462109707331
Cs 8.584303060511466 16.57728867937355 7.434121636216556
Cs 13.831964835547272 6.407013005082977 2.6968540143548627
Cs 10.875646797733822 8.975811627327953 6.570981601488395
Cs 1.2755754634198433 3.9570576219024662 8.340334059922494
Cs 1.908344144864149 11.43542489953183 12.151814287540137
Cs 7.294336809486541 9.839681970835493 13.84777795361415
Cs 7.938140712629203 4.354454821468663 14.0979452850601
Cs 12.811591211035031 13.689026390886019 6.434402054587787
Cs 3.197648893202133 14.229584725264663 7.6808543247739784
Cs 12.290651713864925 11.14415228046224 1.9067831862329325
Cs 7.681364524909263 12.176320308967176 4.266674770673556
Cs 15.749684991883456 10.267397665330241 9.882033434509562
Cs 2.80623518948663 6.555513061721916 12.425796010241154
Cs 11.393594009448588 7.276870529333161 11.278753868087742
Cs 4.604546814495856 0.7778423134487423 11.498124172817814
Cs 6.374138269951427 10.49283610170643 9.094552240851874
Cs 10.503205152407174 12.559224425888964 10.762340474694248
Cs 8.713396365501966 7.688126825575862 1.171887733464075
Cs 6.797123570809072 5.736463377522372 9.471227008626906
Cs 10.090279184040297 1.6333588262320018 9.988109177848566
Cs 16.750465399220396 10.26739766533024 4.620363840891782
Cs 15.13948464880251 5.513117899906238 7.708193330669944
Cs 10.075689699678028 4.028233559103133 5.2727515255826365
