27
Energy = -19.36301521 eV
Cs 3.9949363381478933 12.361446574795146 0.588427876023567
Cs 3.122428369809166 12.87075818506994 14.57287106814558
Cs 18.990680185368532 16.114470005119056 12.483467499450013
Cs 19.60510481965206 15.223195009564664 18.09693748488336
Cs 19.707876108357194 11.487085700170187 9.88705506039467
Cs 17.2212870089391 11.517207144935618 14.704911134750041
Cs 15.445598318035241 17.922827488227057 15.758963523413874
Cs 13.997102696891053 13.75737930881636 11.023853114331517
Cs 18.060997148885306 10.143527898986976 0.030744905120546128
Cs 11.29278955814398 17.974806882569528 19.302548987253335
Cs 15.015695844172091 14.370079036592943 0.8898851170705686
Cs 12.331041278713009 13.43922444350233 16.141019987437947
Cs 16.52022785299423 11.092421419596546 5.402629263373916
Cs 10.520806337174404 17.91244223528304 13.677985421140383
Cs 15.233080801971422 8.854049595028181 10.259067844941839
Cs 9.507006172311675 13.729182195005647 2.488745578797482
Cs 17.557594450239144 15.70129352686685 7.403527616920813
Cs 7.215085070989603 15.599802175847097 17.295661528104127
Cs 12.677204625905404 9.575659392022892 1.9154115084455372
Cs 13.750172604105007 8.233434757751784 16.609370305366586
Cs 14.519118484092491 18.890066711071512 10.191566976068058
Cs 8.015259499021845 13.444768737390813 12.348990286599687
Cs 10.743274260100133 9.57565939202289 12.621587914276805
Cs 8.719488118579404 10.417506044742396 17.7847038743141
Cs 11.483824490732419 11.37432413287488 7.21753927875198
Cs 9.796254090478588 16.36356690714439 8.695484906702259
Cs 13.20227989858988 16.984236915359183 4.961733028683467
