26
Energy = -17.42159948 eV
Cs 12.112711303567723 12.735251430403984 10.696926637398379
Cs 16.550910477934476 9.566617189590291 10.83945906387858
Cs 14.049238083828788 11.085651523044456 6.2122616930907455
Cs 7.84671970725383 15.78625537245881 10.07091348188062
Cs 8.500539335598765 12.119290454565954 14.16633930148247
Cs 14.804630902560524 10.947459394461564 1.1949316772169978
Cs 11.480479005892084 8.467042092463293 13.476331322808237
Cs 13.090495820831238 6.7349672122459285 8.404131537103462
Cs 15.196282004514543 4.826694114312401 12.60743348997018
Cs 10.750586235260894 15.189004222075095 6.34982157431001
Cs 3.401796208586808 10.187712492613986 15.192936943796983
Cs 4.552270719409208 15.308190018162572 14.421121449003753
Cs 9.401979904085707 10.187712492613986 8.117838762830146
Cs 10.210466228743245 3.7909776569063935 11.342492104985602
Cs 4.28395771515034 11.848527540913038 10.21117794823954
Cs 10.19246083078485 11.964143200445871 2.37021096871611
Cs 6.101910971985333 12.884307693494085 5.726144839132839
Cs 6.707829215426267 7.777316844974331 11.866421530724319
Cs 8.774188085238935 5.053092511376228 6.708368192946745
Cs 11.866943037057688 7.355445705713938 2.923054484527762
Cs 1.207464064307762 6.983169634190465 11.617765232742137
Cs 4.123519349982345 8.12497697437596 7.370478866070597
Cs 6.9796198362563056 8.40248021678591 2.989707201521629
Cs 4.2994399049170635 3.7939219887874884 4.1627973143725345
Cs 4.789753055410299 3.31386658730209 9.934989561498298
Cs 8.892619402834647 3.5215795581184812 1.5302125337399375
