27
Energy = -18.73163709 eV
Cs 10.549549581862657 15.75399714252498 5.557750328597926
Cs 7.3864287868853475 15.508452549821003 9.989160455671717
Cs 11.830091610693726 13.138159391758649 10.394801700033373
Cs 8.810516441473697 12.602065305769266 14.192374525281739
Cs 10.330140008208907 10.514459262250972 6.272099642897162
Cs 6.079058614943622 13.411243832878986 4.657394724819985
Cs 3.738355228498599 13.12637954306644 13.138636592365414
Cs 9.856015271035593 12.086620452257856 1.103486747066518
Cs 12.220508023705595 7.523691688299338 3.068685813620462
Cs 13.916598798746596 8.176481973989082 8.3923994960227
Cs 10.51813840353077 8.433312808644272 12.070898046541018
Cs 2.552019151869716 13.67908464569849 8.412768300804588
Cs 6.615387487353564 10.514459262250972 9.675650370455868
Cs 12.851281123943922 3.724977392938349 10.652315176841924
Cs 7.111824173669302 8.29164112051122 2.9474477555136187
Cs 5.703321468933205 8.407956574659694 13.900239763650525
Cs 1.0389638533866576 9.62200080460204 10.765934546615252
Cs 3.0425199460215406 8.938322652917448 6.180563522710922
Cs 9.075698827042531 5.660664742722882 7.63897820207803
Cs 9.58073299822352 3.8124537494580073 1.5012513360447446
Cs 4.039356657820889 5.335109944162337 10.107688504182066
Cs 8.28960822664047 3.5833162052051835 12.464737033419505
Cs 12.700533367084411 2.796947175218992 5.7990204011138795
Cs 10.79846709043815 19.530827592885462 9.74112115259992
Cs 4.95636015417331 3.729143173500095 4.912290253042104
Cs 5.670046957643287 0.2168483414460813 9.22191182744708
Cs 8.546822518657647 20.310230725059988 4.743002158332186
