21
Energy = -13.94471901 eV
Cs 8.674372006669135 4.017989184959884 0.9917386002470182
Cs 4.9145769083280815 8.537394308595443 0.11297322518431387
Cs 10.151035619524812 8.667746588154808 0.7252850468365867
Cs 3.794775545966887 3.648877153743614 2.8965965338853334
Cs 8.10993199218082 12.075515462491598 2.6143364169092447
Cs 1.1304899162269013 7.665390263446243 4.661253008308275
Cs 11.163593083137405 5.922484341699211 5.289378610366822
Cs 7.758481951636879 2.12334953245486 6.025654557222683
Cs 3.41421581289831 11.765095612389569 4.6624092465538
Cs 6.632389063004218 7.749417275324882 4.902754248352799
Cs 2.8959021314267765 9.659603158709023 9.279426063676238
Cs 8.077179148325262 6.91797135340825 9.499663181571728
Cs 7.653673830034082 11.659994288514907 8.039270861002136
Cs 3.116291004935296 4.263221057857545 8.257633368014686
Cs 11.037382742834446 2.5329240551882832 9.635062555220864
Cs 13.296172913318136 7.030851900052528 9.635062555220864
Cs 10.655094437139347 10.414373992284403 11.344594602620203
Cs 4.148139544536575 6.274274549326672 12.685070591351266
Cs 6.261192332413357 10.40096376173068 12.807304580468927
Cs 6.773367710806111 2.0342698382026354 10.886738463917856
Cs 9.685627703817717 5.9821777206255184 13.880288439126375
