24
Energy = -16.29989367 eV
Cs 7.774348267214717 10.534647678005788 2.2934818004176045
Cs 8.565037493448573 4.097794324884348 19.290606649116192
Cs 7.401302053552497 13.55424731172261 6.802473178470281
Cs 11.416053953399405 10.26948416398293 6.070160480505916
Cs 3.892383088953735 10.011409870229107 6.083396300802039
Cs 3.2323679850338225 12.891843407351855 10.21469059088348
Cs 11.303973750884394 13.912871264907903 9.986892698531497
Cs 5.048915472474777 6.527105782662558 2.161123357135261
Cs 10.440511930425519 6.34548714503958 2.993067294740025
Cs 7.23895210139156 15.501364497695144 11.810444393544351
Cs 7.274817346341272 2.182007434263805 3.730743469666466
Cs 8.174756364393952 6.835680404051957 7.210207907870727
Cs 3.597650494523391 4.5314256631324366 7.125674904505965
Cs 7.922294311310347 10.26948416398293 10.223341865253216
Cs 13.532526028722756 9.744035565946374 10.517200541212121
Cs 13.131313962270807 5.563383400783726 7.63523348698904
Cs 11.863214022093297 1.2374851224119725 3.7677176504086822
Cs 5.049872878160089 11.730480917064046 14.70044869530159
Cs 3.2123639915693554 8.04318537265877 10.913329217786572
Cs 9.789299415452879 1.7487824338469578 8.438079112314862
Cs 6.194870842939015 3.709464246896584 11.311672170538415
Cs 10.293740472098264 11.064843983024485 14.444413907107974
Cs 10.509469557204024 5.8226770098680785 11.938902349825174
Cs 6.870756479198578 7.251948475088763 15.219187637840191
