20
Energy = -13.30069915 eV
Cs 14.207570137410865 8.284759934112312 10.460713314622568
Cs 6.110612715943165 8.19084003710968 12.386706138840422
Cs 4.675438731579767 15.08091482855037 7.878749875348461
Cs 5.847694849022795 5.174880845378807 9.081204893305681
Cs 9.047402815968184 7.805098332462355 5.575484579626368
Cs 11.73368573430833 15.579453009007633 8.615957895931729
Cs 14.893924126304318 12.371295585517137 10.181625405847125
Cs 9.6018692992543 10.668114071940789 11.272247178021686
Cs 14.298357245276499 6.235800822060847 15.156479394520353
Cs 9.220199432560976 6.819019383794646 10.057945966319119
Cs 9.220199432560978 12.884679150460576 6.171694803036924
Cs 11.581229975632096 15.678806497550385 12.829031342979729
Cs 11.687911356642509 4.725806004624778 7.614064344414966
Cs 6.253871127892962 9.531139864423205 8.891835471639837
Cs 13.375749863389773 10.57189470634619 14.889240549291882
Cs 8.070427275263004 14.666207739740747 10.230599757859903
Cs 8.778788615130512 0.8387139532386481 8.047190741463883
Cs 11.753266174200645 9.730130767261196 7.761983252082925
Cs 12.669849781506091 2.630341696084182 11.420297691425908
Cs 9.563793672954086 8.113751598919023 15.235656658886695
