20
Energy = -13.2550409 eV
Cs 11.642736039208112 9.998966974537261 4.46788937500961
Cs 7.469784504822212 10.8826134280741 5.864318888179682
Cs 13.630758584360956 6.723276539179158 7.378580577974813
Cs 7.294834890926085 16.391588333908842 7.915339635244689
Cs 10.776485828958748 13.176495874593327 9.092095362303796
Cs 9.611533888232364 8.98824365347902 10.065959718335453
Cs 3.200454767222428 12.674402545027904 7.722583918220487
Cs 5.17500902040657 8.600271950483828 10.251764265742453
Cs 15.511914117230495 11.024906576614347 7.98566901624102
Cs 12.839722636448666 3.531096841933125 10.837421022016287
Cs 6.59962272989001 13.036019587455165 11.15515329610743
Cs 0.051439827738392764 11.119892934385614 10.90168115617609
Cs 14.77528374995025 14.388432139440582 11.905776167392268
Cs 8.493913124186973 3.849856305980433 10.09494297873578
Cs 14.273065314311932 9.242313174692015 11.859034846885152
Cs 10.48949528256522 12.036366633659227 13.898120400607825
Cs 6.590804424808637 9.998966974537261 14.845626191554048
Cs 10.27972630705641 17.807765996548518 11.400513534748365
Cs 6.205731730788957 4.958070625421601 13.906938169863423
Cs 10.297258692059248 6.912016515680727 14.402066357505143
