20
Energy = -13.47342616 eV
Cs 7.843201299272662 10.245024305197084 13.688709176751333
Cs 14.351293284750952 16.08937199059015 9.312577156963645
Cs 8.498584519577323 6.149795504884505 7.485439962965491
Cs 11.555313622206974 8.184892809920987 16.243179134900327
Cs 6.1235485920408035 10.390444767677034 5.827043821457164
Cs 13.534869217855999 6.86091859587742 6.494016431911979
Cs 13.354834823565701 11.867816279617974 12.657968906974599
Cs 6.23251153570296 15.233676212948241 14.74580349286506
Cs 12.027958660313837 7.2729812169243795 10.9688040874041
Cs 17.308209004213257 8.909174435425145 10.498118852344323
Cs 10.652822565886893 10.015036838909008 3.422367182140831
Cs 10.57411230417068 13.267644172674323 16.920714507739582
Cs 15.081622035259397 4.928328169585165 13.97001264726608
Cs 5.73535691934021 13.671166864027496 9.731235312195947
Cs 14.529070986169009 11.497713290154808 7.1687447124964345
Cs 9.728264570069209 10.760183253906325 9.312577156963647
Cs 10.102472757036264 14.72029628167384 6.408995528442429
Cs 4.392440812201945 8.36900771529478 10.098389736268086
Cs 9.998420092095131 16.113112159870056 11.852589255789322
Cs 7.972654633057113 5.295115676993595 12.79027517094514
