28
Energy = -18.52151442 eV
Cs 6.895929914812551 14.081077447019693 17.49264992582483
Cs 10.202689996044075 7.808721098732521 2.0312496415033205
Cs 5.988705648755317 16.3243333874407 6.2390371588760445
Cs 5.840621361388149 7.963048021577865 23.053219798608268
Cs 6.636604584912337 11.729665878257105 8.479901839631882
Cs 17.513288056307463 5.043044513871899 13.735103603640173
Cs 17.529207512648238 9.906282506333735 9.78851740644449
Cs 7.9338489661866465 8.263074953369504 18.232075689544416
Cs 16.84767478678239 9.819725289413 15.38857309337249
Cs 12.364655011084562 11.994639834823294 9.668390156345035
Cs 12.529678352047908 12.360104620840277 17.365458661230168
Cs 15.543852026166796 14.491982841784543 6.453858924773162
Cs 10.557818765195018 16.448697069855765 14.229218583423224
Cs 14.4946540068494 8.490018572553069 5.561167557285216
Cs 8.031659434992772 5.363755231430311 13.44442570551313
Cs 8.906012375288759 10.57899485189611 13.59000325919866
Cs 4.51334904759137 6.660843504657504 9.419142885978545
Cs 10.710592258268214 16.832459691283812 8.507117193278296
Cs 9.382194179171348 6.907337232587925 7.467877556089886
Cs 4.034074590003678 9.44932416478732 14.440270963108704
Cs 13.320613837722798 6.8816177853283405 11.196494316076897
Cs 9.115020792450192 12.537680138296746 21.97180268813196
Cs 6.004885215599988 15.65849324035774 12.019363675760944
Cs 13.034009908748502 6.457915649754914 16.70514484520636
Cs 10.710592258268212 12.798400372679476 4.627257600493321
Cs 15.647857437461719 14.630920426581474 12.906995419007188
Cs 5.241620462663597 8.493668822948617 4.254845449162247
Cs 19.198862040182586 10.754745679131872 4.847316357950573
