28
Energy = -19.94481303 eV
Cs 4.333109017835467 10.124105462257328 0.48779464745620416
Cs 3.2049492435276714 11.810844681469916 6.252611497338225
Cs 5.862548461997356 16.417528516376592 5.746364100681358
Cs 5.496290060763623 4.862460410736586 0.9866917789987409
Cs 5.122824442097974 15.251173250930394 10.867793985094053
Cs 8.815074124429444 13.444473472085493 2.1667242745444093
Cs 9.350470331310833 8.975208513502782 19.300242149156094
Cs 10.76702174348811 14.224441205649716 7.03406796213261
Cs 7.667070588230039 8.831446357403276 4.473211931096496
Cs 2.680209543970586 8.70774580440035 11.263628162490539
Cs 10.49678066385654 13.85226809895559 12.290907773220221
Cs 2.949328579646725 6.501141142963004 6.122690844548787
Cs 6.39348903858859 11.645836309554372 15.225858756315093
Cs 7.297694355376971 10.752647467346618 9.448949289235184
Cs 10.762838752615655 4.343774412853535 1.16270908772436
Cs 8.408557480799633 4.2200632667348845 6.285500048301074
Cs 7.041390343423248 5.863790621785522 11.075048749324823
Cs 4.467114680988998 0.9934937694844278 5.352812214906282
Cs 12.04813584825999 8.5593637989831 8.795137728244834
Cs 10.136304743093328 19.87864447042593 4.975992756718913
Cs 2.936362484521834 2.946164957081464 10.116311300372612
Cs 4.4328382204758165 6.90585636037448 16.286791201593786
Cs 12.68115051919246 9.080347028857974 3.560879623180871
Cs 10.547018956965841 8.346098983727284 14.048019229477084
Cs 13.681829504972697 4.217921866034163 5.878040256508338
Cs 11.52671371413436 3.1937310581941776 10.759970845376793
Cs 7.427688191761419 20.141063813908744 10.11631130037261
Cs 8.489650184425079 3.619195280701538 15.931318491886064
