21
Energy = -14.09312173 eV
Cs 11.173518561045567 4.461920997756997 12.507849222665623
Cs 14.586984108220395 6.662506768537906 9.072434950616397
Cs 11.312634396668932 9.668668215997497 12.525788946981521
Cs 11.780738370583753 2.610914631194362 7.020753105618948
Cs 11.559767183662043 7.110305247691603 4.438540562882343
Cs 6.70136743083237 9.668668215997497 14.329485690288465
Cs 8.790867496375228 6.7600176858352485 9.217036337651107
Cs 12.125192339489885 11.027373894101792 7.880598145277308
Cs 8.124510085522745 0.7877090052160731 9.612211897207668
Cs 7.422939787766169 12.116955243020557 9.389531403188714
Cs 5.995648404663624 4.483688713401626 13.077661535164218
Cs 10.228968140153905 11.985484615807255 3.3616744873560287
Cs 8.403762367100226 8.412698394341717 0.08402699354535549
Cs 6.630476863653094 8.797918454010068 5.410582981344466
Cs 3.7828135685792885 3.243280783680002 8.694277555500902
Cs 7.047741164043473 3.791225530882136 4.611935950275505
Cs 3.528667199640128 8.396537890921085 10.102237313364988
Cs 5.554021776746943 12.785734902749038 2.558578168345759
Cs 3.2603729302212123 8.258149381160104 1.1992750763793478
Cs 2.190683787057291 11.174375184863726 6.222141723007507
Cs 1.323411814567181 6.238890193510973 5.572358771631409
