21
Energy = -14.09693661 eV
Cs 7.458734467374299 8.719890641942625 2.4672430896217734
Cs 6.924930833180296 3.885480980440599 4.488321774201517
Cs 10.531526890286871 5.5495465634912975 2.4910618728015756
Cs 3.378196215221841 10.382938900749565 4.2604639510692275
Cs 11.528529663806804 10.382938900749565 4.043708050726112
Cs 10.621538765107188 2.3680629865422 6.556188636243743
Cs 8.459651306755315 11.662805958495554 5.765111746085875
Cs 2.340767026182666 6.65361424484555 3.500932571069025
Cs 14.461838837865143 6.656828896720887 6.7942743365236815
Cs 2.479163737829828 3.3706672182087973 7.437755257658903
Cs 10.217120712848594 7.443445371337523 7.481175281913971
Cs 4.397611098833891 12.542470485012167 8.85171849519423
Cs 5.5436936207999095 8.198033268149738 7.947577361450984
Cs 0.5402722231952318 8.828598364985185 8.592601942317971
Cs 7.438963902740341 3.1123213026820356 9.749231804210238
Cs 8.975536554538252 10.873736484238675 9.752135690842428
Cs 3.2630165110099614 5.401627283566326 11.013224214726645
Cs 12.408724835953619 9.36592590689 10.02653535980503
Cs 11.403981810600982 4.278542055005355 10.229409100571132
Cs 4.153033408427076 10.366455708865361 11.641281146749048
Cs 8.460355998238446 7.221454737770263 11.897236737013467
