26
Energy = -17.68150605 eV
Cs 6.442498878079984 15.445551440133405 6.025140404446838
Cs 8.650832768463122 15.216417560559373 11.20152172928554
Cs 11.762665079409452 14.068473482934605 6.814677058039525
Cs 17.072470267579302 11.484684883109267 6.975316850406323
Cs 9.030289102541486 10.127045161923084 11.476906825814414
Cs 4.249976144613246 11.889343133030044 9.113608449300438
Cs 7.541536626857246 10.409784920329733 4.922195138824942
Cs 1.919170104619919 12.159300792482977 4.4197765258443
Cs 13.963037008406419 12.436508126938001 11.870069787824871
Cs 19.005898918676575 9.721203484972204 11.856892938459684
Cs 12.418275738059299 8.628833929640605 7.164031181765637
Cs 6.674118001850777 8.602425810900598 17.468026470022135
Cs 12.195211289704062 8.637182586741744 16.495561708575696
Cs 4.130759246418387 9.721203484972204 22.032195619491834
Cs 20.169711056531995 8.104560807045175 3.7802989507783225
Cs 17.614289842368407 5.4825070807640275 7.934152219065959
Cs 14.306753688494567 6.811453541667934 12.037724463899009
Cs 9.812178525347045 8.163683295823317 21.97216401500988
Cs 3.9714679710149836 8.075051786478328 13.113266447513519
Cs 9.034519803749413 5.062110690523253 13.53641075331961
Cs 3.5519718930819746 6.585747716380696 3.9664721303436803
Cs 14.709864705658406 6.077568271004438 3.454488699314826
Cs 11.904467065619656 3.435430498244014 8.347074229898086
Cs 0.67533142051332 7.380064674517446 8.358373173104741
Cs 9.182666172291432 4.791322473415589 3.8414419956385135
Cs 6.575141611055345 5.905977213144594 8.387315165017796
