28
Energy = -19.11928114 eV
Cs 4.587656945743561 5.090565011296855 16.740250506621027
Cs 6.629233729129505 3.158679048156736 11.959213598899986
Cs 4.2232268365643435 9.307513658046828 13.580883889370437
Cs 1.5460113947823744 5.149257731498049 11.562020724082652
Cs 9.434115392334993 6.606871924576083 15.290746834670065
Cs 4.358746898592483 4.223898753874593 7.558107970883793
Cs 5.760819966748466 12.217669624589622 10.031805912971151
Cs 1.9412551723648914 8.901016848127774 8.643677996137182
Cs 2.3596047356503926 7.036274726429855 3.1488859983776587
Cs 11.017627801273843 2.252158151319356 12.336313172534267
Cs 9.043624060342218 11.032071088790472 13.455432841073678
Cs 7.182051632015084 7.840219189148616 10.248720994671976
Cs 5.570134262248409 10.627418970891025 5.154606965485427
Cs 8.917002472263047 16.508428477097624 10.618077273090208
Cs 14.864866038539065 4.082178176824227 9.678535572593983
Cs 5.689013451400512 9.416741070903281 19.84914356871008
Cs 9.984811632841005 3.6954218866996205 8.113414483907222
Cs 11.573414238955081 7.7094118010599955 10.889785774026599
Cs 10.624501933005016 9.393634507196076 6.224956757831183
Cs 8.229238504541382 14.498498262156707 5.831215464338654
Cs 11.001832616259513 12.229207089222458 9.588017311739815
Cs 5.433935559104913 13.825380692711988 1.417092959711583
Cs 15.278050915697872 9.026698520995035 7.561648340141605
Cs 7.822251158284092 5.964476369545702 3.398144516391661
Cs 10.624501933005018 7.009271776537949 20.362972957677833
Cs 12.891959324893639 5.285542298475349 4.4839225794352355
Cs 9.811358813518174 11.02018389545391 1.4313769481572909
Cs 14.055692126718391 10.199464483808448 2.715887795898887
