23
Energy = -15.29612333 eV
Cs 13.979901919952184 14.117948957826458 18.66860361268662
Cs 18.927418948207844 13.845859030192361 13.332192093120058
Cs 17.29220929522015 16.8585356703994 9.42446133275318
Cs 8.936000574662978 12.44967038486442 18.121705209706967
Cs 15.927263720829863 11.913815699735547 8.946988843904586
Cs 14.002617090554521 16.456462084044897 13.776867517566174
Cs 13.979346829731345 11.545959174719929 13.877965706295015
Cs 12.178926054358342 15.827778940216605 8.817399384782941
Cs 18.339278110990445 8.672619290450124 12.43076246749558
Cs 15.082930870250589 19.17169810709975 18.633482198163207
Cs 14.93117459240582 5.938304348701759 15.403773068820627
Cs 10.115054685093922 17.60092576151028 17.227672287285326
Cs 13.013809440229544 22.150472830419712 15.033104824261116
Cs 9.065860562461513 14.136162862338997 13.212494835458784
Cs 13.868972462209005 6.9454322441987 10.510995210651005
Cs 14.234881733917893 20.922998458718194 10.240720357916176
Cs 10.754284513884352 10.896685213265574 9.459222514708227
Cs 9.704150900650022 19.224709873706008 12.091974088291654
Cs 12.815172428072968 9.057819708261023 18.792546838700062
Cs 9.922728579050066 8.673423853435656 14.266640761585172
Cs 18.073534347430215 19.32060046400513 14.13760399100803
Cs 17.762474989597738 10.522968732100777 17.40116049460292
Cs 19.03416235023865 15.691303309788477 18.133817360236375
