29
Energy = -19.58327728 eV
Cs 1.1487857527251888 8.304166753379326 9.367979507159326
Cs 16.24817292370755 6.201442183665897 5.132640978055424
Cs 10.55751959258016 10.562142943697115 22.00168736387387
Cs 7.642639708666935 15.175614382466616 10.80313317882646
Cs 2.345988769061332 7.775796875430064 4.0223187715432545
Cs 7.10865004016241 14.326527487644917 16.09862059425608
Cs 11.232796154505548 5.523419816986387 7.250410025074874
Cs 14.408388301125107 9.387672817767177 9.369179734807586
Cs 9.224402045113681 6.652888122627968 12.50647880863903
Cs 8.696037707780937 13.536147473818493 3.9058473692901012
Cs 7.60086603850317 8.317394807928462 3.849582860537411
Cs 11.227873763733742 11.854457437880933 13.199250003637488
Cs 3.8027681499205035 5.2552946959499005 12.926560972516848
Cs 4.199448069039877 12.144562062431422 7.130775993394769
Cs 12.946158085939016 10.27643860663158 4.318198253199548
Cs 6.329684659082308 6.705823768405723 21.59373708901261
Cs 17.869071636783445 6.087506521291023 17.5928190172094
Cs 5.652968169054297 5.7922256534528875 7.945697777730672
Cs 8.842206973325798 10.276438606631576 8.477493397108876
Cs 11.483499560704907 5.528261452534373 1.3975965809347473
Cs 3.1297155460912305 8.189576376946079 17.308115516568495
Cs 12.537776702176243 6.71228890461343 18.517433737503
Cs 7.388726584041643 4.585804510153682 16.950387330070704
Cs 14.66722625263516 6.091997940960015 13.357077739891771
Cs 16.388065484089623 7.528324466645728 0.05938274425827078
Cs 5.135474233918471 10.54170248380566 12.522899752697839
Cs 8.264612294256185 9.542979495352665 17.190762116547976
Cs 12.25279255127204 14.399540607429625 8.188597165270476
Cs 6.338717626234557 17.185191754553536 6.451828258162407
