22
Energy = -14.68690207 eV
Cs 15.92750640398046 4.873868021268133 8.8167078488387
Cs 15.136455245277594 9.623551889527402 6.714846653601825
Cs 12.881696262937002 2.490848156458323 13.015133323865212
Cs 12.87735112328327 8.306371846754562 12.114809100293646
Cs 10.175664808064997 19.106795125906082 11.158931882613416
Cs 12.357012178746828 14.078063177353497 8.7275391194622
Cs 9.253629319394271 13.677974049479834 13.79734177416867
Cs 11.670467927600694 1.9152301080068843 7.226704829444862
Cs 10.53596515814312 7.137729026505862 6.953546752614359
Cs 10.175664808064997 6.444024219611006 16.022006240993292
Cs 5.811587994457689 0.30234188553233593 7.354064426848897
Cs 9.657739682243676 12.416690277315245 4.235052735647495
Cs 6.747769646085903 9.23716639323217 11.157156926199512
Cs 6.324565011443863 14.438258734830482 8.239578551561884
Cs 8.188978142688272 18.037811712055518 5.131171626852326
Cs 6.704375917913718 4.307822777832631 4.095726934945267
Cs 7.6666127719262995 4.061845297689514 11.503008744715023
Cs 5.004254734166313 9.358016150961866 5.141713091162074
Cs 5.790964898177308 9.901310178168155 16.704506281220358
Cs 7.520592219702891 8.304128210867333 0.1155408834789372
Cs 3.158336266359279 5.198923015180929 8.02459788209936
Cs 3.296665107167285 6.307510128831197 13.811041183107793
