28
Energy = -19.27539502 eV
Cs 11.811452994777886 8.339678232068893 3.3269401109822723
Cs 15.397175116404206 5.99727059443331 7.4956566659560275
Cs 11.149003889916532 3.7313437770478166 6.09227860880983
Cs 6.916457199701706 11.00848896128467 2.30157590129692
Cs 7.12723958300748 5.695856350039816 3.376573597837089
Cs 10.734757557565004 13.26015292629927 4.766746903675076
Cs 14.591970075844804 11.213221151946463 7.3260756856357006
Cs 11.149003889916532 3.456763303747502 11.14428068659134
Cs 18.426932045979175 9.555302150608842 11.024899112867327
Cs 16.17789257173606 5.0394722869133295 12.47795527012746
Cs 9.540236846081402 8.888837575327829 7.700248679709798
Cs 12.493453137337971 8.61377405657258 11.143602740159336
Cs 2.6430083979004837 7.924384707961084 2.1122641789133016
Cs 10.582229740658049 13.536821694762052 10.196727487462304
Cs 6.208037591872255 14.028250022573047 7.273312514698901
Cs 4.731197870899635 9.15112439530565 6.996462805094384
Cs 11.935698644274185 5.8170513542166695 15.905685979397887
Cs 15.426685649615061 9.534780100120336 15.588371010960937
Cs 6.715566521876677 4.367612373006685 9.007522874017134
Cs 14.996068124400951 13.133635517071314 12.209815140224066
Cs 7.687360106395109 6.8852052040963905 13.255136548438001
Cs 6.195927322331607 11.173558429956708 11.672633558399774
Cs 2.231618239936824 12.601504327491824 4.1236902706320855
Cs 2.1165078863116262 4.538614356989745 6.3374979483624365
Cs 10.721261845973753 11.132558497539803 15.109860208513659
Cs 21.17452182787789 8.876078907024082 6.329410123057703
Cs 1.1753985266743168 12.32242977291909 9.642179919071848
Cs 2.3583683648176366 7.155849974702431 11.138929950397673
