21
Energy = -14.29025218 eV
Cs 4.574675495800289 7.190223891304024 5.319088479583595
Cs 4.128723230419112 7.181864688948706 11.866650359962314
Cs 0.6387458909975074 6.220827120516546 8.830702369296175
Cs 3.3617687135272827 10.053440756453691 9.029631766118815
Cs 5.544900954275017 3.450674129601313 9.053740948513981
Cs 7.5417241636218915 10.662166439154223 5.817982336634181
Cs 6.702099954184599 14.56363171789669 9.693904891761214
Cs 8.176243810799464 8.548622553429173 1.2150793052811197
Cs 7.95951022473845 8.40061934085253 9.853579649057664
Cs 5.82144740345944 11.028883272278673 12.446571614258541
Cs 10.539884767602183 11.428323709342127 2.6911828748709588
Cs 9.684751101546592 5.566384476456272 5.822757480317733
Cs 9.553478876057937 8.930731065894355 14.623560419423246
Cs 12.287309885118203 7.55013061199278 2.575848452694843
Cs 9.68516643686347 11.417581904262608 10.559013203167641
Cs 8.66459767069469 4.1655874987777395 12.162358641125346
Cs 9.88663569865007 1.6107088043385136 9.16703376721228
Cs 10.326280379658845 14.521614325136108 7.245517419155688
Cs 11.440657856782597 10.053440756453691 7.293963631278767
Cs 11.668476237859664 6.8398909575923765 10.552714420509073
Cs 13.962644107170915 5.077433408828172 7.331093815940227
