29
Energy = -20.27855519 eV
Cs 15.035524185880336 9.27597162723677 13.206611047379122
Cs 13.179490417750149 12.90306082372314 10.579219419080195
Cs 14.911360166705727 9.27187567221271 7.735888506606966
Cs 14.354056358962653 13.030073979941989 4.577840419282859
Cs 14.371256283406929 4.862262582831973 10.587740814458941
Cs 10.45724154352658 11.08863930224703 15.397423731635426
Cs 10.622302186327218 6.0252362649018005 15.035893664248356
Cs 7.588921333737241 12.795641571306005 10.952238710740959
Cs 11.896262636162227 9.135035718057567 2.369351605215395
Cs 10.457241543526582 8.575043924723781 10.39669060591362
Cs 11.355133874111564 5.399932149221438 6.438543978146016
Cs 8.646568503229238 12.518501567197672 1.739033959958246
Cs 10.31876973196962 11.752196010612279 6.835313434649011
Cs 9.401415819013739 3.0843724980850293 10.470597255131132
Cs 7.420630987022177 8.345322235671377 4.944151943929864
Cs 5.787822959546732 9.321410718709307 14.08550482427375
Cs 6.929726419758658 2.8014011434135746 6.061329679669411
Cs 4.103385959221635 1.6406221366028422 10.34056290913851
Cs 9.391631725294262 4.491114067479869 1.3593522841104781
Cs 5.519876135641685 6.844745961405414 9.53574994119621
Cs 5.922596847432706 4.2271900950040555 14.632001785274808
Cs 5.005634405921584 12.637283549670393 6.569681977470849
Cs 2.3775206185356748 10.730091644250063 10.43526542394105
Cs 7.440396602640544 8.501185628020037 19.0388607477944
Cs 1.3556238820628963 3.700110447088036 6.816853237622107
Cs 3.723208299469971 10.465013048813821 1.7157024193066812
Cs 0.8084611487449571 5.91805610784342 11.490124864895698
Cs 3.969453568327296 5.388919883061138 2.2688355653566794
Cs 1.4889588575857617 8.788484190817313 6.055066006915909
