26
Energy = -17.92325203 eV
Cs 13.950477972809798 11.628756195873374 7.154964394668272
Cs 9.928298732114978 10.23506494107528 4.725026428962975
Cs 9.304478433749516 14.055486930443282 8.408122930538317
Cs 4.846756489235754 12.29189104089678 5.977339896244071
Cs 13.583458644464885 7.506222268854184 4.836019885975606
Cs 15.734197524991082 9.667642189730499 11.088929842138807
Cs 5.6258461966562825 10.004101026223584 1.1749315717994846
Cs 13.278610534576176 13.618885688086706 11.346015421937928
Cs 5.729877414517719 10.725830422886721 10.293690540178348
Cs 10.11816647290558 9.433504133099234 10.071222443386558
Cs 1.048164080167199 9.423883317350143 3.7155549086056467
Cs 9.157193403547852 13.141088791252217 13.308026885455757
Cs 0.7893416684207707 9.924162247399362 9.0293674123848
Cs 12.296967370295818 10.714513135328527 15.83842170204976
Cs 9.04544005564178 6.487670397077917 1.4287521806339822
Cs 3.606484769506672 5.866577646721967 0.7876236560385328
Cs 13.460747370239227 5.191764537806638 9.545453418529327
Cs 6.099834901722164 7.53001590114576 6.365927569028101
Cs 7.84925077938259 8.508667338153455 15.087314944237471
Cs 12.405156222694716 6.636404566504583 13.942137861252963
Cs 10.118166472905576 4.191247896761583 6.33033923846774
Cs 4.206143452069625 6.374735988653992 10.759786715091485
Cs 8.975190243515387 4.578868473454059 10.995016619763142
Cs 1.5711798984450691 4.736915332213208 5.989449700757618
Cs 5.8863004177896086 2.330321185405095 3.5666458409448802
Cs 5.505406929644139 1.923049966221387 8.658391771025634
