22
Energy = -15.00285337 eV
Cs 8.802405513053797 7.569696735752575 13.767880114315389
Cs 4.945208161049289 14.75131888678276 10.898718172700981
Cs 11.585825111550339 9.994306513608992 10.14022695204453
Cs 3.501401097494463 8.570054345127504 12.421555570136292
Cs 10.052894681667691 14.391806464558282 7.478669184848908
Cs 5.284921048511348 3.578062679986798 12.815971784642356
Cs 5.0188853032858365 13.906560262348767 6.160487032815411
Cs 10.3024905594862 2.3135864707136746 11.496214273151505
Cs 1.1520209618341744 10.250291305196502 8.309880318495734
Cs 6.7217919635039465 10.184413583509022 9.3437197231325
Cs 8.100457458180657 5.4545017131757145 9.12125728043278
Cs 8.949172022389803 12.159346943145499 2.826584807003743
Cs 12.962568790687829 5.180239341694574 8.055116417154306
Cs 9.226195046955713 8.46782105789896 5.520118346432621
Cs 3.102515571735174 5.553007617450611 8.216382449134313
Cs 5.747306552480716 0.09381721626840145 9.114976082451447
Cs 10.32430775240286 0.4696482976152146 6.498451736058435
Cs 13.717094998221935 9.994306513608992 5.711883896067258
Cs 4.258718224642258 9.056947866182577 4.156354431949952
Cs 11.307644267559194 4.932853432327765 3.0420373590881473
Cs 6.5357491947465105 3.6448089879242076 4.288432671042204
Cs 7.441434995188831 7.126702556935458 0.03270882650071906
