27
Energy = -18.55931319 eV
Cs 13.384106827087832 7.937635882154609 8.882254884247102
Cs 10.620198734258555 6.125666235134897 16.580109927774007
Cs 9.529351448889791 2.1337006458563277 13.12822494749436
Cs 10.725010609787534 10.589092541722833 4.870959972932532
Cs 11.628880875111648 2.6167747797004672 9.157594967618092
Cs 5.554529087421676 4.880202044397723 16.067561455748233
Cs 9.951748487929427 10.46530803180592 9.812903483763705
Cs 7.403660345726948 10.068376324872348 14.48433253154482
Cs 4.370072379027252 2.7526182899102647 11.406267860672623
Cs 4.070958016395699 5.557061147339428 7.808468685568866
Cs 3.0212924651122526 7.935605792244839 11.81209201206358
Cs 8.58900158901166 6.463576587564838 10.491966523901265
Cs 13.529939374493777 4.748002001244622 12.609848355373593
Cs 8.205845491496211 14.47061506122298 7.005444071442565
Cs 7.4037200938472845 1.5427958062498408 7.680402256544956
Cs 0.8755682422144523 10.20953731390304 7.6864931744689
Cs 9.951269146085915 6.205992477892135 5.957110146925434
Cs 3.136546445128622 14.317242534860554 6.209773070734387
Cs 6.059785370865145 9.81132957629314 5.780206868533044
Cs 12.011991011311185 9.613180554139124 13.28451050033337
Cs 4.995021492060894 11.640532280956164 10.491966523901262
Cs 6.200850016947964 4.6172379771863366 2.5947677382778007
Cs 1.559735698470174 6.8012373670163555 3.362682711183385
Cs 9.539948477177434 8.504923852158264 0.732149206417921
Cs 1.5507107989841344 11.148778322474108 2.6076256976634036
Cs 6.751538673782404 12.33164700231134 1.933275087118055
Cs 4.362250397482765 8.749432585718395 19.789759823536183
