23
Energy = -15.26915282 eV
Cs 4.806468232574817 10.012803286698826 19.457397692514157
Cs 12.50859458111211 12.656982329993605 5.596155204978075
Cs 3.4925602516921694 14.223216797564511 1.7476754286064753
Cs 3.206623092166334 8.72739767076717 3.6059827547958356
Cs 7.976629571733212 11.358606034938886 1.9484232551710512
Cs 7.521290263110062 10.012803286698825 6.8678824518985415
Cs 4.111460785763923 13.71626532092155 6.872939039398512
Cs 7.030895612773604 5.440236327589433 0.761520179802945
Cs 11.893664079700379 6.776244791211364 4.151588833291031
Cs 5.993290482645643 0.4632941629204487 8.990229896929648
Cs 15.402312574867963 9.071197292326962 8.554107163361989
Cs 10.509303096034722 4.272972768819885 17.95091352253239
Cs 4.923872743584731 4.384925965139491 5.576563804105436
Cs 9.510878646069791 1.9156398470417055 5.317087796290041
Cs 12.800286521610307 6.329744821265517 13.418473028473507
Cs 5.2080206743124435 12.78122678376275 12.391285846898965
Cs 11.079599410016057 11.829845439935909 11.493921269091707
Cs 14.261850110298207 4.121974960873405 7.948117247158438
Cs 3.252985565977603 7.659872021263819 9.54395313930151
Cs 8.479669724047397 5.476974276080986 10.096638631667629
Cs 7.100863540550819 8.082750005660001 14.86129895702072
Cs 11.453069896764578 1.127052661069136 11.891748735408152
Cs 6.304797313358858 2.9776650105816116 14.216682131672872
