25
Energy = -17.10098183 eV
Cs 12.903955558954264 3.048878391040006 4.3135291325954865
Cs 12.597670570779766 1.447951294573074 9.130895979268614
Cs 14.850922864893251 6.915408475896326 8.334024662908856
Cs 9.134594642307004 0.6333363716252646 5.814573361624781
Cs 12.611511037983227 7.939382391277837 3.1572833816666304
Cs 8.468988959292938 5.370236216834937 3.140861255630551
Cs 12.076924976564232 5.205165521777748 11.963881353877234
Cs 10.55349791985876 6.475683490525258 7.694734306295329
Cs 10.798540129429245 10.048917702775494 11.051873015538456
Cs 12.34104118347067 10.901316052269834 6.792492703924067
Cs 8.623957062162551 2.47690054938242 10.260939302111499
Cs 8.104544708861388 7.165281537287609 13.928140672435688
Cs 4.957479694311946 3.5665777134077676 7.165045325118656
Cs 4.016377567777302 4.174940881461283 11.605431325966114
Cs 9.02020642048233 10.04891770277549 3.519845035029581
Cs 6.404427352546919 8.098452779556299 10.041381584746079
Cs 8.3121742336256 11.698825193039063 8.489323829428182
Cs 4.576292242128241 8.875847926329772 5.2525914231192665
Cs 7.0395909679862365 11.825830199952035 12.75187165613922
Cs 10.06300498344278 15.475081648135568 5.241136951082972
Cs 2.8884385938931794 9.275619045555983 13.125111445557327
Cs 0.9439581271292158 7.315086397660293 9.124897166014616
Cs 4.863964979761558 13.712486298680219 5.200163818317725
Cs 3.1364288719704505 11.987178309206264 10.025283694801146
Cs 5.88161254332059 17.070516221995387 9.246180673731988
