20
Energy = -13.52906863 eV
Cs 7.462764190479709 9.82291820861768 3.31784125314002
Cs 12.444758432958997 9.271542654908792 4.847788022579119
Cs 9.375557121595037 5.1321408983919845 5.11271224700791
Cs 9.543068587485074 13.020070933890391 6.50040507973731
Cs 14.818425387304409 13.302756088322374 6.22770420169264
Cs 4.698849569611015 6.92625768499698 6.92303148033229
Cs 5.127565090023942 11.662641669932022 8.147065127318687
Cs 9.303228984852653 9.02953798021441 8.832666394759869
Cs 12.73831195703467 5.555938018251972 8.811366198824736
Cs 12.363983232091051 15.795529723195243 9.834283727122532
Cs 7.601223049248122 16.348735265330777 9.73319931977748
Cs 8.007666360527338 4.017488464440779 9.822634900650574
Cs 15.317357710420877 6.679175013004441 12.592312326052728
Cs 9.543068587485074 12.17695547228244 12.078846655015676
Cs 11.76128396373148 2.476011714791205 12.488291467813626
Cs 9.984386965018501 7.56533194928087 13.297174884897807
Cs 5.284857940466132 8.387658522220772 11.701185642702967
Cs 13.579148528513326 10.412981402930424 9.873684895807251
Cs 4.301435596222894 12.8894934790007 12.74701418078587
Cs 7.190864045715498 9.974640156781247 16.520907414022318
