26
Energy = -17.79781318 eV
Cs 13.581319605364005 7.283049027722035 1.9910541045440378
Cs 10.496365869167054 9.996347063978728 15.781661221703905
Cs 11.949323851130705 3.563195492154852 12.328087967615625
Cs 15.739170253060268 9.092889117254343 15.801895942755472
Cs 14.357050467829083 11.784505542237637 12.063553744030528
Cs 6.513828062525142 14.8659273774645 9.610556835667957
Cs 15.139917201726472 9.996347063978728 7.6362236037015325
Cs 12.845692911829085 5.242293922677662 7.91705648386712
Cs 7.003928615463163 13.079134885367994 4.7089440731693255
Cs 4.304946327048974 6.646231917333276 6.233671290064559
Cs 8.045574905268415 6.234628663869076 14.220727413950646
Cs 9.579788552561885 5.975740782744772 4.830013876314446
Cs 3.6709007020527844 6.881104141780646 11.153524513614514
Cs 2.1302898979188103 10.127204944696231 4.04457441926942
Cs 10.254346171662114 14.741809482981772 12.822109338329268
Cs 6.876768992232121 10.631386215882962 12.452181244302517
Cs 10.914503460858752 10.3664932492495 4.432216717528023
Cs 7.818116148847988 9.782669695875635 8.165754201138872
Cs 2.8938251531994403 10.752573610263505 9.08403583502644
Cs 11.010752773969259 8.591228753648984 10.888740721744153
Cs 7.010161506264868 9.461164846109769 1.7346546457466936
Cs 2.386918906055866 15.1308250010805 5.9955670817425535
Cs 8.045014593861492 4.453862297986468 9.745962746228736
Cs 12.24121941813808 5.576339294800389 17.055002980328688
Cs 10.890211893080505 12.97455665804053 8.822837755356868
Cs 16.417138475821066 6.700105023657468 11.263866946316094
