20
Energy = -13.47195673 eV
Cs 14.100805849757602 6.580877095949435 9.654634646084068
Cs 9.785134999805226 10.072086664335677 9.89369096344167
Cs 7.945367753954538 10.364972916531794 5.141548151057781
Cs 11.605241022669691 14.074792266078378 6.004885684532564
Cs 5.199314922644362 6.0295070143781055 5.044217427262822
Cs 6.838429439385055 14.244030151411646 9.925256956538863
Cs 11.705728125224066 15.616922869604835 10.889843920981146
Cs 8.516474971714363 13.80652600338601 14.794420934902096
Cs 9.628733057401693 5.183330540738501 7.522158772446917
Cs 18.947639247237472 8.636055033735106 11.300656979115885
Cs 6.999121691221627 15.762342454717755 5.208435258374226
Cs 9.48325869304468 5.910572603364423 12.868255716084283
Cs 14.142305677901293 6.78949356822266 14.808342752513228
Cs 9.628733057401691 9.352973323456794 17.293167833736014
Cs 3.9074295461466746 10.245048113598392 8.316826470348463
Cs 15.183195138615273 11.850587624670618 9.042559908892994
Cs 5.59854004918095 9.659983219882541 13.290554303722221
Cs 5.053974490573752 5.597229473220294 10.100656229979304
Cs 12.82654047522598 8.918457886040029 5.187057658190413
Cs 13.073480726848654 11.374548829109553 13.684055800705602
