25
Energy = -17.47475216 eV
Cs 18.838039119490503 8.398752377479104 4.9766359347899884
Cs 0.4672205882319176 5.114703047591659 9.487724127448118
Cs 3.1865818157990846 9.382473770025808 8.830527534354951
Cs 5.816424338352491 6.659338909024322 11.61277673727172
Cs 7.699009000058223 11.149887477220322 13.08408549472455
Cs 3.4472904937102813 3.799511643380845 4.7040759290634195
Cs 3.388921440475185 7.7546936806722115 1.0913484664726136
Cs 5.280120881504407 2.2565293375999773 9.348761454804661
Cs 4.1522384209900585 11.568439851997637 4.005774392948346
Cs 6.618495225555933 7.480377493787197 5.657933714477969
Cs 7.178604996830321 2.4120173411305865 14.463314725314525
Cs 6.2209534452414355 13.477907004830534 8.573562099997623
Cs 9.923038390477076 6.740141052991765 15.145621719461936
Cs 9.087401362112132 2.8929205324705074 5.279986782316276
Cs 12.689797950443115 9.955400988817344 12.735889512663256
Cs 9.941987091421815 3.4844634580302207 10.102983639373711
Cs 9.923038390477076 8.533613169372744 9.24334624286956
Cs 10.757051786009514 13.370550448717916 9.632014369096066
Cs 7.4409625360576666 4.322722431188338 0.20395826028503017
Cs 7.79079793893777 10.019509021926343 18.782106556795892
Cs 9.507652799387788 11.576626874572982 4.701771761457259
Cs 13.599620730911845 4.961901288542221 6.514594803360535
Cs 14.711638117646938 5.831438342544849 11.184345487536735
Cs 14.024339942503723 9.790215786961946 7.02831025335856
Cs 10.770308734166695 7.441101556048954 2.5604974706156725
