23
Energy = -15.69746691 eV
Cs 3.629603276779093 9.650684563450906 19.42905330466449
Cs 9.537441749882394 7.04344948848517 20.548604708761285
Cs 4.782086872554405 5.864038598895886 2.1240618224715915
Cs 6.026215213437724 3.7260923541194337 11.924279784167243
Cs 3.4855775726530327 9.819070109295197 5.655585864262823
Cs 12.699520148478628 5.988865917010043 5.342196977614231
Cs 7.0102996006688585 11.363981519946906 1.8949821121474713
Cs 11.509016791521613 10.436892346525516 3.1974046457784833
Cs 4.681496056388909 4.025178512549319 7.28230879443592
Cs 2.9693131521843177 7.8307921532327445 10.428089891143925
Cs 5.298769392375473 11.878589863824999 11.771799996826559
Cs 7.942874910947136 12.434216762610562 7.304633075124047
Cs 5.3411590758439385 7.814347108451266 15.048289421231466
Cs 8.881947459843056 3.08923068215846 3.7281308815206713
Cs 8.247042897071772 7.813274989471991 5.9589012454220915
Cs 9.911151763011112 3.2077217450351445 8.973888650747073
Cs 8.732876830586072 8.4360838132865 10.603017151267155
Cs 9.10385743425891 10.987148174537365 16.788857624700594
Cs 10.298744757995863 13.347980453823086 11.652782649713338
Cs 12.559857887386967 10.331472080701122 8.34796167457031
Cs 13.472739475161353 5.984185354415452 10.603017151267155
Cs 10.42824848695493 5.7014843173286565 14.795654189567754
Cs 12.915178084044532 10.026528553199086 13.566032047597794
