28
Energy = -19.08527122 eV
Cs 1.6641013811330672 11.947312086571525 6.541959714713484
Cs 1.1621498796951777 10.268518161230064 11.198328974916269
Cs 7.02793160303465 14.007814442709453 6.809063714854349
Cs 11.682963421267592 12.832333105909356 7.292773157547098
Cs 3.5575595528175885 7.456255753476099 7.574294018818541
Cs 3.483618554156339 13.595531838267222 15.009723935394296
Cs 10.769747980065173 11.549681463566051 2.296818568668663
Cs 7.08039443926603 9.513106886120378 4.512688853739624
Cs 10.275978877916334 18.243192901148976 9.607400786172464
Cs 2.1830238988956747 5.268468846395501 11.572068333477576
Cs 7.334326617178226 9.89300048669884 10.36163193122631
Cs 7.464111055495525 15.010573562080568 12.408557931746927
Cs 11.067590845092258 7.834806546102197 7.331252376840122
Cs 4.347066210926167 8.804712338818364 14.88219394978113
Cs 7.560876905421182 4.396867654982677 9.501141289145053
Cs 11.174847257306372 6.557858286627292 2.2965391010630687
Cs 7.177517512786023 3.7378910674083294 4.372458173725188
Cs 12.067351223217083 13.379945210337132 12.07795784860589
Cs 3.0744393638205243 2.1910488610777636 7.424207466711243
Cs 15.395889794841487 9.893000486698837 4.483569773439075
Cs 8.493886551679491 6.02392584699629 13.996600774780543
Cs 9.240674853859806 10.71777294550317 15.765201116919657
Cs 16.551897883569836 11.190532345150773 9.260623788778636
Cs 12.590619803191046 8.398722899835933 11.937936815503067
Cs 11.796748646473349 2.5685026327989267 6.171364885559895
Cs 16.048379087472366 4.776861515478555 4.0085907337017606
Cs 11.959691292775352 2.98181344038527 11.26750591896267
Cs 16.325017673824725 5.7819692471152635 9.123185617010284
