26
Energy = -17.84422122 eV
Cs 12.05245663523981 10.569585200302058 8.263801741835666
Cs 15.353142203543692 6.149263732645522 8.555766688393623
Cs 12.411778079243623 7.359198361939763 11.758416746305768
Cs 7.498196784942818 11.079540836240902 9.245914393718964
Cs 13.637805297048839 7.62020820331485 3.880364850584029
Cs 10.68587968343856 12.272630365038719 11.891735716120342
Cs 10.144067482313924 10.634316835819009 3.7606901924871057
Cs 10.560488832227186 14.569303856117209 6.562536299054657
Cs 10.012721787423473 6.1658500481247405 8.402474895499672
Cs 8.735027354094115 16.605644802305342 10.790391402901339
Cs 11.591339811829622 1.5993496132185692 10.03899613530714
Cs 13.240988143772146 2.659792124144751 5.199772547103525
Cs 6.831871707786378 12.832233551458803 14.315223630968124
Cs 9.63752919052105 20.052295500231583 5.765594054824803
Cs 5.31546385062251 16.850211417749435 7.071178992693893
Cs 3.6099398039925688 14.704456363146376 10.681805337587583
Cs 8.28652646300111 8.837984109098901 12.71449139236497
Cs 9.757034689034828 5.070670696567826 3.4578250136649302
Cs 5.756060351155524 12.581161654732592 4.076216021517317
Cs 6.410581588676617 0.5296443528546306 10.398767983920898
Cs 3.195360771709664 10.44691435698984 12.430804150615737
Cs 9.06526073369662 3.864582263690596 12.53915190597401
Cs 4.81564790452042 6.173241244304845 10.290480673030629
Cs 2.5764380261900066 10.634316835819009 8.02894796956247
Cs 5.6135074676861025 8.16259764107238 5.2050577055895335
Cs 5.5275897941618535 2.8135356440704418 5.850185082961152
