27
Energy = -18.04240296 eV
Cs 10.11426016448132 2.34455290510026 2.9348853406683313
Cs 13.182701410506095 6.130483391371821 4.091579296868964
Cs 7.214316704710213 0.17443837647033325 7.11899992208763
Cs 4.909743851892212 3.1579114405944178 3.281315423328715
Cs 10.673220412197628 4.624324614144284 7.8801336493778695
Cs 15.323602226224653 5.201874983424876 9.36890410872927
Cs 8.285850898083092 7.196121230096204 3.667835023193131
Cs 8.16380498198229 2.4488958211708574 11.556079496798903
Cs 11.228129900123559 10.480259529218129 2.92311014554084
Cs 16.00224237470617 9.21543460728896 11.963910489192452
Cs 5.324453795848492 5.290756458032175 8.161801121880416
Cs 3.0176031790525393 8.132519476942281 4.110313610465052
Cs 13.458465336925446 9.921610841911649 7.749833440157902
Cs 10.968340152668343 7.183267793412171 11.77609892960194
Cs 8.573777616687503 9.887149496267666 8.518222767443929
Cs 6.675730232475513 11.568702571636196 3.826295613381416
Cs 1.4476069313878923 12.4292291174711 5.103108288093677
Cs 8.59015373390635 5.031469830096525 16.267356658212805
Cs 11.69382610435839 12.10180144940039 11.415966617918155
Cs 6.019844366562363 7.72486876881537 12.474066693378317
Cs 3.1830084793232083 10.425863415746218 9.212986629613
Cs 10.968340152668342 13.729607578117141 7.10921308693859
Cs 9.768222642985846 10.42829937768062 15.762397967015414
Cs 6.8377978904592736 12.508806711202476 11.955661274141622
Cs 5.7289504558069835 14.695328053856711 7.877785119882556
Cs 10.162137685628545 14.925945127584685 15.458694354061194
Cs 9.40139465682451 17.19578894035113 10.682039826056364
