24
Energy = -16.61234437 eV
Cs 9.203297427928153 14.00513158733627 9.334508953100997
Cs 1.9610103184549934 8.809396056928648 8.944746398601712
Cs 9.818838952304747 10.186971472311635 4.776271690874029
Cs 8.07037448754473 9.92754403860887 10.136129420775283
Cs 7.284311024171775 1.5784516396654886 7.655943766603545
Cs 4.122490224847734 8.911287090988024 14.471688167619185
Cs 5.905202238374563 10.358872806971124 0.5708325153715824
Cs 11.416796815753882 10.505651131775721 13.078786484388598
Cs 9.723313530459812 2.7144856061628437 11.28222854444096
Cs 5.063113902122637 11.34928430158529 6.4525848097620155
Cs 12.509744959948785 6.652509931688122 10.617327007633348
Cs 9.818838952304747 8.553224878293136 0.039067444625597796
Cs 12.423157647528676 10.546043978100107 8.747429337554408
Cs 7.935809380461492 11.625677020742275 15.37544050593878
Cs 12.923289384755247 7.408468557805445 5.145272289690653
Cs 11.779789175550333 2.489149088997552 7.671414696627806
Cs 5.2318175310834585 5.261251819297265 10.26355928655341
Cs 1.827634802539325 8.953926260129741 2.983493399143772
Cs 9.612993257924135 4.136290457166457 3.0850482985532452
Cs 9.599405715252281 6.554055678281355 8.061948229007154
Cs 9.322964747169308 6.874125068611811 14.697791832624544
Cs 4.3476220083602595 12.240916143162895 10.815266459822176
Cs 5.7404850466051185 6.883615840114376 5.149291608936883
Cs 5.52901936580751 5.905053734554241 19.01702701277935
