20
Energy = -13.30288509 eV
Cs 3.8220830832207255 14.492693153117875 12.983868590829605
Cs 18.299037407184947 9.93242077499873 6.017657622821162
Cs 13.71080754551722 12.628811751936516 8.044697589604697
Cs 6.153872496038339 18.86918719635225 10.078533541060212
Cs 0.06262013943725925 5.392742173841036 12.435492378188547
Cs 14.167109323477769 4.783734963027935 11.62963785842659
Cs 7.721527031180898 17.350328108964547 14.812560020851386
Cs 11.683131762325287 9.395915872020982 11.823500887612266
Cs 3.4662147563926156 13.176729735192064 7.9306541509566015
Cs 8.310298099164827 11.701383835940073 15.734056375839366
Cs 17.2589728014276 9.919516477713618 11.143532562472277
Cs 8.310760018673353 10.033324242536711 7.371595936538364
Cs 5.457913502556469 9.395915872020986 11.840723372205261
Cs 8.187872916743071 4.810513160887939 9.809647630495636
Cs 8.989291624110543 14.048001344297337 11.018012967309122
Cs 13.172498747318183 7.234188740479741 6.853504569804307
Cs 8.026051545406261 15.459270334809846 6.2075188358096725
Cs 2.9226202931136607 6.842083961469655 8.159792082339854
Cs 17.63122816747114 4.689384400297975 7.497244539072454
Cs 8.870885029332708 6.159958889492421 14.923873477161264
