28
Energy = -18.97661896 eV
Cs 19.847777211269428 18.12036219528957 18.926139724735265
Cs 9.807077906594577 15.759396065849934 19.678730632280338
Cs 20.430979665739393 18.236153410526807 13.307922995250697
Cs 20.1840509531114 9.356887391731595 13.48226501695634
Cs 13.158154042788984 15.464058018583982 15.667263309790332
Cs 18.488258375650368 14.11566309987315 15.78591613200703
Cs 14.227332752498143 12.550096309474666 8.534973458578783
Cs 16.837597259487172 22.100268119856924 11.666528521295508
Cs 8.228189428475876 17.281775065700938 15.084394277365746
Cs 10.752215574121596 14.928338322513008 11.23949448263185
Cs 12.0169999066097 7.639498952429926 16.495527039389277
Cs 17.275006113449695 8.86897013299559 17.863284588016622
Cs 13.474682708711793 11.965467424128223 19.26681774198582
Cs 19.41714464297216 13.39546742797407 10.46460412266755
Cs 9.492215922925704 11.876771498610704 15.428763940678337
Cs 11.908908542893835 8.575798988449614 11.309284561925645
Cs 14.919449048512563 16.97220366372798 20.53337479344199
Cs 16.0877452393559 5.9349785660868175 13.864027372312698
Cs 17.106015337136334 8.460809896297699 9.520650015237168
Cs 18.458211659227313 13.190567048970367 20.74521310339317
Cs 11.910461464140427 20.17677118655257 12.63752634780154
Cs 15.890945309405286 19.063529518116926 15.800941691248083
Cs 14.148852921443009 24.063422272257068 15.638405000400924
Cs 19.528959070878937 22.78826889207076 16.047980680558574
Cs 16.14688517193377 22.07080474240848 20.034350007952465
Cs 15.79212883034781 16.853638594100907 10.96095609138056
Cs 15.040253392048314 11.45316464630535 13.66862350039365
Cs 11.19331154827074 20.506678549117034 18.11585085032407
