29
Energy = -20.08670525 eV
Cs 13.030172914751645 9.207620644737899 2.6564363489980347
Cs 9.651854749118161 9.115197132224681 20.59045695463877
Cs 8.529769623626754 12.750382185071635 2.8955547707391034
Cs 15.43916391678262 9.804625947557906 9.694155585932972
Cs 10.437248531982158 4.376195075143509 2.7299586563659957
Cs 11.52198029418607 11.523871936215697 6.93526671548417
Cs 12.274914501807409 13.778319946968075 11.601089271975827
Cs 12.179340567409096 6.657332671434133 7.063667500572641
Cs 14.779032200159246 10.160320766359131 14.245995858235752
Cs 7.600437872400238 8.286211464001521 4.479804233070476
Cs 13.141365767510223 5.316143030807699 11.672912341738709
Cs 6.1311292645927535 5.320073770604795 20.837394758895012
Cs 4.761148870912937 10.582768765909204 0.058124703676596653
Cs 9.744400260506717 2.744647439999792 8.543654889265804
Cs 2.0889469380095256 6.947571417910832 3.008616447709038
Cs 11.257952381188089 6.7889990172307755 16.424722842966617
Cs 10.601752514342543 11.950796153026683 16.523406625106404
Cs 6.933551519117733 7.205221076207063 9.230249850170965
Cs 5.4544944506698485 3.309253983355793 5.03709883303299
Cs 7.386312350708169 13.111641975195797 8.303439409195729
Cs 10.293548478861773 9.507298220436962 11.562471069467945
Cs 8.288762712334602 4.230123930227956 13.412474800477407
Cs 7.471103196340836 13.67870696812111 13.039702020146185
Cs 3.4309986669807038 10.963688153640337 5.562686819995142
Cs 4.779418621129512 2.230514077965319 10.157540124660706
Cs 6.652349057472527 9.238503201072588 15.74293985404951
Cs 1.9495198905624718 6.530103883938814 8.127694908636093
Cs 3.427391562558166 6.127132895123502 13.143936129206706
Cs 3.7033012166410146 10.582768765909202 10.862356679421609
