20
Energy = -13.77749282 eV
Cs 6.3767731265013445 7.718904960324255 3.5799291564260804
Cs 11.631504807345845 9.262810552055619 4.4982334599332745
Cs 7.0374800095128744 12.679523887396382 5.780522412422208
Cs 10.049554704134662 3.9717124664957426 5.8414345798432254
Cs 2.898541303521191 9.262810552055615 7.8488941743446725
Cs 12.179201449227474 14.477729752543123 4.9905803406003795
Cs 8.347341509964524 8.258890833330584 8.624017385085816
Cs 5.140085405312052 4.1536826956723445 7.723922906941023
Cs 16.298605570670478 10.99170979182723 7.178041271667953
Cs 8.77763451387393 17.243269993405555 8.840840264616904
Cs 11.377081506061364 12.194509879375719 9.40634564119859
Cs 13.643771635579371 6.6349458072212455 8.778940773008086
Cs 5.8537198217882365 12.57561391927566 11.13467958507777
Cs 9.388453601701759 3.5829653472166614 11.237009790050122
Cs 14.85231067214873 10.45161676330042 12.714285912162728
Cs 4.959065435135016 7.133250802847604 12.507845021927695
Cs 9.933660218397664 8.517433611845165 13.658663355546183
Cs 10.049320292787133 13.905239633693377 14.03774806653498
Cs 13.922312979940724 5.186968336850147 13.856200763157128
Cs 6.382912929626088 10.832608617206773 16.79806334339455
