29
Energy = -19.71665391 eV
Cs 16.129735666527335 12.366230089780025 5.0297383281869505
Cs 7.9858945716439775 16.073687837199028 17.723017954023636
Cs 15.872803999569589 4.9052596767453185 11.416011795618513
Cs 12.43737673416006 15.101123878865634 8.53065030695808
Cs 13.255516189259477 7.168122248582558 15.40617995633355
Cs 4.794089444464751 4.767679769547852 9.196858208303954
Cs 3.0201046054847214 10.138012225001987 11.919356868274015
Cs 19.45444655606853 7.586591046424991 2.7878397780270965
Cs 4.500250418153981 11.156564225485637 5.9847436815275605
Cs 9.870601567375893 4.131308587157759 9.88039894329129
Cs 9.305408413040993 9.70669627010949 19.450522883074782
Cs 22.285290042249144 12.347773904292616 4.781713664579521
Cs 6.919971040937835 15.855880954270273 6.255537163305403
Cs 0.9027467024819104 6.395134391794561 6.010337473921154
Cs 4.668549479474314 12.339823549965551 16.636466052415635
Cs 19.32299572886583 14.35930917503092 8.677930138192128
Cs 14.221378557250452 8.268127132228077 0.7649071174711092
Cs 13.841735810086034 6.792871748807719 6.004396557823853
Cs 11.174484573474972 12.745369568672787 14.519605423897838
Cs 1.4376596218729478 14.67171774056686 8.925193272001444
Cs 4.265729607544202 7.2143855666798915 19.754426915819796
Cs 6.265268682804328 14.886874992925634 12.126814267687818
Cs 7.158668162156974 7.060392755898192 14.77229477163412
Cs 2.1036094810145305 8.36946800162712 1.1687852791215398
Cs 8.77599896265177 9.32496437590951 9.22403393050207
Cs 7.475532519661206 5.982502622391664 4.804564831779084
Cs 19.604563514976075 7.876665002321295 8.129488677967077
Cs 15.154974436360598 10.13801222500199 10.28666913050388
Cs 9.733896553595427 11.84436939332327 4.239805904670458
