25
Energy = -17.28267571 eV
Cs 3.56606960949797 3.5865547051899997 10.652923426317637
Cs 2.263802076853289 4.699202270420517 5.554865424643246
Cs 3.3610381421149684 8.916742538402023 8.634848744756034
Cs 4.848761808733241 0.22645667898994337 6.603790107771798
Cs 8.24629477077377 0.48854926037612956 10.94488356404905
Cs 5.396696511217839 7.712930927049822 12.774370811735562
Cs 4.979885736489613 8.52229999575773 3.6295729959383225
Cs 7.586569262640872 4.845072867399033 7.692625408623981
Cs 5.922494712875056 12.696907921547517 10.94488356404905
Cs 7.022247156541774 3.7596742976445037 2.793805034901011
Cs 10.021492111890433 21.27249291768382 5.533655262742709
Cs 7.0439977489960635 17.163464363654292 8.343377829586672
Cs 11.895085047490378 18.541819313067812 9.319999648219685
Cs 9.058452641988085 16.76818619665644 12.825223084619031
Cs 9.019243850667586 9.181126425839881 9.043104880556829
Cs 6.484211939809515 12.452323215871944 6.173982223550413
Cs 10.784051895016848 14.891452570962668 5.37009118895336
Cs 9.591098435441921 10.552976687047831 13.936639182202113
Cs 9.890678862603266 9.61343767067724 3.478811819913983
Cs 9.843939209640418 5.120045166679819 12.833758209996622
Cs 12.300709247963635 3.8940007106791548 9.056642074690537
Cs 10.952210287282753 13.120834391198418 10.133104130888984
Cs 11.62229204339347 4.876246753258989 4.033820780040826
Cs 13.256578574281031 8.44162201513478 11.41041123565914
Cs 13.401278758069315 9.171868257049145 6.729986208090879
