22
Energy = -14.87418811 eV
Cs 1.0247099083907674 11.799039185274905 9.154176842414799
Cs 4.433640941082635 13.024692433799462 12.805293145390351
Cs 5.98427170303889 14.674196241941315 8.482687941383537
Cs 2.077634318861562 8.763392354304589 12.452833581074204
Cs 2.3396657744836564 7.030843716301053 7.393443967398564
Cs 4.014530292969841 11.134242423887969 4.717995578326032
Cs 5.8673457346142115 9.939188824291534 9.64271857833397
Cs 9.649162820388216 12.175770880194387 11.258772828599904
Cs 5.87618601670527 5.197466213234389 11.651863182255838
Cs 9.27189588631242 11.783582439646755 5.737736185913942
Cs 7.049111719550968 9.393033545043096 14.911297705820218
Cs 6.688859366608004 7.316597802488815 3.526548486565925
Cs 10.62318929532549 7.44308408501657 12.212536420153311
Cs 9.42161018590459 7.442596168825389 7.9618299170907045
Cs 5.8843760024002725 3.133998969905893 7.168471431967334
Cs 13.231536003628186 10.490144788526687 8.733217156584136
Cs 12.114109110882813 8.746066845270569 3.905831936312682
Cs 10.052295628308798 2.5913261092069546 10.309260265550725
Cs 10.623189295325492 3.653985774574177 4.690595476615435
Cs 13.75092330233155 5.590842835223712 8.370250314358007
Cs 17.716043615550152 9.020487234363063 6.271880451147904
Cs 15.619784219812999 4.792776367853259 3.571022661528532
