24
Energy = -16.87101998 eV
Cs 3.6595556133895664 0.5338293877831088 8.168865451056352
Cs 6.547820862192595 2.379303431893176 11.813550352026635
Cs 19.202430361563827 5.759785347117496 6.1495068390926395
Cs 2.511709426657448 5.534578344348047 10.173496463660696
Cs 4.442144391909479 4.314075225103019 4.428578882192761
Cs 8.397312228130417 3.676920077746519 7.772733587296604
Cs 19.420526734426545 10.263626638639746 9.804921528821467
Cs 7.92483578310516 7.409641321239574 11.936380539985345
Cs 9.912691455066698 5.288864721838546 2.9138165135311214
Cs 5.916956390715344 8.686585432664973 2.1425988001185354
Cs 1.207539617538797 10.238604447397542 4.732127271982577
Cs 5.16085827780422 8.660843860388944 7.6820573822986695
Cs 11.53669697738262 4.280669083834323 11.152800722752716
Cs 13.633847339112009 4.537301723343529 6.663259134638564
Cs 3.785543663928321 14.049956342646436 8.816092950501325
Cs 9.926486761863659 8.42521655354573 7.359602185558615
Cs 4.115059423176875 10.29030384137128 12.171422621385226
Cs 10.569579245358257 9.911403232408256 2.529019859893068
Cs 12.551117530480429 9.65620582140036 11.542338447580862
Cs 7.137657801677603 12.299587730172657 5.149127857425741
Cs 15.445975800472395 8.027634276536284 3.1440878039188105
Cs 16.54939235345326 6.387230211656949 10.196516912898103
Cs 8.653720751385055 11.827662742181879 9.804921528821467
Cs 14.698681930531658 10.392596746967403 7.377476155847017
