26
Energy = -18.77117494 eV
Cs 16.447646333174802 9.344950914691207 4.5086397182472835
Cs 3.181465248332201 9.313144915880272 13.859676461713347
Cs 0.4146746227486032 11.58260869418617 8.604711559821332
Cs 17.99096460807678 7.543322450567427 9.469566877216451
Cs 1.7622678794791968 13.572055254794677 12.874078651208372
Cs 18.10866057337067 10.036333126675311 17.83609511215695
Cs 15.365727249418935 15.067709563210725 10.301477881301352
Cs 17.400319155349003 6.437041675860149 14.67306677001476
Cs 13.528546642212293 9.750210271902741 8.97972095518137
Cs 13.713148528189969 13.868189262396891 6.1437303578681846
Cs 15.533735156694089 10.167219581388192 12.893776268401849
Cs 15.33242826111882 14.394893469547053 15.652438393361196
Cs 12.581559239453027 6.5509332993931215 12.026848674095529
Cs 13.146131397310084 8.532180039458186 17.271147578859217
Cs 10.402707226397332 12.085639866201754 11.497562659464915
Cs 10.657215165535941 12.435520959432946 17.450465655736622
Cs 11.075614917521545 17.421844135094304 9.469566877216451
Cs 10.683014649299 16.50331381371711 13.90604957568177
Cs 9.462478873487061 8.359657249221511 9.324879409788526
Cs 13.041793294810939 5.638500248508677 7.53610060281172
Cs 9.321322681454753 12.742489228655563 7.30531639769314
Cs 9.01847229076492 9.048009114911395 14.123983035623388
Cs 10.986689199187339 9.610979338890813 3.8608620728241037
Cs 6.567740285218781 12.858568963925856 14.966050567447441
Cs 6.84179402828572 15.499660347377565 10.549495490899014
Cs 5.341399914383697 10.438842984023026 9.594608560941008
