22
Energy = -15.01676738 eV
Cs 1.8251290208109892 1.4346466201236279 4.445920090446099
Cs 1.7650510037153004 9.44808008806371 8.799589630316104
Cs 2.5906237894765543 6.892738159412589 4.075960832425814
Cs 2.112103097160477 4.178192698678245 8.696787183303808
Cs 5.404583740141462 10.604702193522098 5.422000462113746
Cs 5.69540028040922 11.282339501520815 10.134807925480308
Cs 5.32498208026291 6.723191029057305 11.094978525089962
Cs 7.054192647206901 8.297473951162706 1.2716046166933044
Cs 6.919071277457325 6.729575912461941 7.031252276319115
Cs 6.752309551811271 2.9489811979059537 3.9023816570818717
Cs 8.802051483091036 14.336599967355113 7.467902731171049
Cs 9.757433176648519 10.093378408781449 4.278729674387487
Cs 9.655431273472 9.796242006231555 9.244387104581271
Cs 6.762339390136156 1.8256757664335488 9.628753744976581
Cs 9.86409306734319 13.08938221156892 11.402015594459321
Cs 10.32457286521707 5.946291249649541 3.2301109948344684
Cs 8.831138205207054 9.497591934346902 14.04889141688361
Cs 12.944018763663244 11.859744255460969 8.271866559868528
Cs 10.250054890414871 2.6442019792640554 7.240761935191011
Cs 9.655431273472 5.271141168473326 10.847407563300415
Cs 13.215397430884583 7.254693911544842 7.483805547658574
Cs 12.855781284413727 9.557673960095697 11.479179590921738
