26
Energy = -18.19383794 eV
Cs 16.10618225680264 12.114379606588022 7.389254995634519
Cs 15.311650386276707 8.175067636943117 4.05996585268513
Cs 14.825249305558897 6.991697182882922 9.95021086860403
Cs 11.869962978016476 12.383422048195344 3.833901076091893
Cs 13.135188307075488 12.132398780695251 11.597736590719459
Cs 9.856315463134228 15.299020398805117 8.534415893580773
Cs 10.484490162995298 9.56442310933314 7.847738722139591
Cs 10.212362920287418 7.382847347676603 13.009594745502714
Cs 9.316947079926068 7.773563382999482 2.555004975809184
Cs 12.252124314419087 4.319961094391894 5.867034129145996
Cs 7.784338800481321 12.00501555317638 11.985639841401941
Cs 6.516832199127554 11.739139494803576 4.527869006232815
Cs 11.612107084790447 2.5731385878335504 10.96530748539639
Cs 7.774956832100701 5.463056363984891 8.415106182236194
Cs 7.521104612464289 3.067552793528702 3.4313752969331484
Cs 3.544693963160717 12.173864364221982 8.794499658822096
Cs 6.649120978741059 3.195856370126968 13.003120588796097
Cs 3.9239557994269507 7.294925566145308 6.4964034198214895
Cs 4.475414787552061 8.037208382048528 12.23914562078956
Cs 7.647645105282836 0.2485675857240813 8.029612947631222
Cs 0.12100267859608824 10.213628858530866 4.457045822075207
Cs 3.0744700213656055 1.6320854094038724 5.260517729391485
Cs 3.853816981770896 6.7799353374206275 1.5776075528423925
Cs 19.79075608843882 8.820970675965205 9.844186396081168
Cs 2.039855282324128 3.9438521274183733 9.950210868604032
Cs 19.242377769314814 4.964780081608449 5.623648927427664
