27
Energy = -18.88070513 eV
Cs 11.83214592604993 6.925511324828546 0.6475571453270726
Cs 6.974588230833085 9.399964406254998 1.2721482987718065
Cs 7.9909406672838434 4.663786521667551 3.8337392886099395
Cs 11.498624010243725 11.35169775984838 2.2041584629788558
Cs 14.086690181211383 4.518361727148561 4.900868894971909
Cs 1.4934473619356974 6.321303202648828 4.776079053500668
Cs 16.12519778285496 9.256600984121267 3.987801066018038
Cs 10.443755772966547 3.2436184081292505 8.496149882117805
Cs 2.5395028839908966 10.954623580609335 3.7398406043506465
Cs 10.210057274494652 8.352518423052214 6.185384454225347
Cs 5.363660186707001 3.610722364576854 8.375546607105012
Cs 8.07846031005448 12.639392662776876 5.398933331846399
Cs 0.49340827303373275 6.056205879957754 9.920548135147145
Cs 19.089179941805654 10.72539131839222 7.998614374606386
Cs 5.264373750902571 8.962651591048132 7.584686835355761
Cs 8.001133067287434 2.435910910305077 12.489127003383512
Cs 13.172704892762004 11.628044408040985 8.109999553789756
Cs 14.970458422785432 7.2067623900455375 9.500033324725173
Cs 12.50127485090819 4.883787845737019 13.03291734302773
Cs 3.7204137821331638 13.683456536487865 8.363309062717018
Cs 8.736017728287152 7.4595303234671535 10.690877733850964
Cs 4.486936842365332 6.196661444450804 13.415919474019274
Cs 8.35792798516703 12.269801987105408 10.313576769507975
Cs 2.7191155689098383 10.18403830816951 11.51069041051195
Cs 11.740836228749359 10.184038308169509 13.165039148095467
Cs 9.129600280219076 6.055095884129357 16.533678743074553
Cs 6.949426633422669 10.321974036634806 15.331278253234418
