25
Energy = -16.66456296 eV
Cs 6.351617794716276 15.414638913130116 8.461133631448158
Cs 11.629073128610154 16.05783771161635 7.959073413261261
Cs 14.550633783132817 11.058728809219255 6.330749621021446
Cs 9.275133633838541 11.173906764846866 7.678421271535593
Cs 11.500615962733207 7.031025278785297 6.473566633624406
Cs 18.30174939950986 10.244994404701913 9.922197565914146
Cs 14.027095301544584 19.3906097381282 10.848870707285643
Cs 16.707339944947677 15.550528664585158 8.618071658552047
Cs 20.27949739461117 14.605259913815104 10.716670023458358
Cs 8.749293773558113 18.730537089016362 11.663472308298843
Cs 13.487820707819324 11.787974169763269 11.022298597045525
Cs 15.377058288273911 6.382318589164079 9.536109542702428
Cs 18.277464149798472 17.945559632730408 13.11199081798211
Cs 10.463192307806995 7.985347251532513 11.775916043333556
Cs 13.227104419593674 16.321577179869404 13.382183709997609
Cs 8.48002726759738 13.28683715982614 12.572271807363215
Cs 10.456703576193418 20.57934142348371 15.344896750772211
Cs 15.122547649972908 7.985347251532515 14.439042260998313
Cs 17.482356419220288 12.898958433309778 14.441522342770323
Cs 11.532634040288427 11.556261974472978 16.302119902564378
Cs 15.487224205684397 19.766715872380853 16.170087149863008
Cs 9.409003259260652 16.60793882742027 16.83274656313257
Cs 14.85444604899631 15.82500268475114 16.96290456968052
Cs 12.067458290972768 18.730537089016362 18.797646688550866
Cs 15.759439555986807 10.62739195527986 17.875299554369928
