25
Energy = -17.36605203 eV
Cs 18.178507998625452 9.861331867796176 5.593085326858019
Cs 2.5609644490571544 11.939524088444362 3.7876648606428267
Cs 19.548838882104533 5.1843906699841895 9.48392269718319
Cs 3.26215638992749 6.406309367404102 5.873298714197219
Cs 8.22385983923237 13.748423612494152 2.5801993694607277
Cs 2.0083797522441382 10.972611069623829 9.48392269718319
Cs 6.418627179466673 8.471991544035767 1.6111347522006452
Cs 6.957704152479485 10.560840365172242 6.780273310554681
Cs 2.6784113085693817 2.2713939698840324 13.081719191658847
Cs 5.487013182807673 2.2922891733731956 8.251574335012325
Cs 8.505953150795156 4.270093493193524 4.20538379658097
Cs 4.882010558054117 6.683617030196444 11.825263661185915
Cs 7.095155373563608 11.697910771257739 12.510801737749476
Cs 9.457482079653039 6.25515992947571 8.935685613760521
Cs 10.89800355811529 5.569547974373342 19.719795446266644
Cs 8.430563655340093 2.5476485187014344 13.28128001621059
Cs 9.737548217362317 11.556992745791158 18.15956317358688
Cs 11.142906310545692 14.0282909281133 7.811796530104694
Cs 12.36642321017434 12.789590883742251 13.352588742796893
Cs 14.181920386883723 8.953741726842118 9.19927230191795
Cs 12.094238164013209 9.3117732882325 3.9354883133216836
Cs 14.207438294261578 4.751878968487043 5.882856532756918
Cs 11.020862415301147 0.7311011002639085 7.967290353428668
Cs 11.13927279842487 7.125612240262677 14.565798468524386
Cs 14.33274656370937 3.6628995533878212 11.572977984039069
