21
Energy = -14.1528259 eV
Cs 15.032064037749175 8.571151065381596 7.654559099265889
Cs 13.451973702856614 4.397796646965361 10.230751069683912
Cs 12.17948846896279 3.9751231156108147 6.449369223375966
Cs 10.41153612398875 8.662051013070785 4.469717063358079
Cs 9.936062535109576 8.014341985471784 9.736287386143074
Cs 10.322689263958601 11.654360981273566 8.238763800942564
Cs 9.218455297188422 3.2443720486017544 9.794067899070319
Cs 8.656227013149923 11.796772973988402 3.970086909033847
Cs 8.38871489566749 4.379718012231685 4.384721963465497
Cs 8.797530279506992 10.938702774308593 11.59114375598251
Cs 6.532312766980193 8.279983210132587 7.581508345448263
Cs 8.763768371840763 6.9371710428766695 13.072701495020102
Cs 5.996020178771804 12.433976658193389 8.56027615720267
Cs 4.468660402176977 2.555660305851382 7.284660506814095
Cs 2.9732968082423046 6.5183015564592734 4.230469980157628
Cs 3.763819911503159 10.569428626617771 3.7295906111373003
Cs 4.731822426884614 4.403340490583302 11.009695815073748
Cs 7.147605819084258 8.536982205203357 1.1830309909452184
Cs 1.2324866692781489 9.587044157306046 7.930048815035081
Cs 4.249217037671041 9.58704415730605 11.046918701579932
Cs 0.3623162694010903 5.58585261516397 9.290763528305106
