26
Energy = -17.19825682 eV
Cs 10.458370105709534 12.199391650401347 3.4019091606526204
Cs 8.794663340506343 4.130105767415588 0.7841952228180438
Cs 12.21756510199447 7.648424445317087 2.779438137716502
Cs 15.541651358030553 10.467110939122618 5.868971168670009
Cs 11.918303220054572 12.188553099014385 8.808029854330464
Cs 9.08297400276625 8.679396431042841 6.666314622908941
Cs 13.137327543043005 2.500250395498282 3.4626442815146072
Cs 7.239191626795631 13.946971425855931 7.196299751833545
Cs 4.933807191489032 6.292751151513399 4.255849915269777
Cs 6.293110039183236 19.006807122253285 10.417029160373477
Cs 9.691624088556129 15.243636321137455 12.023250900591956
Cs 15.051089212808218 5.89273021077879 7.067683945678236
Cs 3.3225880857312315 10.415276322583773 7.177860291126344
Cs 14.86323211433369 12.976782827170995 12.85366336410669
Cs 3.2180912905780366 14.466612974281785 10.594374503694464
Cs 9.201828865271857 3.6096724750087223 6.4050964734697144
Cs 12.999874422892884 1.3086960626960833 8.675295383238911
Cs 19.251834288699257 11.457388998660214 10.22074638145543
Cs 11.515215979952998 6.956091501350965 10.73846073661411
Cs 5.075056716936498 5.862417662579095 9.593340436988981
Cs 7.479477972259886 10.5868142148733 10.980852453754554
Cs 11.09644917011199 10.467110939122618 15.01781518636174
Cs 2.514497468750546 9.740074586559716 12.449637999627189
Cs 8.934418002809 2.401687616639018 11.66916505772371
Cs 6.928092802896219 6.8017238423005715 14.204241787108488
Cs 10.60667403554387 4.934959318027744 16.869272123575588
