25
Energy = -16.76653572 eV
Cs 10.950790882440645 9.488674312256894 9.525810901436701
Cs 13.193844123900735 4.493758653027639 7.312415989368166
Cs 8.252689993903578 12.146357817137892 13.579607572456391
Cs 16.380540932317206 8.876688623420675 7.822003590799408
Cs 7.705562926633889 8.733879065113765 1.5455728396378
Cs 7.271770743477824 9.821901799747305 17.618635886946393
Cs 9.786474789784483 14.29396083395225 9.691765712072616
Cs 4.096412548555626 9.14927488244889 5.277374133562642
Cs 14.141487255356052 16.828450675339493 9.962975106107535
Cs 11.23101424900481 16.404237046803473 14.122684638358002
Cs 8.170755576254386 1.5304616325420115 6.889374572178497
Cs 10.691440946256623 17.506009121926713 5.714214023150102
Cs 13.58417327729 12.71148635626171 6.6241383594296535
Cs 4.636707112986427 5.272409455820362 8.999611061307688
Cs 9.9874775762673 19.509060881919137 10.769643027949977
Cs 8.9625441840675 6.659122007697257 6.087607784850111
Cs 14.910834743716011 6.501927429514743 11.610350093432595
Cs 6.217281781820746 10.367637116193936 9.710909439496959
Cs 9.981235855145243 4.73061799606647 10.769643027949979
Cs 6.041732371053054 1.5660908424467381 12.06501251487044
Cs 13.755129669359924 12.009216380488443 12.0205522825496
Cs 6.104734005550917 7.036975529694199 13.454605728409042
Cs 8.941983172292225 11.877064000959143 5.116706854328672
Cs 11.08142852277809 8.35462212005164 14.533085993384674
Cs 11.62886420164669 12.30231480763747 17.347898254433392
