21
Energy = -14.09793964 eV
Cs 3.8169453225250765 13.404227506909175 4.05279636942738
Cs 1.712754694585265 9.116816851848682 4.707511416140129
Cs 3.1750361010515276 11.282675764852213 8.81588671176268
Cs 7.638899195414371 15.207254795500836 7.57731059832797
Cs 7.282504752652227 9.799503537635248 5.030975758712905
Cs 5.567168144930644 5.168550893904939 3.9195055878063174
Cs 4.267229796126631 6.6505625006817475 8.650747666951787
Cs 9.793927282866212 6.418307096528047 1.1577385462259109
Cs 3.716238273264808 8.810696389297174 12.53874042964834
Cs 7.661752917223153 10.536981950150414 10.291322760410957
Cs 9.551671375697197 7.412835189652395 7.915894225623853
Cs 11.150221942639481 11.887274049979942 8.155026670327652
Cs 8.041751826208444 1.8904306789702483 7.326824126657326
Cs 11.287101502616592 9.0305490745228 11.671717208256178
Cs 7.435733765954397 5.0307226673592025 11.671446555902303
Cs 11.995101961926842 9.799503537635248 3.9106327822295994
Cs 8.0420998791514 8.905896437536562 15.647102938007173
Cs 11.874210120954867 4.415265172687695 5.27080944814286
Cs 14.793901489465089 8.521459721580147 8.078061797396877
Cs 11.543306072017426 4.01968496060704 9.882156389537863
Cs 10.65872244915746 4.904084321399411 15.284759832062196
