27
Energy = -18.21105029 eV
Cs 1.58088107572686 10.125135685356751 13.09107632203245
Cs 0.5305736861641527 5.589898286839196 11.038210595939674
Cs 4.4932782626457985 12.681559348318652 16.097412127106843
Cs 5.599910145173205 4.680529075583829 7.893705817139766
Cs 4.3543949308871275 13.104217673632292 10.776084654105151
Cs 6.084312264792919 6.525261501574959 11.876924909793608
Cs 8.024422723487783 9.78092221010973 15.272168015252614
Cs 3.1137094461231984 9.551092756061037 8.70447003434109
Cs 9.127149219711173 13.77227631273935 13.785296747427347
Cs 11.194636579054245 7.732745649435752 12.14538651638644
Cs 10.064310657358176 3.2649433090759787 10.488322739178097
Cs 5.982978519333644 12.974272744404054 6.269651980166687
Cs 7.0002724174427255 8.78600742637682 5.017611995189093
Cs 10.612781906850367 6.933838803936381 7.230285526743854
Cs 8.29603673257048 10.618649524717215 10.348211316211236
Cs 10.369944383882101 11.298831887590032 6.113175232720214
Cs 10.19882687423456 16.204754076471723 4.639998413612665
Cs 9.380587222392105 15.266921588854139 9.667975537799213
Cs 12.308517653017905 10.618649524717217 15.834672291093524
Cs 15.08659394743851 5.230364361310034 10.321662969881869
Cs 17.05366135302832 9.487204107572856 12.009239251711488
Cs 12.52186980231266 12.004003747233336 10.78048930874113
Cs 14.99482463154089 5.575198662988702 5.003700314303324
Cs 15.165491488466566 10.452718848143673 7.71218576134637
Cs 13.907486597565867 15.11690039515289 7.4788380884611865
Cs 19.231426026896926 7.47879451803527 7.712564384634086
Cs 19.77336223059615 11.988122774084726 9.534493948997616
