26
Energy = -18.02036916 eV
Cs 3.7777257758310525 9.76682169920948 13.23212374799554
Cs 5.570675907611008 5.195513473696298 16.150523199599107
Cs 0.7208402223285052 8.36311375286841 9.144985019603787
Cs 1.509897261654163 4.814480436724917 12.460599186754642
Cs 10.017000877171519 8.733769326305605 14.516416902551128
Cs 8.362731345617007 11.327325101090938 10.54876997158007
Cs 4.03746841917552 11.745213255744194 8.619191848902979
Cs 3.2432295092684176 3.8422505026874316 7.709876043552197
Cs 6.4229005980704965 6.430889675587512 10.819157887924831
Cs 5.054022833330371 1.117876139284919 11.5848399191907
Cs 2.892808468554963 8.496682534558825 4.056788041705458
Cs 9.602598774575021 3.0501775153490662 13.109775774075977
Cs 6.975003477412082 7.740739521995715 6.7329427236205435
Cs 6.594718667345985 12.44459254375112 4.290468653864621
Cs 6.449431452655667 4.0819282626273425 2.902788815336636
Cs 8.506873570760392 2.2753508890498475 7.859297333660903
Cs 10.017000877171522 15.054527431683091 7.1929076781355805
Cs 11.174186203066418 6.449523161309745 10.019482161003113
Cs 10.46345006736187 9.906536169224571 6.243466265266936
Cs 12.978840475558968 10.945492838443839 10.304581657939524
Cs 10.690342148997123 13.35763218758014 2.0097481994155664
Cs 8.499537944538915 8.866123803406245 1.1088869817890383
Cs 11.054997548926066 5.306987446915595 4.5508555016326735
Cs 14.753245176060373 12.728037270405826 5.556011150494297
Cs 15.396849593615425 8.007064102345764 6.921435617645199
Cs 13.477333719908682 9.373063283707204 1.8762606701748261
