29
Energy = -19.79617919 eV
Cs 14.066440058787924 8.581281899738766 13.5428172447888
Cs 14.678106983659298 3.3561196087934255 12.933534417491394
Cs 16.114853672437857 6.54768440446023 9.380846241157498
Cs 16.638372602063974 11.477637281048171 9.938414823962479
Cs 15.277758831468484 0.7991396416315865 8.827312606138616
Cs 8.757224609238122 9.480475167728173 15.078961751534088
Cs 10.677118538987541 4.675358496908736 15.244330777916439
Cs 10.627526101189764 6.945412348504875 10.481839975567839
Cs 11.081500708354971 11.638242839262265 11.075131542132505
Cs 6.351554783688751 4.655242305617058 12.003387170997126
Cs 10.645350335592276 1.5561672413346084 10.883442965350731
Cs 13.117678259260282 14.80148571802971 7.640280567383566
Cs 12.086285298215516 9.815800755671871 6.5651837807678675
Cs 12.316412020580385 4.261540424030652 6.2789380163985875
Cs 7.383456066174568 3.9672304023019316 7.0987637495146405
Cs 6.967032670088757 14.059456301129135 13.231210179204265
Cs 6.412633575276708 9.47081322207991 6.411174882850562
Cs 9.644677044805459 12.665799403016342 3.4756878222837555
Cs 5.522089986941818 9.89126195778319 10.883442965350731
Cs 6.018066428649792 10.491802035100648 0.6019100185672478
Cs 9.424912988821685 7.011173687568714 2.906130613351905
Cs 8.098572157203524 14.06579388554528 8.29605512225572
Cs 2.618325954713212 5.750033164235142 8.606786414638464
Cs 3.172540975939237 14.579508739109416 9.935369152182968
Cs 1.2401377784371619 10.172844749531013 2.7924372699961206
Cs 3.958886651537963 5.87765019199319 3.429018519325552
Cs 4.378205854637329 13.659856477859087 4.518397276324053
Cs 0.857501485829785 10.776570519462108 7.924669024203225
Cs 19.751405926566637 6.4174317766655555 5.338651933757252
