22
Energy = -15.17197841 eV
Cs 8.541493497138736 6.6334049284359 14.999279523687175
Cs 11.55365375182394 4.558305323670054 11.130913984774947
Cs 7.149717256814179 1.2390805628486021 11.142155097750603
Cs 11.431558394813676 9.659130597375858 11.068603377976022
Cs 4.421591831652262 6.461645828913555 11.311754795204052
Cs 11.513680899530895 1.0558901642509322 7.0693678670532
Cs 6.382307524090622 11.569406334649123 12.522564820503804
Cs 7.431913632354717 4.698449937285 7.327116109485522
Cs 12.126113644919323 6.868177751905491 6.057281877780402
Cs 2.7385252128916777 1.8234869444120743 8.258823462394643
Cs 6.85692323062745 19.080079233781742 5.537343455789833
Cs 1.9862109622975133 11.22356796555509 9.715581688595782
Cs 7.486442446866881 9.659130597375858 7.93914835469021
Cs 4.249666269909873 16.253914182771243 9.647109838742022
Cs 9.474878246157443 3.4538238749660617 2.654581437109035
Cs 2.3343877326588163 7.2953706121100135 6.392675510565064
Cs 4.105458465084944 3.3054712125250747 3.332161413857598
Cs 9.464568902704142 14.9734987332689 7.592321180509925
Cs 11.16053372719385 7.849385503308782 0.15678991551794988
Cs 6.743329068839747 8.22106072028494 3.017325278723739
Cs 4.551757908429828 12.798183083211462 5.2527319063646996
Cs 10.987548307285675 11.568471488195689 4.037231516463226
