20
Energy = -13.52128507 eV
Cs 4.4956179372089355 15.05882959515988 10.466854366094857
Cs 11.561775231061992 8.493161133186723 7.959750954745659
Cs 10.995607885873834 14.918927220493146 17.50892397837507
Cs 12.506613735856833 12.64014867464296 12.906422043440564
Cs 11.13612970581316 9.655458361772974 17.48205550619822
Cs 16.679816264919644 13.812917455157434 4.860774472338188
Cs 13.305660049268639 15.590975447841767 8.467222340777923
Cs 8.74501815803529 12.773880818191971 8.985244244410994
Cs 9.800997588550388 17.374111458495552 12.502696984220682
Cs 7.106123923586518 12.796651339673323 14.392413222451204
Cs 11.03102469425648 3.478349529119607 10.459578396126046
Cs 11.780829874018897 12.106860869817426 3.8598275680843988
Cs 6.4525339257659935 5.911686918311836 8.460537947055661
Cs 14.22923402707489 7.6378858013965365 13.112714276384096
Cs 11.134731721044052 4.375865723491302 15.612927476057092
Cs 16.569222224444015 11.156561093619612 9.3182993297041
Cs 15.883983104816648 5.795964701662051 8.343795000426875
Cs 3.1842509876648295 10.068477290736572 9.3182993297041
Cs 8.612682436947702 8.206999790032325 12.614992975343277
Cs 6.719150820552342 10.077291073958895 5.090006119988045
