20
Energy = -13.64839423 eV
Cs 10.676962021126881 10.126555549374139 3.0586461890817382
Cs 5.031730964626052 9.50561073270195 3.1025784801928102
Cs 7.4654381880205065 14.14175017072422 4.060162142576937
Cs 16.842893940053052 10.558502271638027 6.013732982200922
Cs 7.367831357152369 5.776337957853091 5.816527030170265
Cs 12.468971638680614 13.954125595116963 6.878809952288344
Cs 3.2742613466318207 11.822933568746825 7.481499772376062
Cs 12.545698004661544 6.844124504259672 6.844669886161778
Cs 8.566153372913275 10.750784919527243 7.877452303232968
Cs 10.207758530815346 1.9159563319696231 9.10363419602014
Cs 8.8121360850056 7.208509091247767 11.137743890000388
Cs 5.856657119844149 11.562201297941067 12.65019691046414
Cs 14.131031112987142 10.432647727447522 10.552841127578478
Cs 10.77156911158543 13.737979321413665 12.633724130109382
Cs 7.74196659502151 15.92823166309366 9.103634196020138
Cs 13.860328287391203 5.178264290686204 11.674491415068431
Cs 9.705270147841244 3.6015310322775385 14.624203412858035
Cs 6.797237274751332 7.465385189746943 16.60232173443624
Cs 11.669787217928462 9.008805337086782 15.034011876990778
Cs 8.154989202160397 12.446531412642397 17.697789891369275
