23
Energy = -15.64953311 eV
Cs 14.46231039832742 7.66028308729494 15.690005387086632
Cs 12.649835112387194 4.789637113547057 4.754008309677024
Cs 13.854634523192262 9.775888898800487 7.392210067988789
Cs 12.025621886534974 4.678490360931173 11.103978798297828
Cs 12.923453469509722 7.270992056296583 20.70943636325626
Cs 9.893612326689432 4.996077184601615 16.754805311534614
Cs 7.881515823102981 4.893742406629316 1.1594748895684157
Cs 11.089540085843723 9.77588889880049 12.393914475260027
Cs 9.888642782087212 10.554488690171338 2.9494457295807264
Cs 7.815366175107937 7.115442281494727 7.220138271879544
Cs 9.023958423963462 13.195758609564793 7.544451356465385
Cs 9.551763837166256 11.492679398535355 17.5299838188122
Cs 5.8543637336416525 9.766259082867524 20.910766302099326
Cs 6.611212216706634 2.5495634049336973 12.542281458028544
Cs 5.205652156386493 13.444420650592717 3.7577618287384458
Cs 6.242504992424612 13.565608259448728 13.45972544683312
Cs 8.079514045020767 1.6644063831079967 7.009719469175384
Cs 5.83131908022612 7.5493091355681 13.340555473854296
Cs 3.8620763971978174 7.791195677523925 3.838138508853247
Cs 5.316361678672209 16.742964790760443 8.313922350880153
Cs 4.119030641694575 2.5658120747676767 3.8844063292402744
Cs 3.8668839127710126 11.233489961959204 8.577276109632363
Cs 3.19790997563957 4.901531555103334 8.512577427749232
