25
Energy = -16.81327469 eV
Cs 16.03370508372335 15.874609508236126 7.681567952452311
Cs 11.493411132692323 13.551919731709855 6.347230605104413
Cs 15.784222423020909 10.344090078691401 6.964272068122087
Cs 7.359383943384028 13.554355134232708 9.752836687590191
Cs 10.874796914174134 9.501515961470561 9.72083283342289
Cs 19.29189265907421 7.352330325799493 8.790771995884324
Cs 15.333208162970463 18.084922548624156 12.038806123008463
Cs 11.152962125983052 17.908070089579574 9.050521312876342
Cs 6.587680306382416 17.922250542570694 11.623978961162411
Cs 19.49707188971086 12.561724852244394 9.262590266980085
Cs 15.056888036059991 7.228070143999192 10.68510174262727
Cs 14.62012146745144 12.71745029478812 11.532661816309094
Cs 9.789152085352779 5.807893052308815 13.009638885131418
Cs 10.735836314461142 15.06102290580626 13.534416105474286
Cs 18.255594274535603 15.098747064888666 13.897166893138712
Cs 10.596281611753117 20.04564213345271 14.340210988239548
Cs 7.906930199058706 10.17749909773435 14.060279754040195
Cs 17.93580854763007 9.520262782007062 13.387241056088287
Cs 6.587680306382416 14.786162077795893 15.672241732869356
Cs 13.025861575072717 8.9559298423333 14.872053807253966
Cs 6.379753197304073 19.544621136186866 16.32867714826819
Cs 14.27364381786523 17.077699171646202 16.903195895561613
Cs 16.024690168752873 12.29509719397566 16.903195895561613
Cs 9.25510139216532 17.439507346550794 18.167562579493843
Cs 10.733361465727349 12.490788911714516 17.633980549315513
