21
Energy = -14.15614474 eV
Cs 10.185449627760798 11.718495487262604 9.213167986418947
Cs 8.409955125958758 10.819067771064176 14.027945543394354
Cs 5.8449929110070995 11.739955906249575 5.09216279770281
Cs 11.30483690043687 10.966534506203914 3.6865390609097695
Cs 4.96608645170124 12.641498701067846 10.197979588137974
Cs 11.092259027237487 6.762496839028284 12.612906593920181
Cs 13.616761426753582 8.412461611597191 8.31176705068932
Cs 2.8138483569509423 9.566817115045906 13.496186069490605
Cs 6.248324008558271 6.370230195877642 15.684548321735466
Cs 6.751188789249411 7.869545518016222 10.197979588137974
Cs 8.637178758234237 7.890031667124513 5.992571629933789
Cs 12.989750888730947 6.242354905914691 3.4228644513219297
Cs 2.162556742780524 8.899345959760415 7.911293022541644
Cs 7.521127221011575 2.7930481666510425 11.492236226719413
Cs 10.832829574384384 3.8216205880768275 8.00867366613254
Cs 7.266693449269468 9.416189615100349 0.38406392940366657
Cs 2.5754427477160298 4.819217723705606 11.162244360101763
Cs 11.586964608611458 7.892085778309294 18.46992719503834
Cs 3.7848775169723767 7.116715051318162 3.3144380639692117
Cs 5.214509347808892 3.7003678058838045 6.99950330321839
Cs 8.50160397313222 4.3183047782826405 2.538518171093767
