28
Energy = -19.0788724 eV
Cs 11.108523046537226 16.921018873529434 12.706731489767895
Cs 13.781808315746423 12.472534556414963 14.872618063529794
Cs 16.516250557625078 14.360161551094915 10.691792754631352
Cs 6.236556500568063 16.523113851363846 10.565491686919916
Cs 8.919590632822166 11.939635399087685 12.967796480234712
Cs 11.251993347190298 13.969774996286349 8.39886784876267
Cs 1.123011533797841 15.138905213165897 9.457260264499503
Cs 11.520026383336084 7.706152105819506 15.026516747233348
Cs 4.219656559240314 10.836037536083088 10.56378458341014
Cs 13.659832823018734 9.618662793844056 10.56378458341014
Cs 15.96223149426076 11.712386235788308 6.10839643343303
Cs 5.977900891130744 13.40559551161403 6.358015995149466
Cs 6.914552904333481 6.642551886878347 12.856166366718593
Cs 8.924632444041602 8.934489402711257 8.390714735642359
Cs 0.8658441119344278 10.140402039156296 6.397807113475647
Cs 9.748394990814349 2.4795155538787284 14.616361019674134
Cs 5.7101618537270165 8.530973198036135 4.0956371790824715
Cs 11.524898641562334 4.629327502434211 10.29936782137804
Cs 8.94116232816814 3.9240079514904855 5.839820825761681
Cs 13.394555422009175 7.178468192236636 5.69557364176623
Cs 10.670564030540362 11.243117737229428 3.8298879336747556
Cs 4.241273059190038 5.698858029605379 8.411873396306866
Cs 1.4504181244144 5.2143845717970025 3.9503094667990233
Cs 7.190348672389221 1.1096445937783026 10.169520439534086
Cs 10.137501245421245 6.648708085849795 1.4047729231580686
Cs 5.9561595459937955 3.133305192639186 1.828171365194747
Cs 3.6829127378074826 0.8244156589348173 6.25563920107306
Cs 8.419092373992363 19.881671822113532 5.503264911196324
