28
Energy = -19.38666948 eV
Cs 8.379469967648848 2.039133275406124 11.37438030818734
Cs 12.168061494305082 5.675474205668455 11.783432837910802
Cs 5.200553032782508 1.8826480853616698 7.466114145755774
Cs 7.99658230372687 6.808159689134133 14.6445584417808
Cs 10.484995619712521 3.341009169494806 7.086721623920499
Cs 12.183146566884973 9.58931936249453 15.455611450482808
Cs 3.7031952425410517 5.27831751494062 11.123450080951226
Cs 15.731057322240561 9.939664424546253 11.58139618698386
Cs 2.7697595672264215 3.055910392015819 2.769802086164172
Cs 14.010808243523593 7.4688767264978875 7.352254241580042
Cs 7.96171810109083 7.083057820134709 9.374372572685825
Cs 0.6778212845351179 5.116485162775095 6.9204571592701365
Cs 10.484995619712523 10.483226136730998 10.371030474173939
Cs 7.8701351215601685 1.8810722655731702 2.7629466517144317
Cs 10.760677679599342 6.0588978782196845 2.462079711839577
Cs 12.207452087572538 14.457076011163716 12.331157314408777
Cs 6.315184363530901 6.594199090364754 4.896386616142828
Cs 10.590070232393863 10.250503554071024 5.147414264812072
Cs 8.37724509955234 12.341827527180419 15.479345419440488
Cs 5.920995980417348 5.907322776558275 19.96292156594972
Cs 2.1257227999524 9.693408894248577 8.263066434667582
Cs 14.5313065607842 12.565085564185189 8.137958468710156
Cs 2.39204274265234 8.660528543018788 2.7862543144631196
Cs 6.96563497941024 14.806702577455908 10.894780024106216
Cs 7.476817930966873 10.363421021657974 1.0306524933460346
Cs 4.8822236907340075 10.223156620416725 12.17054386590447
Cs 10.454627319780323 15.392367420641177 7.533789624163806
Cs 6.29453109642942 11.864843334474322 6.574423070802432
