20
Energy = -13.44867712 eV
Cs 13.679630611810692 11.849385030581395 8.177155359947104
Cs 8.417109607148536 15.026495269022977 13.820710716177304
Cs 14.080882532614993 8.941770689476543 16.159351775483547
Cs 8.179837585100485 6.655994233615079 5.9229656068036185
Cs 11.033560091649074 11.176592281500644 12.688924016271287
Cs 16.42359342001922 12.561578136640327 12.158722940624653
Cs 9.512587570896732 7.178718599717261 14.908918954801399
Cs 9.686377000895613 8.86015868351138 9.790471198323234
Cs 6.077353422628287 10.350967102152037 13.521681206654097
Cs 6.447651224124367 6.04946132042359 11.17158163844616
Cs 10.64111596720313 10.492391733987741 4.40439517167076
Cs 12.844947059618107 14.621073087986474 15.87330744240444
Cs 13.225924738954589 6.791692882557502 6.346887172630997
Cs 9.512587570896729 11.305853253347644 17.964025984508755
Cs 6.362183726780613 11.502382799800841 4.469984129871397
Cs 11.20842161668489 6.645832871383284 1.2539142096763254
Cs 4.674720702165699 9.548479164407073 9.000020224929141
Cs 12.286757778236263 15.875415911626552 10.53468311311584
Cs 8.45122782607584 13.365086857666174 9.250318538851104
Cs 14.898330692423597 8.281353556034311 10.790898625224376
