27
Energy = -18.20641017 eV
Cs 10.551047531443627 14.39793884299571 15.058871072139373
Cs 19.714513937552496 10.149292421880157 17.112987299977945
Cs 14.478687951153907 11.931952661699688 17.929677365551537
Cs 6.496157337614624 11.710859575873283 12.940309095162963
Cs 22.40621707737236 17.141352622180374 12.825025456099075
Cs 18.348229773520206 14.510290821156508 15.033586641305321
Cs 19.092022150658536 14.423434169025708 9.610731717545098
Cs 14.437922731780464 14.425991193883323 12.77213499739211
Cs 10.446233448138264 14.516006830441919 20.233307439419377
Cs 17.207070408174175 18.848087053499697 12.208189041047586
Cs 14.482132059476097 11.783570115326414 8.277419867143102
Cs 9.80814234112645 14.294700928464822 9.630877780151515
Cs 11.570214591201717 18.760317698305705 12.216854484005038
Cs 6.428903282907984 16.905544681721786 12.842354768566834
Cs 19.579843929957047 18.990917843145574 16.938189523026974
Cs 9.192528918511668 18.845574075257634 16.958172715217405
Cs 17.31968784559643 10.056183729335817 12.364213794314901
Cs 18.477471816867926 14.624884321459454 20.21292120608464
Cs 14.419159540653212 16.898673234637872 8.18777015289787
Cs 14.35490233948002 21.441056752195724 15.658173212154258
Cs 14.417058687751844 17.10803310970833 17.815085127861682
Cs 14.564708034566921 7.525987633198593 15.933744510561478
Cs 11.706514993149591 9.980882982581143 12.383311835186891
Cs 9.31858341146937 10.000164557567897 17.124755334607407
Cs 6.005529670236301 14.386248608183537 17.525798884975536
Cs 22.9125617972905 14.636531760411183 17.501708100179666
Cs 22.487272892348038 11.928840275862143 12.927147077424218
