21
Energy = -13.95373526 eV
Cs 15.854592006614606 7.899407529624733 6.719680279729045
Cs 8.6576652130251 6.709622785909872 20.844689231151214
Cs 10.728253928265845 7.22572708037268 4.489595084813503
Cs 12.786578122777197 11.28808322188297 0.9792464912070256
Cs 7.364909361828496 0.573249251717703 7.643734995020751
Cs 12.580050853180925 3.5934496853556475 7.781123156960683
Cs 8.410715221906107 2.5714984106483687 2.9546495900817864
Cs 7.10415296091807 12.104797599756287 2.0212467222388977
Cs 11.556557889685852 12.234962496612129 6.731450648434494
Cs 4.756021847915746 6.5041571462478895 3.4361425333639644
Cs 11.644432152775194 10.77382908315696 17.15590178177353
Cs 7.511414746051533 6.213836587533999 9.732048763255428
Cs 3.1017703198971622 3.990515569736271 7.75676800406691
Cs 7.872814821442434 16.625032540681733 6.34085949827188
Cs 5.2794083919756565 11.287035240927999 6.843952185757411
Cs 0.04435719446786854 8.16115936242083 6.584315130125647
Cs 8.657665213025096 12.075397347669748 11.995733562784148
Cs 12.717024549885668 8.147028271126779 11.917127999534943
Cs 2.929076924477762 8.543639546764245 11.797119763457713
Cs 6.330889583175491 7.539761550610772 15.56338570369723
Cs 3.858397473357602 9.529582214909915 20.148389329719183
