24
Energy = -16.01797735 eV
Cs 17.314832022204126 9.861737888824488 11.574231950832273
Cs 17.320281381363973 18.65883855944635 16.9813205321315
Cs 5.283154122894666 14.291849677107876 14.236750975484503
Cs 13.003584016269931 11.923420569076034 14.286093428526465
Cs 8.318696147781852 18.505187810761402 14.218968290153981
Cs 21.80479215664731 11.587631945638357 14.313797418503958
Cs 12.039190940864794 9.584404865551313 10.002816769294984
Cs 17.28216585925752 14.255944444686726 14.279859938102197
Cs 12.006993519703894 9.656890022120049 18.592735304277998
Cs 13.012532771639261 16.62235552725856 14.242962673734928
Cs 20.061381711883314 14.218351253666807 10.038047406759697
Cs 14.709597105281455 14.311121445956031 19.31810953291683
Cs 9.507554456410565 14.249028645996582 11.037715049154192
Cs 8.298870989261225 10.062421255920594 14.283528636858595
Cs 20.03511635929459 14.284842800213534 18.535417958898215
Cs 12.033640649877265 18.96453703758258 18.5204488038406
Cs 14.746679171498013 14.221672685890033 9.216701363228019
Cs 13.838766527668298 21.6364340882952 14.20512481787002
Cs 17.34237877375579 18.611279024780796 11.500317029443734
Cs 13.7964710932119 6.907636874165944 14.324913485138705
Cs 17.296041609433786 9.904033566679564 17.050590374091115
Cs 12.060944802941274 18.891839434840236 9.921268302634806
Cs 21.819320487249765 16.902855647718265 14.269460470317005
Cs 9.485741323604643 14.304412927822888 17.4675474878059
