28
Energy = -19.56542634 eV
Cs 20.41447237080217 7.799372058000783 7.715989712954674
Cs 1.0179299229706615 5.547465218767647 3.055244728951258
Cs 0.7465142250389182 2.6486000951683204 7.759977117578793
Cs 2.630625974797899 10.566709806829552 4.356199262795247
Cs 3.4283896846230952 10.602392998155537 9.795316376489406
Cs 2.3619887056099427 5.822488011011382 11.630692804935524
Cs 4.5895355399840945 1.7091387260770063 3.959528054317554
Cs 5.0119513401975 6.453634538409856 7.106059961355375
Cs 6.301690420063829 6.076915960201783 1.4671412973731472
Cs 6.206737100867101 9.483081714378804 14.11794147002138
Cs 6.06212318329913 1.0271876705851892 8.973830584437016
Cs 6.220912647439295 14.505164375107215 11.988543387965438
Cs 6.324781652536107 14.401543044725788 6.7621249459024355
Cs 7.782830794898726 5.294692272040448 11.356062583791164
Cs 9.357477015453938 3.8581244904269187 5.435147494866107
Cs 10.56954969402661 12.69655918803986 14.127656104279833
Cs 8.710887768899285 10.56670980682955 9.85837777235001
Cs 7.903912801102145 10.26997613025892 4.2486345532067515
Cs 11.741915692984733 7.9036451221487845 13.33244688823586
Cs 11.56643808794519 7.628376169299765 8.034107166426791
Cs 10.710667741184725 15.859184081634728 10.037483420690974
Cs 11.78452959095401 2.638363292274274 10.147867712447141
Cs 11.890238296569583 7.7809388623084486 2.6593003340369554
Cs 11.856512575117259 12.682770429703915 5.959002102734116
Cs 14.28546761751934 11.346004551827484 10.546031496807897
Cs 15.393651802487586 4.3754999327949395 5.960915600252048
Cs 16.266024924071914 6.3264465440969 10.605885744328148
Cs 16.128644527515046 9.767512300066345 5.502404133968762
