36
Energy = -25.5896675 eV
Cs 12.774492164576708 3.6634908734616567 11.93218055602043
Cs 8.719758353226904 5.522045226584282 14.881703099217699
Cs 17.037156481333263 6.970011313682188 11.116539589910188
Cs 8.451724830880101 0.7432645598700234 11.803788113985943
Cs 16.33808077022815 3.7877726858278136 7.1064851801095195
Cs 12.49025990427683 8.747960699937554 13.433069805687033
Cs 17.831434948303027 9.123627745773712 6.697665981776486
Cs 10.84117877129237 1.594592341142098 7.764129698235876
Cs 3.9152990786660884 3.2659348360039 13.18241602918059
Cs 8.753111922658643 5.861116225871365 9.979877586922484
Cs 7.825230649896879 10.948205039495186 13.99917295168591
Cs 15.41529867236075 11.620904857820644 10.413054393303629
Cs 12.765311652680829 7.3700510971718005 7.655712357710117
Cs 15.225241338977844 7.66268101356824 2.682818411706348
Cs 12.602907948995298 3.240892143351462 3.229105027279775
Cs 4.870660152409397 2.4213441813107908 8.315700172414854
Cs 11.812572213878354 13.856390381469238 13.44598107829581
Cs 4.339645648309605 7.853271373987577 16.706676411967635
Cs 10.235785515729948 11.10571830941759 9.725607801032154
Cs 4.304713645688812 7.782417486154198 11.108543357710428
Cs 0.04811991500849241 7.235934480363034 13.71184783476971
Cs 7.785301214656307 4.0531097750588545 4.20656452275166
Cs 21.461797182359394 5.035690331592848 9.150984696451575
Cs 12.197982060585606 15.81879169230887 8.866416247152323
Cs 2.8368649485524036 11.782843983055866 13.51737156580446
Cs 12.769036880338332 11.686244005932403 4.879617546588317
Cs 8.344818657409027 9.277048780048581 5.430488665688514
Cs 7.631759204960478 15.648713929820222 11.108543357710428
Cs 10.838013519262615 7.61492542039489 1.1369267565773167
Cs 3.3505193839114105 7.133657999018197 5.733748163546861
Cs 4.8702571275787285 11.96279287843615 8.73019851586925
Cs 21.44487993150029 10.492388058425039 9.74793503088937
Cs 8.473720320460163 14.578294640110537 5.716217447853865
Cs 5.575642976954168 7.924145431060922 0.7183371260646476
Cs 8.998297372647478 12.082649347230893 1.0228298873354311
Cs 4.211444696530456 11.805473052344745 3.5183575007722228
