39
Energy = -27.14309432 eV
Cs 11.20154229851087 17.08481207164599 12.518922537702345
Cs 3.740399073915319 14.819851470876186 15.893720361464032
Cs 6.3800561929082 16.02209129045705 11.476489081225118
Cs 15.24426858080772 15.314571423254685 9.651839018624267
Cs 8.881347950283889 13.271678570297594 15.343277644829751
Cs 10.292940483295833 15.09355459091683 8.127065146482463
Cs 18.72144628213315 12.78640105120176 6.2360505960600205
Cs 5.176530578681262 13.844500238193321 7.177288618936064
Cs 1.927790267131909 12.272258591853612 11.723238921195014
Cs 12.139637463343178 11.614736541920228 11.603436362918172
Cs 13.737416198482173 14.802484841280782 4.360436258570718
Cs 4.78018813754561 10.12820806136911 15.757020707408762
Cs 7.125207963121056 11.022391946238168 11.150802903177132
Cs 8.949259414168399 14.149612095693081 2.898910130773618
Cs 18.185960354608817 11.00525276264756 11.153369710296346
Cs 9.999217160597745 8.532918130330268 14.940377906808536
Cs 5.297981255824713 10.798674621810783 3.1561450284457133
Cs 9.571859099770268 10.410855699507309 6.365229610909883
Cs 1.5336365393808409 10.159126152109621 7.579140523472415
Cs 14.724860924588517 7.598895135100587 13.384292642308093
Cs 14.288327240432885 10.66788291968782 7.223487305367907
Cs 1.7892471499820914 6.906499956085043 3.2942068972319656
Cs 11.201542298510871 6.898289475356449 10.119255913851747
Cs 3.6089461750573433 7.1416903244607965 11.461202918418735
Cs 5.823933064888686 6.647946541094984 6.9283292847543985
Cs 11.22467193364326 3.4256026881991355 14.131232563807814
Cs 12.12821258736521 10.669066896998128 1.9551938283087908
Cs 6.376546332382753 4.897156666859004 15.490492510071423
Cs 16.58094204280683 6.112577987681214 9.040755580324774
Cs 0.32334750879376045 5.045438505785203 8.259670186446748
Cs 8.787026983701441 6.902596337102587 2.2257060518449467
Cs 12.79630292154048 5.969162600954427 5.054059058877569
Cs 7.580971417548552 3.042740237258751 11.06079082855966
Cs 4.101670567788752 1.4208603062122773 7.448780042322215
Cs 16.29146302908684 2.4929889745706486 12.650111578730593
Cs 5.136002595394424 3.1649120018102925 2.3743375072703587
Cs 0.21059773343786553 1.8233336455653693 4.085567250290931
Cs 12.686342375525184 1.9604730227835816 9.331449981015076
Cs 9.189262544665386 2.63061519229984 5.839598870294456
