36
Energy = -25.2606119 eV
Cs 11.436454640156283 7.291751801161111 17.46104173038111
Cs 15.531011134592317 9.30080591394058 14.403678729309458
Cs 13.182230764121712 4.219176666073002 13.312235464233733
Cs 4.230104212414522 3.1659592430071406 10.785883687566796
Cs 8.232214408608627 5.665681921660851 13.731157990972637
Cs 9.956683871350004 2.087907811741619 10.38161460747925
Cs 11.839759216204861 12.124658981706219 17.605327491746202
Cs 7.280239626716559 10.893017376862083 16.13730953308949
Cs 6.854732894539785 1.9182865103521591 6.074591229311819
Cs 2.4322626517575667 4.7119096410651835 5.5545925341964475
Cs 11.038247704934642 10.210054484044637 12.651349288937137
Cs 3.807860484134701 8.231754051257479 12.64244589254149
Cs 17.313294531044715 6.190771716464233 10.6063016393954
Cs 14.362658716810946 2.403664387892417 8.331587921939956
Cs 14.212123499069024 13.935857357096753 13.077590398347365
Cs 7.570426050406623 6.494595554948716 8.900861798482365
Cs 12.326607520557538 7.2350972511842935 9.363903886125483
Cs 9.432958954035872 14.92200724628361 13.704148757349238
Cs 16.54618508459798 11.169141756972657 9.690421903275809
Cs 0.18711792249806372 6.72869251647092 9.71636056192979
Cs 0.6190475967415844 11.51272100729915 9.960898647040773
Cs 6.47946149932733 11.717491161036078 11.036824909099954
Cs 15.556690502919894 7.0142639122127495 5.218396398717461
Cs 11.038247704934642 4.350133551951728 4.882282654647964
Cs 7.1489671789112945 6.366874325363198 2.8729865305498437
Cs 14.818391131273142 11.8026565947714 4.764093903260569
Cs 9.948385622093687 10.206650218313717 6.07271971570918
Cs 11.171077923576995 13.806203150332582 9.076791186176692
Cs 4.191493810444356 9.438851066377355 6.924203322316637
Cs 2.3461634360022297 8.513797076356312 1.9566925228166443
Cs 11.576417591770976 9.019827400920787 1.3920344382307837
Cs 20.35004828658516 9.589752075372731 5.839922718628275
Cs 6.509266665947574 14.267996474419984 6.606053092302288
Cs 10.915636111865874 14.383081110910458 3.5242237870180246
Cs 6.7710216276539965 11.198077747487103 1.815045549724189
Cs 2.058107477536229 12.915020192635573 4.366063888875731
