33
Energy = -23.55744131 eV
Cs 14.448216687254774 3.284757685652192 3.037795038516302
Cs 16.556453705033153 7.477631044535695 5.758419615259711
Cs 14.046912625396418 2.7615212682950223 8.519819925178524
Cs 10.414634593882074 0.2578449905993491 4.59361685571387
Cs 13.254281941009737 8.135999343641544 1.188487244529894
Cs 14.354175218265913 7.872335503329789 10.49718337334112
Cs 9.589962666777824 4.589477104637686 1.0817228608087923
Cs 10.893702661680354 6.033996577103412 6.18141651056727
Cs 8.800963602048656 1.0148656273478311 9.466561962504189
Cs 9.927692152235997 5.633241683842874 11.672193876112933
Cs 12.358624080615213 11.172602264220597 5.271554007511401
Cs 11.674629019747378 10.375376880101122 14.179076208327462
Cs 5.912832284727879 2.748848709874019 4.7191850467056335
Cs 8.530857463526 10.375376880101122 1.0224618905033258
Cs 14.33448718114999 13.004146353972859 10.246306423279416
Cs 9.718127905394034 10.895627493363301 9.553193195375814
Cs 6.566668171988062 8.162834570194251 5.6273723275650624
Cs 10.780854679128673 16.316232057119393 7.731167586880092
Cs 4.6023135193691616 6.153167434362003 0.48997661917940805
Cs 4.619231706575263 4.739365338493903 9.44464981703239
Cs 10.377289484865441 15.513448448887313 12.637856606296106
Cs 4.929623319504678 4.568453198823049 14.519172900198537
Cs 8.800095509764423 7.472603726057996 17.19269550883732
Cs 5.939828895027914 9.181850784644647 12.092400476545366
Cs 7.203787617134046 13.38237495393552 5.244796677772672
Cs 1.2100862207023477 6.407505247126649 5.369226359638065
Cs 3.0304112687113918 10.625772824966123 2.4752077027359127
Cs 6.039414980203155 14.730241190875008 10.386349690575695
Cs 7.237017554698305 12.50238936973719 15.710908377595262
Cs 2.6490543278652012 10.649556105162157 8.145970711252826
Cs 0.6397250809957495 7.23977528254081 11.683583744166581
Cs 3.4133103692099267 9.205020626986798 17.00014405418684
Cs 2.088557959097325 12.325425658200375 12.925036085280333
