36
Energy = -25.11482545 eV
Cs 2.7195797993579136 13.175362543161354 20.73835448680937
Cs 10.473705993306888 14.40077485830264 15.511414916425418
Cs 2.0988100680072064 10.742702297238635 10.20427481844412
Cs 5.402518625160135 6.481884820521921 9.894711720727283
Cs 6.610469894316102 10.851300006963836 14.552074711347805
Cs 1.1687003816859713 11.813420987574585 1.9724286664234667
Cs 16.913350239327176 10.742702297238631 9.52522748536255
Cs 6.5014099617636285 9.232375271920475 0.6048115745576061
Cs 10.062180380502118 8.6702793044146 9.633997573798798
Cs 8.124933677957602 13.057533392152823 20.28651207167273
Cs 16.99915894915795 14.394342418275958 14.671217363212916
Cs 11.413123602728643 8.138022498925718 18.896152935042416
Cs 17.244310289196875 7.874015029460216 19.533359876818757
Cs 20.02086753981369 13.457571260933117 19.040999687521882
Cs 21.119762216828455 11.814365130477855 6.046974767619159
Cs 8.741375041000298 6.1395697287312885 4.556791008768497
Cs 1.9933315649221794 6.803986404520719 14.830971216770807
Cs 6.485510808684087 14.664676101084206 2.378835081533582
Cs 5.269447571264168 15.384287864120164 16.16782665767869
Cs 19.186487677592194 10.461529848865645 0.45388789414261943
Cs 8.287484715589974 5.534534527756501 14.964999501918465
Cs 5.148546788627773 7.615208744064664 19.18281126213646
Cs 7.042798181678878 13.971254729769964 9.497505417950023
Cs 10.619321692355662 16.841898023126692 5.538601787718201
Cs 23.009147826848213 8.145771572318203 19.600553649067024
Cs 0.7427970673498431 12.632060483161581 15.888700081463377
Cs 9.112143742377084 5.15619068282972 22.752778265644793
Cs 13.013103912883055 14.122448714856354 10.04272925003493
Cs 10.973937737115326 11.787052919031403 4.997151162360648
Cs 13.15090538361815 9.510425538358204 0.21985077719705323
Cs 14.54844515721292 13.19713639994679 19.451840076410804
Cs 13.888353157542486 9.210730591538718 14.675305502122411
Cs 19.75773966013625 8.830002516795874 14.962275797511172
Cs 5.113089612412869 9.796592530149686 5.9294892992366215
Cs 15.840854860505528 17.878047514673113 8.053906271144088
Cs 16.027309057357826 13.544129523534602 4.942030171546373
