36
Energy = -25.20960772 eV
Cs 6.6445251872560505 7.306949141086432 21.287999376086038
Cs 9.15417759840338 11.50983497128864 22.45981380055955
Cs 3.73200159302222 11.404343728713679 0.916923225824628
Cs 3.125881347324267 6.049283362395771 1.6952304308259938
Cs 8.122730260130037 3.8176642219521075 1.8157204299020004
Cs 11.763086769290899 7.449528398648562 0.792242940050396
Cs 3.9208878560587594 1.0283696755438745 3.2894843593774707
Cs 8.607712132029512 0.5259224359781982 5.864511444400474
Cs 12.926992858858986 2.9007270635483873 3.398215840622814
Cs 7.3153171777737045 14.754644974865489 2.7604097697465977
Cs 0.13314590895653566 3.8022943711765835 5.601590903831525
Cs 11.763086769290899 12.002700437782135 3.7852942209204294
Cs 7.516624681547694 9.330684268767065 3.7877601051690144
Cs 1.056700437558107 9.146718852513366 5.340170774747027
Cs 14.639080403270722 7.826507884579177 4.971746767707283
Cs 5.246002711988439 4.966310716200594 6.8212067119316915
Cs 10.448872859781934 5.776938717348323 6.815778323140439
Cs 3.3925328114942137 13.596615166459289 6.0062263739258075
Cs 8.63968256900036 13.719614183417878 7.709924338448413
Cs 5.498424677124891 9.719089033534296 8.74533679433146
Cs 12.808869803356957 1.3361552111991144 8.530689455557614
Cs 12.141139551854257 10.477574246597372 8.905935267096604
Cs 3.271321803159196 0.7959417978214983 8.880392698144293
Cs 4.606004821189987 13.98698124001055 11.37662768268924
Cs 14.629933247977279 6.037643424402757 10.049674843477561
Cs 8.636135453675063 6.828935846224762 11.721467135556411
Cs 0.9175186011987554 6.394543293984608 10.075775410229161
Cs 8.227024054642426 1.4332949599894111 10.967467646306382
Cs 0.5080083102586452 11.503055373274702 10.06568854192604
Cs 9.14089232726637 11.891555129422146 12.517855385539347
Cs 12.009612278716833 3.3846201367420337 13.339084294213329
Cs 12.409279554891599 8.632427200662539 14.111146273470135
Cs 4.1991715326311265 4.0474491173782114 12.702006500819195
Cs 4.304485739476171 9.285226670306933 13.695135339525848
Cs 7.991079588505515 5.227887999422863 16.444370909517747
Cs 8.3886458869754 10.204184774318126 17.373906153067754
