31
Energy = -20.72680847 eV
Cs 18.775714131263307 12.316518865514103 7.116357278555336
Cs 1.229617910976516 10.685093899288542 6.848550587794245
Cs 8.876765150517617 6.602543231189843 5.033365885012306
Cs 11.384928690781885 9.255053287479287 12.299674636344822
Cs 10.543999048318723 10.677797945924004 2.05687309100079
Cs 5.841499866489875 3.2408817250864668 10.550005327719415
Cs 8.357417184268066 15.727889591566594 3.2871805871226214
Cs 9.49127336712525 12.037131460601385 7.266506918471714
Cs 9.212784842686847 5.462077312146456 15.008429241086741
Cs 19.01621906161434 14.508774445458261 12.604179683339298
Cs 6.399791125370605 8.44306287035282 10.128416237189697
Cs 14.303961916672774 14.27023176342144 4.490749588995909
Cs 14.327424270467416 14.140416094032183 9.650053887157945
Cs 23.145445201724034 11.358959726556265 10.709957994973037
Cs 10.574557926482372 4.782509305313571 9.181592270220314
Cs 2.61868674134282 15.21254935430633 3.545509174811631
Cs 6.828205312462714 10.116239725461314 15.742644442253217
Cs 17.673032946858026 8.909833563590011 11.79297393775008
Cs 14.396525377324526 8.49755393086348 6.987415611277434
Cs 11.384928690781884 0.9587456935613071 13.245394093115037
Cs 3.996351759798447 5.61876870573781 15.480008915773542
Cs 9.728106094278576 14.545271308992394 17.45770424828583
Cs 5.485118837578033 15.311620049026684 7.682767781889379
Cs 3.7138208263872277 5.891815889494144 6.426618019252423
Cs 0.8121985407672602 9.58937289620164 15.788910930930884
Cs 3.4034115189411214 12.85713146476817 11.77706952468772
Cs 1.090911539970194 6.863791541009907 10.79257977655184
Cs 5.474915721480888 10.288021176313611 3.94740355342599
Cs 14.644974494968753 12.869016847079765 15.202729201656979
Cs 15.057756002607373 4.803363973573935 13.298820727989007
Cs 8.764151170163181 14.630504539951998 12.440893475064192
