36
Energy = -24.86785884 eV
Cs 7.383402435861178 16.29742161498279 8.393864349502335
Cs 2.0680824590117486 11.36071842835524 2.68163244964311
Cs 16.931914736980413 3.3996200552213973 9.801008365433864
Cs 8.988254744797187 8.357669809619196 20.72130814745697
Cs 5.598199183769364 12.10669837780145 21.826393748646897
Cs 3.6476015442684075 9.734093848431671 7.335481760813081
Cs 12.135781506397343 9.059714850716839 9.760605959043893
Cs 12.107675487095113 3.829482814828236 8.075217293952887
Cs 13.272795521497994 4.363212534212198 13.500933269073716
Cs 9.55706445958273 7.752174714016112 13.913752431397558
Cs 4.864225595292346 6.316347586817037 12.169920974651596
Cs 13.60575480529946 17.639997816285145 7.314359827689052
Cs 9.974493626584133 16.925993542427612 3.8773406238429753
Cs 17.51026087730526 8.029392018269776 11.743422557691865
Cs 14.375335932343623 14.976025732436419 15.734625591901153
Cs 5.33396234840489 15.268325202248413 3.0511958806008845
Cs 11.29683057034044 7.419134387894871 3.657601094351237
Cs 13.396766625687235 11.605859287029919 20.02157095751524
Cs 15.974160648085563 13.134396931447943 10.60472815121496
Cs 8.408097626035893 2.317194914029701 12.01983866632436
Cs 9.629014386140012 20.837215014670424 9.096925866855456
Cs 14.199598904011395 9.858884977733894 15.0702026012944
Cs 13.127444924976412 6.235764910791652 19.126695140794425
Cs 15.060767249109068 9.837883948141451 1.4503890786911215
Cs 8.370414051127204 4.146443761003581 17.114903985572298
Cs 15.805722087024613 7.8893540085320515 6.518134001404557
Cs 8.323940371850993 11.774410869779851 5.902406284905139
Cs 13.319665485011909 12.717028975357639 5.7937301230333365
Cs 14.599300272945847 18.569713338213163 12.15511541332649
Cs 6.656988053619343 11.36071842835524 11.278009918036728
Cs 5.484005010392805 8.88080385851032 16.690611676231867
Cs 10.182642798394165 12.361165911474899 1.0692897546679005
Cs 11.08367445103185 14.18230564325437 11.161890873383326
Cs 7.8528712833509005 6.630963304161549 7.971358407134964
Cs 9.537408970069672 12.540214270032346 16.68246360010452
Cs 6.290288281940447 8.234955038879578 2.6674784894542336
