39
Energy = -28.09721306 eV
Cs 8.145937274422115 11.243158226404134 15.551269674794812
Cs 7.2188856994044865 5.59597046976948 15.693719979810112
Cs 7.9099811169735945 7.54049314610921 11.193463199808923
Cs 12.385088115040057 8.291465808691811 14.228434573861694
Cs 11.504638438421537 3.451814717152986 12.436348436228629
Cs 12.459175840206825 13.658932315088112 13.929759539727185
Cs 16.481360347976974 6.385295446666731 10.659842345899643
Cs 6.810669673935636 0.750805071715769 12.178804146577207
Cs 17.1737958765657 10.967096361780863 12.441575855343642
Cs 8.302556008578787 17.00306161658218 14.215201538137274
Cs 3.179293501514357 9.501086290775273 13.800373433209035
Cs 3.2155783566295373 4.623465202830493 11.52004780130444
Cs 3.7202028071550988 14.47171857354251 14.589120882704789
Cs 15.960370163763294 15.283560303775305 9.773524431451204
Cs 6.860135547407123 12.639032815018584 10.659842345899644
Cs 4.11064221681831 0.4834229056161495 7.502625465475132
Cs 2.569041894876586 9.207947398482448 8.74007667421945
Cs 11.791466484910291 6.2511763092372075 8.065890560794855
Cs 9.913552837242307 0.6119392283872075 8.284612597309428
Cs 7.895485272726242 0.7150104225825404 3.5701927459212555
Cs 6.551199801688595 5.049439086917533 7.0816840302397495
Cs 12.183512154366321 3.582630398750087 3.8530467187781787
Cs 0.6049559901498179 4.669619552501678 6.959044393921006
Cs 0.32717046123529014 13.673756970675493 10.455261597755582
Cs 16.76504363011863 5.86819748310014 5.484721000195641
Cs 15.009014741505409 1.5806585444714198 8.432708426263709
Cs 17.070723062215475 10.732571944001396 7.224886361428185
Cs 12.226069799574097 10.84628938330566 9.766783390506767
Cs 4.791485567639808 17.408927979176674 10.058907950180899
Cs 3.7043014656667834 3.729470930873759 2.652829205830749
Cs 8.108675837173555 10.127295510010313 6.358758683108221
Cs 10.715104579828083 16.503935437582257 9.766561306491274
Cs 12.65060861943225 9.191530191501533 3.5847666294160647
Cs 3.571098638799581 8.872232027284914 3.450177842286278
Cs 8.299368233113285 6.431911048919648 1.9646784646360194
Cs 12.111315572964118 13.89362672244087 5.374794045774274
Cs 7.639408323394133 16.77602210431069 5.203534150819593
Cs 3.5979505130621456 13.527579194101703 5.994521301679555
Cs 7.895523470921884 12.202109892811595 1.843752783257588
