32
Energy = -22.65753336 eV
Cs 12.129353256763471 14.78000936472433 8.161669425531368
Cs 10.133233944087923 12.791999321997718 12.1359644893447
Cs 7.023993229372128 16.50773646134673 9.905592155180976
Cs 15.015321540284138 10.824697388321347 11.592800227971347
Cs 8.309849275557243 16.91192862688582 4.234259782713549
Cs 11.343568141641544 9.236920532538642 15.33781196649472
Cs 6.365248312932722 11.317003406531436 15.71013645015498
Cs 4.373884505739248 11.610190495280692 10.598194892974684
Cs 11.742200389101715 13.336143251304339 3.0465819940385974
Cs 14.644652194000209 10.182535323738026 6.078423274213959
Cs 8.189797027249746 11.608954197063916 6.84271804350967
Cs 3.8245074754835917 14.793858051776585 5.815891125708816
Cs 14.496070237884377 5.8269163914586475 11.876007135770633
Cs 11.093048415400288 8.697935307836534 9.345603231209434
Cs 6.594622787506086 6.3176048199247425 17.05013805745309
Cs 6.779077538295849 11.990807937901069 1.5687426164415719
Cs 10.575372269875006 4.086295021926295 15.174155641019246
Cs 7.561258878474998 7.799839800092386 12.007672900073697
Cs 10.427382314726549 8.640163661009687 2.811525262382216
Cs 2.4010399994917653 8.19710709613288 13.987075298080171
Cs 13.062064972347864 5.045940282707049 5.937258783052359
Cs 3.1847150373257125 9.766955576643884 5.16776503389808
Cs 10.427382314726549 3.045583725152534 10.28080658910183
Cs 7.54975071875227 5.655638428352028 6.202401571432905
Cs 5.306806349596703 3.176534211591168 12.662064164896124
Cs 10.183467195662812 3.850117684266949 0.8032795262866269
Cs 5.544304224042338 6.885558813315932 1.2037981201203691
Cs 3.0597672802085385 6.4873071377751526 9.369207434654918
Cs 10.551631759237086 0.511796102887677 5.532381959812455
Cs 2.379664710702544 4.3517815085640645 4.613223074561302
Cs 5.168068993875947 0.5537816365302836 8.04864655657485
Cs 6.0744133374645894 1.075147236106647 2.766810635571393
