33
Energy = -23.33888586 eV
Cs 15.139619989615568 10.273203905713343 14.731515149244451
Cs 14.912655874082102 11.145031435349706 9.917903050362767
Cs 10.66773890825492 11.783159814237052 12.865987023717851
Cs 10.980287778622078 14.72709647160362 8.925105558531591
Cs 16.626567309296526 6.630800497118796 10.82853831101676
Cs 14.865257493974113 5.476815096461144 16.22185669295117
Cs 12.68162216975516 12.348304744821746 4.224368003430109
Cs 10.428896095127428 8.861911867721012 17.279898694083784
Cs 16.207237562223103 8.482721625785906 5.560427878861394
Cs 10.658280467970812 9.830566299491682 7.583928375724149
Cs 6.34404773221275 13.517292606447016 10.66615374759564
Cs 11.256710578752605 7.216374999713526 12.106602136521168
Cs 5.831816522867592 10.983920696074998 15.421146771010147
Cs 13.370269385844416 2.340187927867164 12.1810819719172
Cs 7.56750159167479 13.91392127039828 5.543045556325882
Cs 10.188364549242198 3.6473948339095137 16.186718063688947
Cs 2.128844291036359 12.010553419149298 7.334613359247342
Cs 12.848787771068375 4.895723423020003 7.72158198315653
Cs 6.657305771751497 8.785062303996769 10.662732954601914
Cs 3.796288865934721 12.846380744656937 2.066135668207532
Cs 11.77315536462061 7.567826327261916 2.481345110831373
Cs 8.722665202346887 10.893626741981688 0.8222279989671762
Cs 5.843184842955405 6.149783892674129 14.904624674604865
Cs 5.729263720421014 9.319207592477047 5.034729253266777
Cs 8.252400435302574 4.740734806408211 5.84435551545239
Cs 8.676680567460656 3.0447778051504852 10.666153747595638
Cs 1.6900227649644148 10.2560390040069 11.901103847198197
Cs 21.03281657281448 7.445694577450782 7.833963723487565
Cs 21.04935234532138 9.718710400236088 2.8819649421213804
Cs 3.9504926480377724 4.6198728384261285 9.454981000885542
Cs 7.84171639024711 5.690853670148379 0.037593594393833474
Cs 3.9341591018608 8.803677087979482 20.10690505489515
Cs 3.015844994769769 5.300086017589568 3.801369470567259
