35
Energy = -24.84889261 eV
Cs 17.21270236780581 9.118785973548201 4.945217856784346
Cs 17.626921258807652 12.086594000379483 9.542250422706427
Cs 15.60140387345303 5.08580251436427 8.333693310438825
Cs 14.061253110649227 13.81760517199212 4.526909417784547
Cs 11.952986078832234 5.511033230003401 4.521656693540604
Cs 15.587212689987323 8.054807789338687 12.870132971784335
Cs 12.626377385925444 12.759126412001704 13.14017963849323
Cs 11.680989170035005 1.2921881780397269 8.723297695360307
Cs 11.120042677416206 9.935784433334197 1.4367910198501763
Cs 11.39171085920911 3.043021884464257 14.279521689725561
Cs 12.894481105110998 10.200605741706088 7.932443400319199
Cs 10.755789484485048 15.50665629197192 8.768732297224885
Cs 10.479574001770319 8.459567501443992 15.754053740232035
Cs 10.739513344115247 4.937418572526551 20.300181688311433
Cs 10.739513344115245 6.4288523438651195 10.497493958223536
Cs 9.244573937819547 0.8841511830266685 3.8715022188268593
Cs 7.925421297690351 10.990901121862299 11.142698505182663
Cs 7.113104173802627 4.404303555170239 7.536164504817831
Cs 7.866355241160369 9.450100217508787 5.870508347905494
Cs 6.817375670178989 0.08407702948943559 10.87593379158665
Cs 8.726788289722768 14.502675009004538 3.7322961259393943
Cs 6.822604112969361 15.605886018964158 13.007930504782777
Cs 6.159971610023682 5.226907550276662 13.695519386344573
Cs 6.689552349757065 5.4816756962056585 2.005738967269395
Cs 5.336236579676629 10.486531168604543 15.594579158994984
Cs 3.8477950260266676 8.42662508209128 9.282191389552935
Cs 4.0077010963314725 1.279145637282888 5.075608685494032
Cs 5.185414543848994 14.475223529984898 7.631697612686617
Cs 4.780056154919353 10.869598786742516 2.138393809370363
Cs 2.363558628720992 3.3038537392011484 9.884727957510709
Cs 1.1664490415546453 7.52124206069286 13.835139263114415
Cs 2.225067608735099 6.427045066947617 4.693507502271018
Cs 1.9584644319370315 12.76012392083762 11.811376406620756
Cs 0.726629070147034 11.672445850107344 6.167391111872763
Cs 20.323854919207555 7.346835687577922 9.022598949250813
