30
Energy = -20.53109876 eV
Cs 9.498794058830029 12.26786732082143 7.687877644018113
Cs 13.85318117874674 13.094824004746572 21.547744976006836
Cs 13.856340601370428 20.40579537375238 16.180373247149003
Cs 18.203140369062133 12.31631978278472 7.805662669001459
Cs 13.858637438862615 15.13544905847347 6.06073566219576
Cs 18.487572805010842 12.973548100316716 13.093598443876749
Cs 16.42708435440864 8.590040191720984 20.626213671447115
Cs 18.4666495790619 13.094920851969846 18.478590277960375
Cs 13.852065019608116 20.243228156874476 7.419247184015531
Cs 16.50050886615293 8.31817094407773 11.415697486057292
Cs 16.42668550142072 17.58297157415091 20.26463727289868
Cs 18.224380837136245 17.311332395480754 9.093577270316185
Cs 18.454689645631976 17.81309766228068 14.948765218079732
Cs 16.675259563163593 21.716566033734164 11.667140993716217
Cs 8.975282116543012 8.214352194468123 16.031395561988806
Cs 13.862368684612546 15.169947269335603 16.311108306220724
Cs 13.950191138667149 17.310978613196212 11.794697447263326
Cs 9.518028586318593 17.194311738030752 9.113318402893514
Cs 9.363561958869857 17.69979637921529 14.88163352114265
Cs 11.043846433697212 21.685853764457427 11.663228962908192
Cs 13.862100024203619 9.756534408318393 6.528529267123829
Cs 13.853324344307211 10.6223145972178 16.026679705871516
Cs 11.27678117073188 8.2078795117992 11.420409742698924
Cs 11.285082022923286 8.591008784140245 20.58745609055608
Cs 13.864141633627025 5.7682577865378875 16.28928496063731
Cs 11.172187647670283 17.578795990235243 20.264305064549525
Cs 9.258746221846543 13.080266494425022 18.41612873010322
Cs 18.735978035524052 8.325639876943027 16.037599892237967
Cs 9.08018329995217 12.839259540169078 13.07777209117116
Cs 13.743421862038037 12.720886600325446 10.896805235893972
