33
Energy = -22.5351189 eV
Cs 7.387458993355939 10.473051026649303 11.1454623290786
Cs 12.765918441540409 12.875465465043359 8.310536994523671
Cs 8.868068709322037 6.117496153665738 8.439190479308389
Cs 13.358093991740299 4.831161742148851 11.1454623290786
Cs 8.179134164772721 15.568648202416584 8.031767223733125
Cs 8.857628035606348 5.909280917958475 13.82960159673644
Cs 16.392052271127888 14.230078534539352 11.832925910510365
Cs 14.759022464351395 17.039768373697118 1.5981945909889816
Cs 3.962765921100536 6.322154250762901 11.408504605077558
Cs 8.979777036006015 10.570515159140248 5.703236380515817
Cs 5.514021890504485 11.841344361785431 19.48346663452805
Cs 16.1077565028 11.288357969472932 16.768573894581014
Cs 13.717047536934922 17.476920133022215 6.432360515456873
Cs 14.227803282219668 6.461427506385055 16.11914422148974
Cs 12.137644951905333 13.820713367821561 20.854603857722687
Cs 9.66227465931737 15.028388915503847 2.950819765502384
Cs 3.483357154992641 12.611536237677079 14.100715306247023
Cs 4.840936892642763 11.435006447039457 2.406445251359713
Cs 11.972483766628292 17.589231083109908 11.266282360483894
Cs 4.74328351150409 7.909554948445561 16.223796484148878
Cs 10.064705907709493 10.481446376127813 17.06258394047733
Cs 13.97312943519476 8.701780968747522 20.95049723069202
Cs 8.31647727343658 14.759697096240044 13.727966516777713
Cs 20.80303917320093 12.090006027107187 13.971235946383004
Cs 9.404365019762482 5.882424437917484 19.31545636192089
Cs 13.692023252898773 7.901814390163907 6.860748475733852
Cs 3.9008037433393437 9.392381569532612 7.228550834651853
Cs 12.379311089432592 10.205026344098757 12.589197941066596
Cs 13.05593983294668 15.352637491885531 15.922903795613045
Cs 9.385589069445839 9.904556084682124 0.2735809275128282
Cs 11.430749132119344 2.010649953560468 16.11406567223224
Cs 17.184335984256936 8.853744865331636 11.280532964314556
Cs 13.956408257179344 11.833587285971792 3.1800148945767397
