33
Energy = -23.55374887 eV
Cs 13.18490734755383 10.70695593969302 5.226386599124547
Cs 10.202437157385559 8.219095745592824 1.5800949911264626
Cs 8.334539403573006 12.27443284448331 4.297221549622075
Cs 14.879130774825128 6.132167638235646 3.9275933916388275
Cs 5.4279736191637875 9.738209324059913 20.33374558009555
Cs 6.8768116135413475 16.36266739927187 8.469840863075994
Cs 16.46553717792139 8.231704544328394 8.488224141932115
Cs 11.482244749784403 15.930552340590191 6.522303873633024
Cs 6.628403215370528 4.442496241262378 0.6358505547558341
Cs 10.320458453362233 3.2521556994079486 3.807012187580105
Cs 14.754912942764765 12.5406473523032 10.16950389321367
Cs 2.885669456048935 11.215970782244664 4.416243134740871
Cs 10.202437157385559 11.62355687295859 9.541770209308654
Cs 6.651156069012209 7.696574063869447 5.195518847417918
Cs 10.935024926382141 16.719264011249024 11.250903444823692
Cs 14.255167167356744 3.3991869855561454 9.006180990404008
Cs 11.860478729186816 12.30073288833635 14.23059124012374
Cs 7.050800338756995 13.863862979327797 13.078308913863946
Cs 5.207926261665524 11.341114583383158 9.238911476412945
Cs 10.693349643102168 7.033550075075732 7.839738867449571
Cs 13.309376257433913 8.08659470118915 12.14746578255457
Cs 1.9427305148824754 6.257519312012586 3.4901004424798696
Cs 5.8307707994664595 2.107319275064495 5.813983408649719
Cs 5.8628219473280225 6.143714677241152 10.298304302305759
Cs 8.621204897244404 9.118767871992564 13.727761272149815
Cs 1.313945998172414 8.629854453303588 8.6134039944086
Cs 10.05187810311099 0.7510007414064394 8.596982037699583
Cs 3.407632750090897 9.896619470353965 13.722424935201209
Cs 10.039781183241193 4.023044473066865 12.515166022157505
Cs 0.9947961447733797 3.3802647085475304 7.8304155636694075
Cs 5.570527637729924 4.942310034650909 15.54620768433323
Cs 1.0504869216347086 4.995481044473736 12.269086682029075
Cs 5.343258022726335 1.0027018771959155 10.968978668789157
