35
Energy = -24.93045363 eV
Cs 2.4731177531059414 11.81638161963542 3.3955882656976524
Cs 7.716666360791294 12.592090315534557 1.6625280217042315
Cs 6.005523824500302 7.737226524440397 2.689967438526177
Cs 8.089712888546622 3.378281364931775 0.7952339668690438
Cs 10.872415320686255 7.891017180345321 0.4413086779459802
Cs 4.836187186863692 16.320945618286004 5.475698762228728
Cs 1.6635895814317858 12.698833127987001 8.902116154710555
Cs 5.489080325651162 3.3729942679197435 5.989055065686166
Cs 2.305894755920471 7.734445257305195 6.809854236853598
Cs 10.082515470086237 15.748638942437378 6.145880195346916
Cs 12.974131289591398 3.249923817380337 2.330663044493574
Cs 6.526598306041547 11.130885040593771 6.811139080266483
Cs 11.796558173755056 10.998000716327368 4.54485051602793
Cs 10.345281655019518 6.159493294858242 6.263037815643717
Cs 9.813483029213259 0.32101012765519926 5.475492126213915
Cs 15.629076449911494 7.578179034645669 3.7633589660347404
Cs 1.121224869227917 3.3946043111129356 9.440363763321763
Cs 14.721259272756852 3.519239206192287 7.461214123563243
Cs 14.82862402494088 13.782428953161068 8.010620400480152
Cs 6.534652017944873 15.736416315390267 10.363475152212915
Cs 5.732732827047029 0.319538481703543 10.352439023792785
Cs 1.1148899528570237 8.005497298985487 12.045605652717402
Cs 6.6818244007280985 6.247781782493989 10.488396730565652
Cs 10.363702475834618 11.267726814380966 9.966321495205715
Cs 10.586307780914094 1.5501581524414354 10.488396730565652
Cs 11.551870321275242 16.936966977464873 10.998195131333551
Cs 15.19548057475359 8.792044488882457 8.80776333049583
Cs 3.4947923065883018 3.5493381626779144 14.027661430621361
Cs 5.227799944824507 10.997858947894935 12.47929789444859
Cs 12.986993722418175 5.7671858417158015 12.169619985088973
Cs 9.194523955322948 13.778994380102066 14.692128255776634
Cs 5.223671290197457 7.733611350092073 16.85759539936993
Cs 14.054979489297935 12.060574571901896 13.099540228915847
Cs 8.671105217626739 3.642434570235604 15.110279194378592
Cs 9.955965630450939 8.800095145884926 14.740952212128606
