35
Energy = -24.09302105 eV
Cs 11.829888141128025 5.823836967227834 7.622840814462052
Cs 4.996858216399893 9.551149037311431 13.493755291648458
Cs 16.811809338914887 5.615150295607602 15.308110075774081
Cs 12.774114794927987 12.8127186434387 13.913668461593259
Cs 20.53873542091933 13.495512146537012 0.1731039113937551
Cs 16.282141306002476 5.291819593775167 10.246660822491242
Cs 12.126528430033103 7.917761039944687 12.40334417939083
Cs 20.277199146382454 9.107315475231175 2.791188199817012
Cs 1.3195410608713658 13.352991727139663 11.42876615051414
Cs 11.716029139074958 13.889058113039384 19.295618934233424
Cs 16.926518812601927 13.633805727699558 17.641566178064608
Cs 6.820944557801749 12.941638777119776 4.262401349491409
Cs 15.428166571925772 11.307382467569864 0.7339337210947143
Cs 10.11925498598488 17.35391052676163 11.537183766299858
Cs 16.109017418811547 8.064183181182772 5.551595731120713
Cs 8.055545537266687 8.038392728419934 5.046639742195474
Cs 5.556350057735721 15.538113453681824 9.021444640967474
Cs 10.3893870930875 9.715274932243277 0.4421607807556942
Cs 8.504582602068426 5.138909691118202 15.266902591547185
Cs 12.73691950263577 2.645792863662739 13.47612869286988
Cs 6.835622840116777 14.307029930745227 14.322385678041309
Cs 12.116871433268795 11.421790474899728 5.419411147039015
Cs 5.715272606124618 11.849434158173063 19.732680719678964
Cs 0.8765350969956249 13.352020362944716 5.704127342510277
Cs 13.897328573327194 8.881835827688338 18.05408904965846
Cs 19.153921103167594 9.025510705280416 19.29538050850854
Cs 9.153143544870897 11.574601231539406 9.980436113037701
Cs 10.265961434773828 16.374177369077852 6.515194755932584
Cs 4.195067385294417 10.02852942827024 8.32765366409872
Cs 14.31391773857173 14.869172378733996 9.41712376016903
Cs 7.374668851259816 6.132583247038185 10.133598732967432
Cs 17.373347337221087 13.758526152594918 4.997579940127616
Cs 0.9910416977335045 12.51777580515371 16.801761986305767
Cs 13.63905492005474 17.75278412386021 15.285552013203036
Cs 9.290634265090524 10.028529428270238 16.500459303740662
