39
Energy = -27.38923827 eV
Cs 20.026079678935552 20.410550170002114 17.24248468890724
Cs 22.28319863897297 18.841651184671584 12.472599499628048
Cs 8.742207283232888 21.238263549757686 16.47139951956451
Cs 10.606794122592559 16.545831250095397 15.001481299457296
Cs 11.031392280853737 18.31512483506446 20.156280997855255
Cs 23.087301059297154 15.673025101456584 16.46896354871318
Cs 9.153730535210585 11.267230365746586 16.18746002322293
Cs 14.319922614960959 5.174961213666653 12.462799058419296
Cs 6.753106843834207 13.659019827794335 12.066673163898713
Cs 18.788347409338176 8.115210794611068 12.067061488040775
Cs 9.691124486015418 8.158572829832206 11.715769287362262
Cs 18.06128671566517 16.46150081375735 14.999757448814119
Cs 6.468369871195541 18.968529052152167 12.468962824397366
Cs 14.3196581544802 14.324147707590972 22.724421032569477
Cs 11.282040461053908 21.477936081816335 11.78764292466078
Cs 9.352408739002385 13.620473111670902 20.76781603403447
Cs 9.41515027949135 11.674984609182898 7.557202922489279
Cs 14.304951505126693 9.9590483106693 14.992235478684321
Cs 14.283050705363507 17.244547699020423 11.847537575931879
Cs 14.318994550259392 9.133226836409378 8.886798177075653
Cs 17.381428326775477 10.351434524726509 20.70517418344258
Cs 14.45531114289198 19.901718510972493 7.561313598784759
Cs 14.279617048608918 20.39123801752344 16.199489537314367
Cs 14.3211099956925 14.327972279385904 7.15348078308866
Cs 19.099250708136488 11.412361001644872 7.565046896843232
Cs 18.845415080734348 16.865795421563792 8.890040312217387
Cs 14.316167890442687 14.318876934392629 17.64722526911182
Cs 16.85038728423122 12.888613255449567 11.87247529142946
Cs 19.60735621052439 11.387609787992893 16.196435287789836
Cs 22.01032328280006 13.396850580453732 11.783435256283326
Cs 17.514426618817662 21.228124551632067 12.063812277594238
Cs 6.2309882684795 16.19468604095528 17.244795826523266
Cs 16.182874631016766 18.987752825375505 20.749689770740922
Cs 11.136918263521508 5.973379469078198 16.4486484823253
Cs 16.71416491068312 6.353810771269547 17.24627937966464
Cs 19.37471133595489 15.13028644151974 20.156325072006133
Cs 11.813700236809133 12.865496866638223 11.837765203988686
Cs 9.811010294721518 16.982728840638025 8.88101139006729
Cs 12.4582335342749 9.469939533819405 20.144720187056887
