35
Energy = -24.92770633 eV
Cs 16.7418229060864 6.42871120273361 9.78653286943195
Cs 13.872357953781117 3.630779046848462 12.252360500460938
Cs 11.838412251668611 8.471195140717638 0.12062572890648861
Cs 11.975843323578554 3.2457799824275173 8.076547172809803
Cs 12.502401668451835 12.21579444194257 3.7999972824133206
Cs 14.538837594060777 9.018941877410255 13.733309447037172
Cs 14.782048432836314 10.8816399384804 9.679921408026699
Cs 10.51504915648344 4.579875147877004 3.503413142196281
Cs 13.042953098208555 8.180071597846055 5.919816453705742
Cs 10.085744219901038 12.248724626022586 20.16606594820347
Cs 9.291387412094986 2.7363350916189937 11.31047307327664
Cs 10.76455520371889 5.517022893799337 15.998144082557744
Cs 7.382243308956849 7.522555462990429 19.90131925904775
Cs 10.767817716412608 7.790973523161244 10.37016156474347
Cs 5.644926669041838 3.487362119184449 2.548760207172582
Cs 10.214805732199869 11.426666282762413 8.084814398424829
Cs 7.342570421263041 1.1086542539877868 7.126358154000757
Cs 10.901657883988673 13.033206962989144 12.0982255865813
Cs 8.788799672049132 9.746796745590752 3.764805741993235
Cs 6.313094278799913 6.185010278528726 14.530220238183205
Cs 3.9244438641360455 3.6614427066932254 10.355382690917134
Cs 9.822074969812565 10.345449540883248 15.595769247021744
Cs 7.262140015543455 6.340273230702896 7.669193479068556
Cs 6.574990070326069 10.219576323939524 10.898577283420067
Cs 2.0384380859608724 3.6441363201157717 6.338062893937841
Cs 8.467327232357903 14.796346575179829 4.188099439594116
Cs 5.101988877187071 11.676080368695906 0.8974163855126392
Cs 6.887337472573606 15.301218458673633 10.033015218120521
Cs 3.501052161476797 8.081644946004658 3.498050988559982
Cs 6.861849216097575 13.986318637062647 14.26901574159138
Cs 0.9274796266542776 7.800918736811357 12.771290534339457
Cs 4.163918793205014 10.881639938480399 16.269645800877377
Cs 1.743455195938352 8.636214893778577 8.51514416299727
Cs 4.686623783561419 11.828794497234322 6.594965248326591
Cs 2.289896385208308 12.227688172981548 11.295068945093092
