35
Energy = -23.81840642 eV
Cs 17.27719197290581 9.332253772856301 2.982767228856826
Cs 10.59497504360482 10.578668572958636 7.942521869830599
Cs 21.063803366701798 10.90692725565117 7.863639389678474
Cs 9.083198234090561 3.420053241379838 4.886623662810394
Cs 18.581322342911513 6.532419567668015 7.421853686275087
Cs 8.889243633372999 14.32384761663978 16.16680359140263
Cs 13.784616961548192 16.420513808632943 17.537034466146462
Cs 13.06263490124881 14.327420829157964 12.402491890176256
Cs 5.132708670560674 6.483676375149344 12.822184988611516
Cs 9.385203076437055 9.832887595686296 12.962229616060442
Cs 0.25990801162914395 12.655299163948893 11.218705063094461
Cs 7.379955160976059 13.895169659044 5.105560114259655
Cs 12.017414078558247 16.18945721249412 7.0115334640156926
Cs 4.877400649395771 5.261263119102501 7.339441865291395
Cs 10.784554514111843 16.9950894592562 1.940323832115492
Cs 15.884890438075583 14.91389405237332 2.4734586125653473
Cs 7.706908568597118 8.700405959438482 17.487168458411723
Cs 12.204600824237035 11.328104829600024 2.9250872016219955
Cs 4.332288384355372 12.131527382945665 14.341302717533912
Cs 15.218664266034718 3.8485750375304963 11.054033761475699
Cs 0.5741455943268756 8.272035092349554 14.545791451080108
Cs 13.627462551969694 10.694681680430005 16.58352360493429
Cs 16.06442821266247 12.45116233349536 7.328237678323016
Cs 16.451918137739305 5.929504569049079 16.209638943780266
Cs 7.730972559421065 8.349598137544241 4.035418641615518
Cs 12.343773819432602 7.114121638228749 19.95112952290995
Cs 9.804926585229245 5.535469280402879 9.631252288080312
Cs 11.428041132470378 5.21517302707033 15.025897478481033
Cs 5.00180656276332 10.316380520992682 8.783079161772019
Cs 15.063962564216808 8.821472337491118 11.218705063094465
Cs 20.285463108452255 7.621745637507719 12.733259210071386
Cs 13.727197910255965 6.614022483281672 5.936397557927166
Cs 0.06944554615068699 7.143841261492444 9.225577691371559
Cs 7.618190554854326 14.869558630824745 10.663880949196507
Cs 12.996827208249362 14.014899329145551 22.25677234629065
