37
Energy = -26.37738333 eV
Cs 13.866012404563962 10.108298553101026 0.8737972009970609
Cs 10.246644886162148 13.639220401413855 0.3469082312734605
Cs 13.6486268303366 14.179748050370033 4.522485886377336
Cs 15.254419654751281 12.821716516782706 9.439567474888994
Cs 16.22491369744196 9.52162986632132 5.662404704407883
Cs 7.23228794281709 15.474512483993022 5.030345716826455
Cs 9.012115072093833 7.9549512628308285 0.8656494101544321
Cs 10.950362650504484 16.217681989054622 8.809586675960968
Cs 5.399390592301575 11.83126477483501 0.879626502062478
Cs 12.68688520832184 5.885341967607182 4.0162730412804235
Cs 9.869072647128768 10.923754930062536 5.081808806953372
Cs 15.806150314072621 4.94075628197876 8.473814503274317
Cs 15.944783279479289 8.49265518906894 12.288684970322777
Cs 5.895333342998384 17.872481712071785 9.965392439612053
Cs 11.737588362436961 11.60847750936602 13.121715226442294
Cs 3.333918674121346 7.2587496730020895 1.8316019185122947
Cs 9.829245648073359 16.339823101273822 13.927451994653488
Cs 11.745744248913125 8.473348564376353 9.001235437359437
Cs 11.201544984502608 2.3652592945536437 7.661204821133572
Cs 12.017480818865613 4.658669310336219 12.572559451015001
Cs 4.677891240379507 15.680677174720222 14.472843159393753
Cs 11.211533278098369 8.193864568674798 17.452307132037678
Cs 7.652696468485984 6.198807390478801 6.175254375367292
Cs 6.60123763955055 3.1774217422243876 1.7119371087630382
Cs 7.135734220916257 12.541914451224637 10.51591895401495
Cs 4.390411590225941 10.639657146793287 6.0302648829144925
Cs 7.850136536998031 12.28286791198448 17.035319090456003
Cs 7.923383515783293 8.059801153122967 12.981960615282997
Cs 6.860746268212182 21.512647750444856 6.302785205141336
Cs 9.786856951878493 21.121204517442965 11.65811861534915
Cs 8.467858740927129 3.6939323189096567 16.486049590372577
Cs 3.3202447428950546 10.639657146793287 14.176221387697984
Cs 2.9324627703580393 4.1108216001634155 6.020458764049115
Cs 5.650236261736089 7.886421990925788 18.48555783495092
Cs 2.8043396686563433 7.54869619595094 10.087162299686279
Cs 6.457876565081122 3.295669346274151 10.516194253449605
Cs 3.5304980555365053 5.068306454581134 14.54951880735577
