33
Energy = -23.26208582 eV
Cs 11.613832050659505 16.519509226099462 10.239213021807736
Cs 19.189100005565926 17.008736594229408 17.537669074986272
Cs 2.585087558629906 13.157427396258006 16.70228657283426
Cs 17.96176173994946 13.030052339407726 14.28201996737043
Cs 14.388775317459915 7.8426838689631975 19.449319395345043
Cs 12.742590046802407 11.388192773985285 11.379075762970958
Cs 17.62396408070734 19.132118789104986 13.072460407534603
Cs 13.61698560872202 11.946859485981653 6.787947515755536
Cs 8.869985790777976 14.181631518610859 13.544529112606904
Cs 9.302488949025067 14.087560317253025 18.857082470301204
Cs 15.011663522761308 17.419271398870627 6.172181664016667
Cs 0.8299818763717232 9.96429853545428 13.070722535483942
Cs 17.73521036440591 10.22849649276002 9.773769608727156
Cs 1.7406231914028325 12.698386673046185 10.005831197637676
Cs 15.433583001257 13.924762553631696 2.615758196232165
Cs 12.009616694284741 17.250644262149127 0.979982191087369
Cs 17.169807590447476 9.831900102430955 3.071903423430226
Cs 15.680378192682237 8.709055456879723 14.109037861202497
Cs 14.767783466490918 20.156657187682406 17.795087696659238
Cs 13.207983064447419 15.92147814301256 14.596490679383354
Cs 17.39700695692806 18.728925234172713 1.6664184629984626
Cs 11.435427399298616 10.76021019224027 1.4211890072539062
Cs 16.586590399340064 14.88101173842818 10.47652836545632
Cs 11.171813819563283 10.244901765259591 16.386723483859743
Cs 1.6967798371179108 16.40229062276493 12.672809106482855
Cs 20.339861602477495 13.799105014517595 0.9515112930875514
Cs 20.036174026340152 18.101640329488287 8.710146207738337
Cs 19.012998378037334 10.244901765259591 18.408142386817236
Cs 11.980425973181442 0.5525151580832843 13.118147673568252
Cs 14.900221264444939 13.162612133157335 18.413316049493858
Cs 10.084921081508044 19.00345498046767 17.209692379753967
Cs 15.26079817249714 0.5714309786178453 9.800900720786046
Cs 19.00466715000816 13.535474232844924 6.004841319061129
