30
Energy = -21.2508236 eV
Cs 14.174649657099838 10.161808122363048 2.413076712923359
Cs 10.69294768023341 14.015415736653535 3.9592242914992104
Cs 14.57287749400692 12.59528143215271 7.316354152759935
Cs 9.125974433337051 10.317599662123826 0.18830735846403346
Cs 15.620790630499489 7.048372838765157 6.4142643556247405
Cs 9.385249879098359 12.452164938178575 8.863203145358527
Cs 11.440274655615575 6.135459320383893 0.4291923578335918
Cs 10.157052413453924 9.027348164703922 5.481836834426982
Cs 6.03593592583111 11.97938573779931 4.479174144168083
Cs 11.959105374789267 13.125432443365774 12.986822025927188
Cs 3.8229702763001767 9.0218749899157 1.2472586570561985
Cs 12.774446749005405 9.378539347292122 10.151337948795755
Cs 0.4455077597296049 10.161808122363048 6.258734889728998
Cs 7.720081482670038 16.109013067473178 12.078335151229718
Cs 7.176631916669775 5.116158510769319 2.4190072516702825
Cs 10.66110316631025 3.969663684323775 6.563041714808871
Cs 1.6193736511694126 5.120285377936323 4.112231055947385
Cs 4.064939443462619 12.09168026728662 9.766804943829209
Cs 13.514577088534736 4.305703998542115 10.89640346610973
Cs 5.37700534264701 7.973748248155699 7.171953806555221
Cs 11.443361087604957 8.494857496500195 15.602617573078849
Cs 8.724998183552847 6.443096778504815 10.809678170096193
Cs 7.4663569867822295 10.669860814944597 13.440799813667564
Cs 5.7022216335908835 2.9298379205188056 7.450985762759497
Cs 9.510486938676902 0.8610552643698441 10.43739102869486
Cs 0.3301407746484782 4.8551884992483645 9.146271657850138
Cs 9.915067977721227 3.4708725540139174 15.331292777479407
Cs 3.309651651198678 7.83129884838163 11.986171771684715
Cs 6.179331011227393 6.914606863294283 17.01269735319064
Cs 4.887988678851729 2.818798819135347 12.494034735509068
