31
Energy = -21.8355004 eV
Cs 10.427615949335209 3.7919041659056365 13.721310120125768
Cs 7.009726463811887 7.025438708563864 16.578981351965112
Cs 11.863385459781698 1.8281883065991005 9.232782225306755
Cs 5.597462583381922 2.358429492903207 14.478661661253266
Cs 10.578874273469731 9.266091874215977 13.307999451753426
Cs 7.542852843350873 20.57533756971284 10.166518433151051
Cs 10.315362124785716 0.8983686831585439 4.408709848999124
Cs 13.876134176964722 6.628131588403974 10.006476114842936
Cs 7.438222695934588 6.223778548663958 10.295689641437853
Cs 15.096893995620208 3.757405654779328 5.5957046933527375
Cs 5.858116007838086 10.964780257391247 13.430697691404253
Cs 2.7511261989128246 6.907466316274345 13.016429851079947
Cs 2.7574008134034815 2.4577244473116213 10.034614485762491
Cs 10.427615949335209 6.635297647074464 5.8347849180558145
Cs 12.386309030872631 11.19945936612482 8.836230584933261
Cs 6.003633408107319 3.3699601539867885 5.8873070001413526
Cs 13.016100975728376 4.830947160521084 1.0231174096782196
Cs 9.885356011425772 14.281134337661486 11.860869188032707
Cs 14.618457818567588 8.957328359275 4.289448817226509
Cs 7.944360300401055 4.275866193328597 0.6359722214578467
Cs 2.624324520112463 7.423223998780408 7.8214474796373
Cs 6.903049017089256 11.242342451132465 8.182175855883301
Cs 4.948864415343727 16.041062718384293 11.360955333616696
Cs 10.676491208952429 11.992583579537223 4.142433785016417
Cs 10.414241208476929 9.235804505092695 0.07606449200956039
Cs 1.8271090874737455 11.859828363212596 10.259495164102596
Cs 6.010248054209001 8.586204135495356 3.486092990784337
Cs 9.501018553357609 16.226591799320353 7.127615289512043
Cs 1.839073128177388 11.501120492934858 4.963546816739272
Cs 6.2405616435191265 13.58703424284093 2.86506124666217
Cs 3.917973797409269 16.45050748842232 6.630873220929012
