37
Energy = -25.63578201 eV
Cs 13.196767318346401 13.140014275812907 21.5129020831475
Cs 14.86436477148616 12.14439962819154 3.7756012401567784
Cs 14.467857758666229 7.374515546742606 4.992214663414462
Cs 11.65356819164139 8.688321819531017 0.34779812321838877
Cs 12.390440549406945 3.397850340764661 1.9993859670879819
Cs 16.122418988598007 5.858401604805804 10.504539245851218
Cs 15.993680125840557 11.053019713789944 8.732180737404166
Cs 12.82918765852361 3.1012238281638873 7.468784287616344
Cs 16.414437284501915 9.962167405734217 13.499181299082375
Cs 12.373999374292278 2.0784842183187 12.070356989819262
Cs 11.430419072770702 15.615346958009305 2.84484152167591
Cs 7.903423349287378 4.350904951970086 22.593411486674672
Cs 11.467495393172713 13.79300484681998 7.776461775414834
Cs 10.22987419845975 10.804561500592788 4.497972769101214
Cs 12.202587021922922 6.891136128827416 13.701790137732354
Cs 9.280005180495115 5.725124273476446 4.989009744499464
Cs 11.430419072770706 8.592654348468669 9.146905562777984
Cs 11.866195832583042 12.261597302097494 12.12367740087293
Cs 11.885462474279606 11.189781933063127 17.21301443682915
Cs 10.019933817384482 6.818356100958239 18.63074761410588
Cs 8.688146551102664 4.757341749302146 10.113325031503571
Cs 8.191386374663043 3.784571483516188 14.71074189169492
Cs 8.289842982841792 9.38653896315482 13.704489637293207
Cs 8.732583899867688 14.335763331162005 15.287235149116281
Cs 7.797010124989903 15.54064812751519 10.663031098369004
Cs 6.82812154279822 14.341886331135639 5.192529635582161
Cs 6.163599661119262 9.101125592783724 1.6096321183330462
Cs 7.015529627237834 10.984263679128881 9.208516610442192
Cs 4.476806912525031 6.954752659257146 7.218886472556152
Cs 4.2125378057342715 6.642610845377595 12.262074064410132
Cs 4.741240030925265 6.266095969884995 18.030667070743988
Cs 6.6880074121967175 11.07086469946818 18.45462638940485
Cs 4.3360680215145635 12.422503017759468 13.125094127135672
Cs 2.6993242906409574 11.467577115560765 5.163882766526737
Cs 2.882626138674818 14.646849961948268 8.876735673647882
Cs 1.0636499198767337 10.243089335792442 10.247938430337532
Cs 1.1861926990086151 9.422888343069273 15.419575576051887
