34
Energy = -23.29632237 eV
Cs 0.1600053906449993 15.196196131960658 13.010983295233386
Cs 13.37233843337382 8.528524751036803 1.7361973738460452
Cs 7.74116575134952 5.514025314973701 3.4377289493485366
Cs 8.745420894973043 5.256163674817149 9.418395283885776
Cs 2.2399921066698174 11.932420056022599 17.023054868056292
Cs 10.45610767746801 7.445443665436681 15.121136715077286
Cs 16.524292145306372 6.707599417994524 15.990134007616518
Cs 9.540961912329443 14.420879657445322 11.464209308408329
Cs 15.727538675557252 15.180828913058376 9.164354427597388
Cs 18.753707308488284 7.063887434037408 10.204102112796454
Cs 3.8566230135279835 10.519944398796541 22.128815716999707
Cs 0.6677818431857852 8.770304796678099 12.228792105379135
Cs 21.06338858169364 9.955495973018278 15.459751852066526
Cs 14.172680966384966 5.890790110970172 6.138863703453436
Cs 8.525526420645523 12.346736028514158 0.17494160515654095
Cs 17.28564383814346 10.077894535968106 5.892137572156762
Cs 5.109449643039319 15.738335899922715 14.317828099508937
Cs 4.073717037017428 6.674123123926629 7.325294502538878
Cs 20.588944580164913 12.875426484933607 9.64908646850326
Cs 14.429700967518363 3.6948493874079755 10.991940401943891
Cs 15.075199028353461 12.765001805981154 15.210704382470103
Cs 6.14986250398833 9.656595946566915 12.986698096180293
Cs 13.774669835987737 9.18565407798292 9.94756711610341
Cs 6.663639337514319 8.103131617651549 18.473080763351852
Cs 13.011059995453335 9.937346726494086 20.040749443039708
Cs 8.789178501778748 10.519944398796541 6.413808571775714
Cs 13.228928596974484 14.0609751620705 4.663300914110027
Cs 7.1990617083842885 15.45583235319917 5.390632615773348
Cs 10.593953188116837 1.4856985924485038 6.425376424565934
Cs 8.86818551235595 13.664827494475617 17.162454986419412
Cs 3.804584803717616 17.806743624299614 8.780405098297226
Cs 4.357627662678168 9.815557102908972 3.0280503907267824
Cs 3.2763346819321106 12.848719000159736 7.992120777119355
Cs 12.869410448838849 3.280097739605774 1.491086374712198
