36
Energy = -25.07129501 eV
Cs 18.001283786200897 9.785623586618371 9.239813535111269
Cs 19.417875093316784 15.039514801708243 9.527039420630533
Cs 15.11886851140159 8.10956918853177 17.35640755163138
Cs 12.745175423048941 19.533113147470683 17.516400937005177
Cs 21.85858211028388 17.22678974698186 13.740841726402024
Cs 16.595930814577212 11.948438804415979 21.34022044750047
Cs 9.64846965409379 18.116335988490864 9.395373875071769
Cs 22.005704330439666 11.955943135994923 13.247264310694248
Cs 10.789456648736751 16.038319276763897 14.127648968837835
Cs 16.974717361498247 11.771596328242165 14.009206080848687
Cs 12.601003612782161 9.646206225151657 7.4845348014651965
Cs 7.69053660305196 17.958517896391033 18.264394540894283
Cs 5.90765607204651 10.535806465597917 13.757509748444958
Cs 16.309068065903418 17.381020155238293 20.826650787271454
Cs 16.323631374822224 13.233315343618282 5.550626373834558
Cs 11.43238683211456 11.1649675168179 13.77244270481675
Cs 16.335723048153607 16.65567507680888 13.756697289069965
Cs 13.876094823775183 13.86800210711841 17.600053875568523
Cs 8.108118083184921 12.73995479140853 17.87153584063876
Cs 20.1964970374727 9.764482090731299 18.006601172908663
Cs 9.009568630462017 7.5736434708984115 10.812337910033623
Cs 11.187468737629937 15.551193133045 21.466367526371325
Cs 18.183775788893055 20.285826235864477 16.580528287654676
Cs 19.67313310863035 14.901740158442575 17.750490636090635
Cs 11.255346283974117 14.769222237887307 5.688636104507895
Cs 13.501677023180264 20.633895918500357 12.329586024429876
Cs 5.776928410636642 15.809258695000265 13.510994971950469
Cs 15.048541990331143 18.258728970417327 7.6420154728538385
Cs 19.406568396185886 7.181064367943895 13.633411250737907
Cs 11.564591183731611 10.056263716443912 20.789915579897933
Cs 8.327417247911496 12.85658020599132 9.648201267033052
Cs 14.253606181028271 7.204328724428865 12.096151939582962
Cs 8.356268554923368 20.581586097478368 13.890431452257566
Cs 9.648363003996165 7.442311725755906 16.450295397649306
Cs 13.88352822549137 13.885807011608708 10.161535055474413
Cs 18.757427946088914 20.306347656193534 10.92882713482824
