34
Energy = -24.15393138 eV
Cs 4.437499710590698 0.7771749674387428 9.225886375035353
Cs 9.356134091529366 0.12137571289807941 7.431062159067532
Cs 7.861182124671164 2.617875009959042 12.024016763627698
Cs 5.982066253789249 3.0438044194386236 3.8487730842432963
Cs 3.307789190215468 5.573120791573329 11.21558067674768
Cs 1.4274221626037 4.903947740470754 6.937292171139326
Cs 1.9529084492267765 9.968228258550921 8.794872660054331
Cs 6.778904607353366 7.448413576983094 15.924351012181507
Cs 7.196831720561992 5.389883617653223 8.130930826562292
Cs 11.73884716285932 3.164445830138902 10.405829053928702
Cs 10.815379595409988 5.442437647621784 14.436130021325136
Cs 9.19126883076126 7.581575999881108 2.8780317139264677
Cs 3.4283505737743067 10.545125578120498 12.966369839506
Cs 8.408313713221467 8.446808044659718 11.309387305199778
Cs 11.219553268305912 3.574333517666909 4.76658006295021
Cs 3.857063107176607 8.297588109819444 3.551675722002456
Cs 7.1842503878027735 10.783819989683357 7.035509736839529
Cs 3.1736339897805745 12.702215469136853 5.037872769960804
Cs 11.104802851829982 8.004632376372221 7.872130569429697
Cs 7.177539241194811 11.495340985852474 1.6854871643332634
Cs 11.455327174988323 10.61912766020212 14.692691250123517
Cs 7.735903839818824 12.401713731529474 14.196470543827585
Cs 14.534015849712635 7.639094995300666 11.070829104286252
Cs 15.927136993389256 5.4432574125041056 7.198553850909779
Cs 4.902338088386368 13.482949879506618 10.400419271412268
Cs 13.638118601252927 8.006334275562878 3.020225143683068
Cs 10.815379595409988 11.760389254212049 10.406112664583272
Cs 8.141858244164363 15.17052806644759 6.183804785850288
Cs 11.603707734989621 14.851354080071708 13.363985195115745
Cs 15.233225721454094 11.884283665221382 11.067638286809395
Cs 15.426087271026118 11.156071020719638 7.104270518803318
Cs 8.521018836017118 17.062481509047984 10.678021887735545
Cs 10.952528754384463 11.516868517694345 4.378591776538772
Cs 12.272409990160497 15.666287099584261 8.395241667826372
