30
Energy = -20.71649214 eV
Cs 10.493048539986736 4.938483215131469 16.421312641670728
Cs 7.202407032041897 3.0531468311882533 12.670121144881096
Cs 11.706404670348679 4.003614520862059 11.001466610325469
Cs 10.32032700719985 20.75342494119201 3.8588071767510113
Cs 8.813849186388795 1.6172001981029782 8.3086097145509
Cs 13.060462234294128 3.1818872766265454 6.190507604916986
Cs 8.818340309600242 8.280589385968351 11.711740187217437
Cs 6.6061669275131925 8.266720528051017 17.60050163870935
Cs 13.118585460156302 8.394074947384162 13.868915270760988
Cs 11.782741117043814 3.887323157778131 0.7960423266447881
Cs 3.846586108599899 6.8962788052319 13.469694047779997
Cs 14.436203789271033 8.10509189113196 9.070493788538508
Cs 7.826451758413137 4.4671459570382765 3.5171655456428375
Cs 14.222357246757868 7.594269912758419 3.515760741362639
Cs 5.37490390651169 5.786381456391356 8.829934924357788
Cs 10.294507097331204 7.437560639364864 7.0477849672102995
Cs 10.06093074702183 9.209155598934238 1.3590643304148033
Cs 10.324066032372386 11.657527726790102 15.41484808225904
Cs 5.49155105978739 11.434236139450203 13.488065342233725
Cs 2.786445794336885 10.335971629441861 9.757438758850704
Cs 11.979648532022212 11.8603121509291 11.001466610325465
Cs 3.4467498556479064 13.736883067701575 5.638572482186425
Cs 7.7248116914690215 11.722827198200843 8.665505492020614
Cs 5.519370686340231 9.496155337912947 4.551697845821897
Cs 11.966164862762716 11.429318846022522 5.377793127229117
Cs 8.952900980377747 15.549256387276895 11.822850411490613
Cs 3.8922670151188883 15.136722593954644 10.678468012726269
Cs 6.05563294868973 18.16982523513867 6.8704328985604155
Cs 11.02264036711949 16.214071628755917 7.43924810493064
Cs 8.126959597968213 13.761919581109673 3.441426932898022
