31
Energy = -21.59666419 eV
Cs 12.483535399778058 14.498338268602922 9.238816347674925
Cs 16.28368755298502 10.997782915540311 7.092237850180174
Cs 13.033645166810214 12.210329658224445 13.980528158453673
Cs 7.547595555125528 14.507809783267323 7.48738951692603
Cs 10.76694316385718 11.528945674460012 4.94482271077635
Cs 16.410684938691972 8.963896565401859 11.694172375909886
Cs 8.530576561276158 13.530156781551245 12.397310381212039
Cs 5.735656937873288 10.724341076700892 4.263302092031143
Cs 9.415128321821308 8.52222885261247 0.8982126461127681
Cs 13.983896600453287 8.308579973291026 2.780247011367675
Cs 1.956081891326157 13.296021773736484 6.685340844723268
Cs 10.729378242162555 9.881159605450991 10.301672514865732
Cs 14.132306642444025 6.359715678657321 7.6804382391935535
Cs 3.814423481692649 15.383776014012403 10.826554318410947
Cs 8.980173271739334 10.786646918980395 16.915561972447094
Cs 9.251896082168104 6.961835019701174 6.0223981745546284
Cs 8.168253933750023 3.420902925785344 0.8754456286478064
Cs 12.194355554252594 3.4346317270726634 3.5637561039913277
Cs 5.327025180330955 10.451806882523796 9.628424504079144
Cs 11.822861944855639 7.347613386638414 14.642338758719458
Cs 20.661985309513078 12.039319322560784 10.726238010005256
Cs 3.8578168330932376 11.41905910179502 14.386732634781662
Cs 14.913665145269023 3.8478740980335835 11.809282647786453
Cs 10.062743253550858 4.398773047446001 10.726238010005256
Cs 4.540653280592078 5.591417639433417 3.836600285421974
Cs 12.753029300438579 0.8716174477859033 8.281950211194694
Cs 0.8730107153027262 8.549386872078491 6.939262844532978
Cs 8.153111843905032 1.8153116439772503 6.241808538149198
Cs 6.968753016544448 7.632101818263907 13.411609230404931
Cs 4.790381563932921 4.948769458823683 9.10391834286244
Cs 1.2864934817968912 7.619655503828667 11.932014102992689
