31
Energy = -21.66488344 eV
Cs 11.958200116517789 9.512971417789931 17.75988987078464
Cs 7.183227227817533 11.00533647807 18.14332525035582
Cs 7.877905038366951 6.074094470344648 17.442089948604764
Cs 12.09719077496652 5.815538123451869 13.79154501356292
Cs 10.814442208951023 13.929116737414487 15.068699970563781
Cs 14.421298090574375 10.485029137243462 12.827873633086087
Cs 4.030344848294616 8.81187836721107 14.431814961447433
Cs 8.815047968102228 9.796555474932116 12.968366985783996
Cs 5.328609014516459 14.077996229979078 14.383237197352969
Cs 10.588430355634747 4.734915366064684 8.946184441274243
Cs 7.058306477310823 4.30892018323853 12.638540081414915
Cs 13.481963923829225 14.720328454456565 10.754628889035706
Cs 15.240962825539038 6.648306173491413 9.661499732927739
Cs 10.751745324319641 10.049601337694666 8.561276329873383
Cs 15.257196929068373 11.145899722285028 7.049574753752304
Cs 13.427759241928563 6.574195786527428 4.678524715750608
Cs 8.393476378030526 14.956413551482274 10.535021385724521
Cs 10.887168373301508 2.0053210497214695 4.3343431619143065
Cs 6.385941648740509 2.1439052150344895 7.324883729458545
Cs 5.291363523354512 7.335649097129734 8.995174391310996
Cs 11.213747596615807 14.715755234360783 5.882684492355829
Cs 3.617204716632274 11.850623241198896 10.230900063737272
Cs 11.72153363683283 11.005336478070001 2.5401043495270748
Cs 7.946971407659115 7.146284144153249 4.659329002243732
Cs 6.781072229850306 12.38948817125509 6.246585065743851
Cs 6.5199465506360825 2.5481530927473592 1.9790442677028628
Cs 10.22362630468923 6.493055878346942 0.22237641889014206
Cs 2.549541080254352 4.743112556827728 4.716932695986511
Cs 2.645326185002026 9.850984896073516 4.801003324455351
Cs 6.938509827112425 11.242544979527628 1.3620489199834815
Cs 4.603215834699053 7.0704341427575494 0.07517061088802154
