38
Energy = -26.98479268 eV
Cs 10.597161331452488 17.752624347925366 9.336264476520457
Cs 5.0204638746870565 19.380400100226424 9.90177701817745
Cs 7.105446951931953 15.597900524426718 12.976854305522847
Cs 11.669853450571434 13.800691408797393 11.63549829751231
Cs 7.140613006527812 18.265215012337624 5.165075669292772
Cs 2.0124534556243714 14.65177790836152 11.251430474687243
Cs 12.742816721410923 10.122327607220308 14.75483279877701
Cs 10.696446407055543 13.835125229124055 5.022045447457135
Cs 6.823044179737402 14.018925074363247 8.811888355780692
Cs 2.574179561333854 15.731357845454948 6.196609004687532
Cs 8.38647732951705 10.577078899547647 12.335756674483585
Cs 16.954151039005335 11.498707928239618 11.788208993825593
Cs 14.648244515601839 13.551964330748776 7.8491843437172655
Cs 12.747422282998986 9.301790345987643 9.99746677923089
Cs 8.793514492951763 10.257122301260251 7.4531040933947335
Cs 13.431507344441082 9.866907896126099 4.761658930327634
Cs 16.54828135098701 6.6310405594136625 11.900190920370745
Cs 3.700031725222603 11.047251746282283 13.889368841066466
Cs 18.47090964480438 9.742436771324645 7.9036494822637255
Cs 0.0953654310851749 8.252389147716729 11.917196950773361
Cs 5.65977696869979 11.933367988787076 3.796797377299924
Cs 2.699924686696643 10.82153027709777 8.377555485612179
Cs 10.654038634109328 5.88327805228101 13.096327696269553
Cs 5.132570543753681 6.482883039374865 14.597061501369302
Cs 5.787047126055144 6.58810234912942 10.037447186561169
Cs 15.584052969566576 5.286937384228495 7.291852866044916
Cs 9.338015765352166 8.7924316683628 2.4298231032652677
Cs 10.411255003728028 5.4260717982812805 7.302727827330598
Cs 0.5146699226802718 5.945640097366438 7.684327456166036
Cs 5.089762339923424 6.932906639513911 4.70754804434759
Cs 12.628897017164649 2.418033686058038 10.82429433908394
Cs 12.594176354997236 5.123621792494561 2.5601874015271773
Cs 2.2843282460007606 2.957476336415093 11.251430474687243
Cs 7.428379408687941 1.8713171374422233 11.941476696863388
Cs 4.285364842747658 1.9227449654831146 6.870933481387966
Cs 12.856224723346617 0.9355650948119381 5.655686804168444
Cs 8.39130020218085 2.8023842250075948 3.1651048538959463
Cs 8.943182985334653 0.19781464997730472 7.951275106237349
