35
Energy = -24.26782338 eV
Cs 21.415424765354487 12.772559965184278 11.1566663483141
Cs 20.057285239058846 18.2100635051759 12.063757682101748
Cs 22.757377759955144 15.834314464958231 15.965086280652919
Cs 9.573187506649173 8.498650651053563 13.137289593675565
Cs 7.484015663729529 18.687267073212503 13.273168349315547
Cs 14.232292527286603 15.048064216521373 6.070922670949894
Cs 14.337283233025337 17.822597198557364 21.42079771327744
Cs 14.298460744619584 12.227741760906493 22.31756207279452
Cs 10.11148246986784 18.871999512703518 17.94238096266298
Cs 17.29451281258805 10.648742156738237 7.9789901267371235
Cs 13.970101459582162 7.138498476190185 10.046740453582883
Cs 6.672737134574551 10.781592591923461 16.75906899130107
Cs 14.217280893996287 10.832676553512586 13.8053707025426
Cs 15.785506118822246 14.549591029419036 10.786312761323302
Cs 6.6712738713768855 13.399154718389054 11.74141100945696
Cs 17.028683038198178 9.450719117741112 18.21382488663607
Cs 11.39631237517135 11.737135213070788 9.27461808223146
Cs 14.240940204813645 21.945384811913367 17.96517670133352
Cs 18.497395867565874 18.7643929901891 17.654150292140734
Cs 19.13752566463031 14.056681528032813 20.13926143103978
Cs 14.354023683101152 17.952998459652417 14.23924347964413
Cs 19.340503921963755 15.828263468504039 7.2295324138158605
Cs 5.731253766412887 15.808140609539404 17.147591213607136
Cs 15.60756795038456 19.630965880548064 9.180598322179252
Cs 14.23462366138383 14.460418287713667 17.885782940098238
Cs 11.566516129850799 9.453397382381935 18.356729540282757
Cs 14.21015511015757 5.949850517414246 15.170209391070202
Cs 18.234811087180752 13.907600918369592 15.005486454725657
Cs 10.378445431552919 14.225298371809737 14.752867051243015
Cs 17.173034050255648 22.340934780561735 13.677296118677772
Cs 9.580198964287533 14.087118197508278 20.459826999187268
Cs 18.637767453345013 8.260796512295224 12.766001899151936
Cs 11.68757555512529 21.925496583213384 13.026027802054575
Cs 21.93346881971279 10.615553523910274 16.290768261978464
Cs 10.902210064418995 17.02657397118464 9.850716000214135
