39
Energy = -27.94572548 eV
Cs 5.320752721789152 1.232601690194792 13.628627339216179
Cs 1.5163352056103325 1.527036351113715 10.025952824611856
Cs 7.502184291144549 5.562800377150719 16.006766562344794
Cs 7.0435203168241225 0.6762598168558359 8.823273627269439
Cs 12.891145245939715 4.887439408929329 17.327663904234694
Cs 10.566029429458013 1.64783534728928 13.104898285359434
Cs 3.2663620351185823 6.1307011209174975 12.426621040533481
Cs 20.162639951041445 6.181211761341055 9.61590462191758
Cs 5.970327093599174 10.572780886851877 13.216347683625559
Cs 8.483866326542586 6.031974888090801 10.60377223984424
Cs 14.217078897829644 5.589010156348398 11.923041548544425
Cs 16.34274122500346 8.82917026614787 16.071648424244767
Cs 3.9541753524000742 5.55257390809958 7.354497754361022
Cs 10.949808172587762 9.517042585563345 15.236455021347211
Cs 8.223759492245136 3.5686430520362933 4.451608500045949
Cs 0.953332216294408 10.797185939674652 10.436508592495993
Cs 9.355442385866787 14.870068832791889 14.163536867333287
Cs 12.169753806680813 2.340070178762504 7.879755391510038
Cs 0.41743882743462335 8.966890804518963 5.3152696259813474
Cs 10.555878783339882 8.042682436529079 5.697999872755332
Cs 5.18578042458393 7.595748303018426 2.476663849410694
Cs 5.714002139247908 10.566140205780743 7.350733878161962
Cs 13.504635903999091 4.227309081458825 2.737066351488697
Cs 15.917672844436359 7.073459108954222 6.525998934370475
Cs 5.3039707404356555 15.137668302598616 10.572603116307135
Cs 1.3734666882642652 14.461432052317068 6.692230388880585
Cs 10.566029429458014 11.744721494285072 10.172464874981811
Cs 16.612211441781465 10.305312609924915 10.819172328683964
Cs 14.422068728432613 13.549843102104834 14.556593246780524
Cs 9.744697553647544 6.525266599124695 21.356735079173575
Cs 13.237650555245626 18.729356981224274 13.100599920923445
Cs 3.6628895927016596 12.423063680322535 2.4642998444190036
Cs 8.959684685587312 11.470331330145264 1.7919482732490748
Cs 14.440176543666096 9.509429879617402 1.7812475756135289
Cs 10.173612557664656 17.567425836401867 8.950629957482283
Cs 6.948676645477971 15.396862992286701 5.438083242264893
Cs 17.840610272627536 12.045550780177223 5.97426103106162
Cs 15.139961824726637 15.283582171619374 9.49396659099268
Cs 12.306859366828121 13.230586085563756 5.4502576441582065
