32
Energy = -23.3117883 eV
Cs 1.0426416934339808 13.713148215456735 5.413551172673864
Cs 12.4433027414573 13.344826965584081 1.2125293397098342
Cs 18.45072951256915 16.240014760963682 15.123209401508756
Cs 16.628270383119634 17.035098222073287 3.622303984901417
Cs 17.810123326149146 11.561907457496352 12.068756119450105
Cs 18.813605690993665 14.19979970700319 20.160339674754052
Cs 15.381624800489528 8.864860128165788 19.84141355423108
Cs 0.300404890520203 9.624908297266288 1.7257065081037837
Cs 6.060196118502014 14.360549917486123 8.213409143780389
Cs 8.998357319248566 15.261767809011216 17.396959947711213
Cs 11.176754096421183 18.0468042959724 9.370784647660171
Cs 13.976902212805786 17.68216753430184 18.664760113832074
Cs 16.14114312910109 15.129308384664089 8.60920786890983
Cs 1.354669945191578 15.608772616488109 10.769502312536682
Cs 4.1615337982237754 12.690886595970984 14.87509850581713
Cs 13.436466492543529 10.147104472330541 9.478553734035962
Cs 11.04340222363628 13.711392874088146 6.441898217118752
Cs 19.95348744485138 10.146224457995393 16.763502652127546
Cs 11.41582943804203 19.719866323043917 14.594475262993639
Cs 3.112635867076294 17.48570730657384 17.100191454097505
Cs 19.310851193485277 5.0002335842434125 19.564007691252442
Cs 12.698963286171107 14.613614685588052 12.815058276406505
Cs 15.869410231791202 19.223502407824554 11.842417819308897
Cs 18.5854575782521 19.984339038138344 19.193940849266006
Cs 10.145943470454188 10.146224457995393 17.380136155855162
Cs 7.179681376655677 16.877300300269 12.817459038406787
Cs 8.75372410584347 11.43685670133893 12.305827613814763
Cs 16.261342371439888 11.322277088413648 4.5313650834503525
Cs 1.9138705161974303 17.724023933363114 2.100272605244023
Cs 14.100509858269383 8.31875502544932 14.248507765559728
Cs 4.2688838565120495 13.193356004102004 0.18555901075496523
Cs 14.867125709807045 12.799191665077803 16.782541297323327
