37
Energy = -26.22427296 eV
Cs 6.934750003662698 7.855040479421233 18.765367906626533
Cs 10.041644112901135 13.081914770208414 16.37325681081274
Cs 5.056978180619698 11.568775116409697 15.405587736016685
Cs 11.821315968715547 8.710998013060607 18.222904085043496
Cs 4.06817946767447 6.7453644670629735 14.36415336704075
Cs 9.105915453401543 4.245265534941441 15.483267927110802
Cs 2.5267426738339442 10.872413556017326 11.289339459536476
Cs 14.291587496182355 11.123549574792152 14.149524235574624
Cs 9.331721422902442 9.07006647373666 13.836594041067201
Cs 11.709036092379833 14.028615993758487 11.289339459536476
Cs 1.6621700181540437 5.36904367015198 10.155935635355762
Cs 5.586852837424125 2.19259564266171 11.714534290134255
Cs 7.615839800449698 11.59060760829405 10.018008711475325
Cs 6.681977862798465 6.939792621895968 10.18032862982416
Cs 6.532906340969472 15.621884147092175 12.448830034216055
Cs 13.867206014791302 6.118245506515543 13.184870254375957
Cs 4.111998174229777 14.293242852682711 7.475872928814591
Cs 3.434665094358952 8.876878273137478 6.520938492035203
Cs 10.584292831455667 3.3374796554517343 10.933003234655217
Cs 5.187913237005392 3.2926754908077496 6.511492225040417
Cs 11.45667615905495 8.972929609615079 9.633349806982002
Cs 8.973052557612487 16.60017088918582 8.146038772244975
Cs 9.646229270968803 6.041729829684036 5.8313723702062985
Cs 3.7032946337114048 12.133450058713589 2.732371083655806
Cs 8.437918593614112 10.852722219173872 4.758990752637117
Cs 16.055438448261917 10.598897396462856 9.378533768039372
Cs 10.432153791357853 0.8345079256713152 6.504006919716844
Cs 14.415670441875058 4.782318120931433 8.038278049918226
Cs 5.434682632422243 7.263582618814025 1.9965426870699494
Cs 12.440938401644612 13.291773196442207 6.289094196019395
Cs 8.03227321513984 15.358688652709448 3.1578768153623886
Cs 8.164191656537893 2.6135596422082394 1.9436921119418256
Cs 13.992531838383147 8.835108245318969 4.52975155443887
Cs 7.48869178523152 11.71613980108702 21.31833986366923
Cs 13.072441337119663 3.57355755424883 3.0198140539539877
Cs 10.447299184401986 7.464211914463661 0.5989992184830925
Cs 11.85553788181749 12.010057769272887 0.9807920013069321
