33
Energy = -23.38904054 eV
Cs 0.6146453946116123 7.236565359722654 8.054308686125104
Cs 3.2846082821128832 2.880163984725285 6.192111327783562
Cs 2.598571610972763 7.13247376587918 2.9979283300292523
Cs 2.520250995178388 3.312151172461197 10.922965375464736
Cs 20.61027653441596 11.185864998433892 4.690726689681816
Cs 3.151384283231218 8.576413755581944 12.610549800341866
Cs 4.033522744936312 11.810210212513937 1.16866054760749
Cs 1.6623204763129633 11.8028682129827 9.464331401756718
Cs 7.001157372416223 4.484301070482828 13.707800253067726
Cs 7.1072196973419555 8.04474618925781 20.458782681209435
Cs 6.454319920409024 6.735381773452517 9.357092320797097
Cs 7.664702755870838 4.879579073269019 4.187933842975867
Cs 7.663168182333242 1.6778202564092868 9.099362861858804
Cs 6.049231018535687 10.034475980550575 5.520454272481015
Cs 7.648544468669477 10.032928788819895 15.166046832520605
Cs 4.997905713286346 14.725154133746402 5.9220758902514925
Cs 11.572157170472572 2.4900743228932636 11.974043861050985
Cs 10.68743973978835 5.507084552123922 17.262573808088746
Cs 6.979279813601264 11.839364528972698 10.570110108585013
Cs 11.452666357510184 5.001646500045602 7.628809298048206
Cs 9.226559319504519 12.619493363245804 2.3253619445792255
Cs 10.810796017115424 10.386767941072629 7.502925028829009
Cs 10.431975267354565 14.902161672122793 7.284011764302329
Cs 10.68743973978835 7.856487276357182 11.886143442209619
Cs 11.455169822194197 8.27688323507649 2.322632463238587
Cs 13.959860847520895 12.741908511133639 3.5323206222399994
Cs 11.458475429786038 12.884476944260676 12.078231550641057
Cs 12.480242507257472 10.31214250327553 16.622056193001733
Cs 14.897947576810388 5.798245967335693 14.642802078031018
Cs 16.358534892929143 4.935332652571733 10.128521395683645
Cs 15.308966217435824 13.402328294811715 8.567622267884078
Cs 15.938845347561507 8.83371026123189 6.441973046070277
Cs 15.950391127956953 10.02503554413828 11.55575336875804
