37
Energy = -25.55791646 eV
Cs 9.349472204141026 15.340271254507826 16.682973443519142
Cs 7.71024638219911 12.423141539569032 7.319694656290236
Cs 6.657834515672556 17.655760581894448 8.37539320632374
Cs 11.336992734325062 13.063356791975812 11.343608866337561
Cs 8.232186029625547 16.427468009081664 3.414293333090017
Cs 3.279938152662082 15.081827458457603 4.080360944994102
Cs 4.380797638608591 5.7132609331478985 8.053718993770763
Cs 11.712800861902798 16.565555315438825 7.446285667383572
Cs 11.743528411876257 3.5959915720920956 12.013609808037799
Cs 14.963607726553828 12.145419268949215 7.834226157916655
Cs 13.618908239709647 7.840403404095385 4.89187123553909
Cs 6.885712076739816 11.49106549883671 1.801762382426566
Cs 13.609200899603447 8.918271874318958 13.877256832725722
Cs 16.287773247666546 7.51945036042434 9.570831043291488
Cs 13.773877689015357 3.277547847833777 7.185278271582117
Cs 3.1402752558733344 10.150280046194561 5.57432181128142
Cs 16.84494830980471 2.7318091114916645 11.327261673484271
Cs 6.272482149985269 14.82298263680389 12.536387041033706
Cs 11.871316444898172 11.199918711585608 18.453483887620674
Cs 15.225037561188 7.03386378251344 19.37277997692988
Cs 17.254992725634352 11.19991871158561 17.492169878224175
Cs 10.560633578009293 8.145988732412919 9.442331312143423
Cs 14.963809308976396 3.037018673049407 16.161092020388033
Cs 8.805190852097947 3.1003269263285196 7.679607933304351
Cs 11.592091502714524 12.387834199511465 3.8191219833942136
Cs 17.91331816574321 11.998355406169368 12.23889917372799
Cs 10.547931263471007 5.98529596383459 16.833115226742397
Cs 2.364910080375353 14.268454486490791 9.192907261112872
Cs 4.90406980159825 9.990344786740522 10.926327842446629
Cs 14.169075969353006 14.840499212363266 15.358111063916411
Cs 7.064091100411928 5.558608162993201 12.540967221079347
Cs 8.140724238429682 7.45759235399456 4.629434113008445
Cs 10.678449452717624 18.30337671119007 12.39908778836687
Cs 18.429305871220446 6.91412495597431 14.692598684692035
Cs 8.283294621848134 10.402664463185753 14.69139363718735
Cs 15.760056425427518 16.692817738069525 10.92935406282035
Cs 20.557767740701543 13.06609146461672 6.30681119394669
