38
Energy = -26.58377888 eV
Cs 4.502333415393603 13.21709504451909 15.305079139661386
Cs 9.001705701568763 14.737142020244626 12.847534730056777
Cs 12.586166311713587 14.619105521460085 10.346005326300746
Cs 3.5422460416366204 14.203568462109988 11.085150479248359
Cs 8.994750619869173 11.321380059101232 16.550717694616985
Cs 16.392759363792635 12.552560726471862 7.078335472288214
Cs 4.527568294811574 10.217787242435017 19.269237629296907
Cs 12.589303566233834 11.485861833724648 13.776093580875532
Cs 8.182189229448218 13.919506901600501 8.340275891085783
Cs 17.496034403786247 11.875733711254956 11.330352594826842
Cs 11.622309521563768 13.376927028149236 5.037292965039006
Cs 7.375407697605024 10.74289087232603 11.08515047924836
Cs 11.197252800445321 7.3385709411879185 13.911007043297714
Cs 3.1393792703212178 14.361296788992258 5.72056742153007
Cs 12.033344052119581 10.23322125900502 9.526766265894665
Cs 5.842503975968665 7.082638730984342 14.89383808314856
Cs 15.446099792541279 7.770227745544654 12.134506670478144
Cs 1.7335438696892074 10.356407108794695 12.84134277687592
Cs 7.623923085725612 14.234023952375841 3.015097241565412
Cs 3.3958275512843255 10.608888711124763 7.910994497753967
Cs 9.129358577364119 6.26694003630482 9.54297580581451
Cs 18.30116597154508 8.834474105352111 8.572163821312023
Cs 8.723740616973606 10.197726931795847 5.441984723141797
Cs 4.345087323613813 10.751090083935036 2.462527632273515
Cs 9.666273394761042 11.326239085551546 0.13163956968730067
Cs 3.541752844525723 6.388716157882151 10.754816483077324
Cs 14.081842020413763 5.457842877602221 8.049199467704883
Cs 13.788904082427939 9.411543449044323 4.463680014979003
Cs 8.5559075336951 2.719561447052179 12.704733203179112
Cs 12.845128987078223 3.1337527910607443 11.746875452046709
Cs 3.4271938594995226 2.45300847556355 13.25038463746573
Cs 5.15381894827315 6.146102865045352 5.425913141743122
Cs 11.030604861729342 1.6288507687906295 8.16354261250736
Cs 7.198066977663856 6.536572623328288 0.19926328924958053
Cs 10.915440361601796 5.70550409863197 4.317531233229555
Cs 5.583202611989713 1.89851883114328 8.983442573263083
Cs 11.522969688234388 7.280404450552724 21.2352767973524
Cs 7.497717478362085 1.8850308320095763 3.939620937186934
