39
Energy = -27.31272523 eV
Cs 15.229597964049317 7.417518922634068 3.0127941024405915
Cs 9.736914453692007 4.410516226834768 3.14096657886658
Cs 9.86243732184093 6.260513069445983 22.650434745521927
Cs 16.911937687273145 13.508387164227209 4.15625894261993
Cs 5.227224095538105 5.183643875630837 0.5368553578532597
Cs 14.821843935544168 4.158564849925434 7.5479599917014095
Cs 5.0709594977242425 1.584271997812485 4.57464052968457
Cs 16.1524473963576 9.13678032641032 8.452018903487906
Cs 10.074463683628343 0.27925138365546703 6.51029019238199
Cs 16.136028029400315 5.966263666985736 14.193152336032364
Cs 12.905923572900637 12.233775559470766 0.012287017542345405
Cs 12.986072800344617 1.547914315089907 13.144888133516597
Cs 2.100507997673663 9.117156363991038 0.24945737868326748
Cs 10.016657271587432 8.208196569314044 6.6490333568884745
Cs 5.241221450819257 6.6458725133008025 5.732369882985821
Cs 7.039612764352161 10.550252633840527 21.60212065194777
Cs 7.141115002637153 11.304245276064652 2.457960280371992
Cs 15.85232947495761 15.860594100812449 8.820247042869346
Cs 6.634548133899523 2.9123554147844595 9.366859785151833
Cs 4.694798005281137 6.10109101452599 20.041373349109193
Cs 10.66926022012399 14.359834997378634 5.469821594868428
Cs 10.302789240212423 12.624268716122076 12.358036210286118
Cs 16.34232806151504 12.58467992246753 14.697851546706424
Cs 10.66926022012399 4.0214022866121635 17.57936127293263
Cs 0.6635583901923485 5.1955993915028955 3.928847936645705
Cs 14.255859081639189 17.445040206242272 14.701092479867459
Cs 10.013238705106923 6.279768308770112 12.860362974169828
Cs 5.546331591816178 8.580800776439222 10.413997618689724
Cs 1.557220104398773 10.273851105786141 5.310943224460528
Cs 13.266583301117475 8.823896729701971 18.217294334008816
Cs 4.562141183613629 4.170821808646023 15.090600991915917
Cs 5.731370826440442 14.034300222334442 7.389451882634318
Cs 9.482940804802785 14.855314867763642 17.425715809614587
Cs 1.3111038611377155 5.860076928644623 9.353406562383228
Cs 8.871958210851862 17.309278931577296 10.031148065306835
Cs 7.254824918144879 8.862704695820225 16.534799451002005
Cs 5.199071114727016 14.580976717064718 14.304985172556725
Cs 1.0354612737082944 12.856701374104334 10.274378397709281
Cs 1.945623613498137 8.707900856602404 15.754282138955125
