37
Energy = -26.09771628 eV
Cs 16.433255502824665 8.552519882323342 7.287282308848006
Cs 15.886991597705816 14.366073277422977 7.427832626309234
Cs 16.045353974704927 11.745857121148477 11.75802574850887
Cs 16.322471013489668 6.473488627385263 12.175537158950842
Cs 14.095753489746405 11.626778694929882 3.1319255819243472
Cs 11.628676407769223 15.066430580743733 10.910710944592767
Cs 12.041504357406932 3.7188348826543436 13.6844486264112
Cs 9.378148057091499 5.916767272401494 17.71738444514356
Cs 11.583166739462872 11.209784197209617 7.730823978137915
Cs 11.237455934559504 15.887859865099822 5.094187338634292
Cs 14.464424041449961 3.0671689806230584 8.142088778159833
Cs 12.177032863979315 6.758729970025804 4.112528924816834
Cs 11.761276858722105 9.483677502706566 13.858051916283284
Cs 10.181604333872942 14.106708032269097 22.12592352220336
Cs 10.733305810869892 9.083702892793479 21.416407126993317
Cs 11.334760472323323 6.621191698747269 9.39070001166387
Cs 8.979722239773889 1.6456820070918405 9.939497231506586
Cs 9.767355173486374 2.3398107831339803 4.9551011916653405
Cs 7.32418405391772 10.875542908520998 16.63551602846991
Cs 5.503282907231574 10.875542908520998 21.574521447240905
Cs 6.762542138177223 6.330913164093721 12.73943896725441
Cs 7.345071202304464 11.366405544834205 11.23365952230126
Cs 6.472686548966441 16.530747482701063 2.5661893426684226
Cs 6.597991814342937 1.9453281592155114 15.180948747053236
Cs 7.978413416196631 10.92049352450371 3.9883792318897373
Cs 7.142900600925289 5.659567533868185 1.494084672746685
Cs 4.271101434070929 6.744569635604872 18.11801690687866
Cs 4.398558849131164 2.5229441651502174 5.209215823606829
Cs 6.632086483755817 6.737148619853414 7.318759887091384
Cs 6.61780805560192 14.903720083252573 7.567600083601768
Cs 3.975299235528601 1.486762033757356 10.344543618211496
Cs 2.581453360529824 9.489322225159398 13.477981163167787
Cs 2.7351136109226513 13.101509813848654 3.4699862426591457
Cs 2.625057640191831 7.706654213493618 3.5482736691398946
Cs 1.535506773154624 4.318373635256017 14.081684921095523
Cs 3.0330601477949517 10.748661041041151 8.134744616505037
Cs 1.4863729844024491 5.789314768567464 8.825704586333524
