30
Energy = -20.1464938 eV
Cs 15.978738033013103 7.659471992049818 8.496818486449413
Cs 11.66976355570601 15.806564209407904 7.697783027036695
Cs 15.535025561538538 12.471319685665598 6.8666100204759495
Cs 17.02387900326975 15.649519011916384 9.533504300144944
Cs 19.77854396263842 11.649445960372944 8.590970322919908
Cs 8.665728045126514 9.352063338754554 13.502112472879402
Cs 12.479620086639686 7.659471992049822 11.151048925730366
Cs 12.423924114316018 17.425073106290277 11.928870816250914
Cs 17.29766272064375 18.154146823209715 13.961914512390628
Cs 20.182443114774458 7.5089179690869505 9.52818934147691
Cs 7.899308587645906 14.80501727005552 11.409233278753687
Cs 20.30483236248148 14.332506400442133 13.43163753803211
Cs 12.48195435648888 11.778979134498663 10.213507028547548
Cs 22.294970255308982 9.54115659843617 13.0592619221481
Cs 17.160167652787614 9.374275995993461 12.08735194259795
Cs 15.669906897416626 13.53510519972711 14.228452590708786
Cs 13.55813128090035 8.433679913326465 15.974148578543103
Cs 6.907017332548706 13.260787199128185 15.98462596351168
Cs 11.006231042239243 13.395168250822696 15.46558326546447
Cs 8.181743058462054 18.154146823209715 15.660048029594899
Cs 18.986605600460468 10.48118276608385 16.98157629989835
Cs 9.262309392366282 9.910759087762884 19.045498403318298
Cs 13.284215385681021 17.670339750823878 17.442288137475796
Cs 18.10975925016945 15.667081194513456 18.374140129245678
Cs 14.323142575193105 12.075248541881471 19.693707785140397
Cs 8.998609781384028 14.995007408189974 20.24992721656932
Cs 14.085915642171715 16.45330730352235 22.084157005245363
Cs 10.06418751348244 19.49398195962383 20.350771731594072
Cs 11.140311545717283 12.189817014490032 0.9796418765265619
Cs 9.958342277570287 17.28606513112514 2.577940467282956
