32
Energy = -21.94830604 eV
Cs 7.4693354288224425 8.570763283165466 14.97949937727401
Cs 10.620956609415451 10.489552939124682 19.15499283193846
Cs 12.244954565905633 6.71424593526982 15.268850245183355
Cs 19.017337279641687 10.76103469183819 19.09406773424992
Cs 14.811629232625148 11.155839364021936 14.954232514913558
Cs 6.10072375605662 12.6506652441311 11.966780329980969
Cs 14.491617811217065 22.39391787799951 14.225394749953743
Cs 23.524908037172843 13.479053450022036 17.47811002964252
Cs 19.10843360846641 13.35140629502257 14.787347487709557
Cs 10.355105782836675 13.081097817315607 14.823661374035025
Cs 10.035867633256577 21.235156796773197 17.009579058316348
Cs 19.052036131166517 21.225277459180443 11.58042453021951
Cs 14.703060961316302 14.01528676172337 19.167348899577096
Cs 7.054976662893929 17.42354080269345 14.549643753710523
Cs 9.940879630669734 21.00105592056212 11.67074452321595
Cs 23.378084418221196 13.102378534179666 11.859294216606473
Cs 19.339756757949456 16.065324355343144 9.94079960584297
Cs 19.056325625704314 21.49932393685806 16.988779472263627
Cs 22.18441957331057 17.830404039649967 14.420213477681223
Cs 10.870632963662105 10.025237206660874 10.869874326720012
Cs 22.29583822827647 8.97688800867722 14.968964896602467
Cs 14.548594570991991 18.78582531959832 9.799385858785795
Cs 9.848324183523696 15.86726565855446 9.992960210847434
Cs 5.979117302030143 13.035382417008 17.550744242671342
Cs 12.366341185803268 17.27596126308956 14.540106658152046
Cs 14.687077861320013 13.608489088931524 10.364541943161653
Cs 14.568083977377345 19.203643855295233 19.057132735053344
Cs 17.59556281073518 6.855488265758778 15.292767610870055
Cs 9.862878822463628 16.307166337122837 19.25667883225326
Cs 18.76416606703643 10.207385880949172 10.880119123082949
Cs 19.459082811487125 16.594726867528706 19.181761569934093
Cs 16.876737708642786 17.424062325950356 14.53804577955134
