32
Energy = -22.9486102 eV
Cs 15.92232741456835 11.319765957787663 7.008538533612669
Cs 12.858457110728793 5.172684045436523 13.414414923002093
Cs 15.995095799245865 5.945923510679475 8.196663297445175
Cs 12.99245150831511 9.978649792487321 10.814854166207079
Cs 10.919029153159936 14.289193099191849 7.752249007839978
Cs 11.444942276124602 12.346463949019345 2.7294807309617557
Cs 15.365392229712045 8.576672208763432 2.802901603573994
Cs 9.186312518823629 1.0395842965199704 12.634946011251806
Cs 10.260354350361315 9.607343888739392 15.866147391006255
Cs 11.194892315853462 8.160839789235071 6.372687564181227
Cs 10.260354350361315 7.6446809575460835 0.7811912379724978
Cs 13.262809093041401 3.8987317235569314 3.7807700595171934
Cs 8.14038042561225 3.9012715427489484 4.411385619722211
Cs 11.285554260316605 2.8520431072915113 8.686933577607856
Cs 8.522466507210385 4.674033865733777 16.63210445666997
Cs 8.693356707319051 6.6382710480337 11.245073445223182
Cs 7.023213965436413 11.709527575655166 20.518934706123698
Cs 7.3890375877785885 10.925719311362116 6.097255587482837
Cs 5.946665421857419 1.0384626153765542 8.67017101359378
Cs 7.660869913718361 15.979361168407156 3.6341556356281877
Cs 8.116097748195434 11.972817476536212 11.38402678866057
Cs 4.779208062365593 6.514817049915386 8.300142390369004
Cs 2.7003554769362523 3.36787986558551 4.643471025420501
Cs 4.7901382800671595 7.922607591811507 2.579320736863248
Cs 5.148873255287044 8.935861688503383 14.55884720222678
Cs 5.460056580345143 15.830678151881965 8.426482109023357
Cs 4.38860563187884 3.7767387678204245 13.003683877152858
Cs 3.10382533029754 12.892782973777743 4.264931335092576
Cs 2.975589646631082 11.083387552110196 9.690179844733068
Cs 0.5010602198275724 2.9924609958688646 9.32902988429158
Cs 20.53211366219194 8.05303155967135 5.84269720316971
Cs 0.07619419933315252 7.564537681754957 11.44915128620398
