31
Energy = -22.11319779 eV
Cs 9.678306283862172 15.459457161461241 4.457550151628104
Cs 10.607117036696335 14.012337375762966 9.291280906425522
Cs 6.007692100672689 15.971731282553074 8.487473393429601
Cs 4.854202137190327 12.95812379424718 4.061290118542417
Cs 12.04825750626639 10.633509279671669 4.598633880655823
Cs 8.777334689633394 9.988578530132456 1.508085124679089
Cs 9.008242784811847 16.75511094141149 12.188393455073259
Cs 4.5903050768495985 8.33076261748194 4.592529412393003
Cs 4.351668177429028 14.086800390990438 12.43966449710855
Cs 8.217946383663756 10.374034549402344 7.0793290478454285
Cs 11.656402913528373 6.559699911662409 0.9375550601223073
Cs 12.030425966242651 9.536749930295413 9.929697374155337
Cs 2.9248973972493615 11.018050569709143 8.897226226398994
Cs 7.574753137277998 9.940722414246125 11.158265007128081
Cs 6.932727125916293 5.772055589298556 0.26736143611297647
Cs 10.717049572232995 11.926634070465267 13.755391693634483
Cs 9.261415629679442 1.4603911217706782 2.7416827743349987
Cs 5.6359254182217216 3.020695825068873 6.172543586571197
Cs 8.614913648895824 5.751365836338849 10.324345454875903
Cs 14.750026674426282 7.077355526502159 6.018013566867314
Cs 10.034095220377338 6.426813372309555 5.381344388443802
Cs 2.764197127338624 9.940722414246126 13.21889493156363
Cs 7.037042277282789 10.083416553646737 16.47105201832985
Cs 3.5505582388493626 6.659804478687689 9.89205896744071
Cs 10.475718577128296 7.337873679041757 14.174253439863401
Cs 12.945868005429125 2.484720283550719 4.973043854995789
Cs 12.702003655844198 4.195287487793681 10.297460073945208
Cs 5.5098504292773 1.1999024246756376 10.506705498800445
Cs 10.19018257479145 0.15901255372276274 8.47635026088235
Cs 6.0126865250712 5.744291913000504 14.388901930165915
Cs 10.181969273207883 2.0275538166401943 13.23617770643301
