38
Energy = -27.04239034 eV
Cs 11.494359002861458 14.725880200233627 17.434775892900205
Cs 9.507692185730182 9.755674410630304 17.969465603895042
Cs 7.079023996763734 12.93638766921025 14.511860319462155
Cs 13.445515683942103 6.189159824106654 19.55884910475843
Cs 6.062376574917691 7.524511232239501 14.385090347331637
Cs 10.284839998531822 17.559103294576232 13.212160412207286
Cs 14.776699885115598 10.542222735337917 17.02973550188619
Cs 14.919573963351558 14.927751129502314 13.087531996281852
Cs 1.9277218342339522 11.474791324130157 12.148803949331585
Cs 13.867139328268768 18.9195138884219 9.11225559074726
Cs 11.616445886919784 10.533333160764123 12.69142325160632
Cs 1.961017719908181 6.3343720820083655 11.354717184455538
Cs 10.955613400293553 5.673460141496719 14.405568157091905
Cs 5.508000447176724 15.061921500211046 10.131606742074446
Cs 14.381812189485585 2.102992671262235 16.113098641621644
Cs 17.309506718964734 10.240720638383376 12.280304059081901
Cs 6.471372385743033 9.653241324550974 9.609798855314962
Cs 6.714345066436943 3.838621752301742 10.155843021611497
Cs 20.75531785909882 9.397293062703742 8.422892514441884
Cs 15.978336967454778 5.170514686200349 12.148282039450551
Cs 11.367003933114573 0.9610686336574139 11.48415049844016
Cs 10.648762395069253 14.145407835263605 8.977842127914089
Cs 2.2660475146398253 12.682215267818416 6.728590150389235
Cs 10.315145873595485 1.030851912538458 6.059684817333816
Cs 16.109321601765924 13.46332073587224 7.926339428837261
Cs 11.235088522352275 6.4282370437540814 8.731902665922412
Cs 2.9039320454778816 7.320549603731785 6.299177128198891
Cs 16.09486607589837 7.669691212704782 7.2629273597210275
Cs 8.301447896086655 19.34934823324445 8.80024471337658
Cs 15.208698608896247 2.2427471051597454 7.684247534453406
Cs 12.136012318142026 10.7949980087694 4.892894842714757
Cs 11.757948255549474 16.889952696135307 4.617763757375508
Cs 6.522815710075266 15.884402978548978 4.891223982637238
Cs 6.825010563501476 10.794998008769399 4.407327243988591
Cs 12.84749010002429 5.147327779460985 3.560827925366402
Cs 7.50280362597053 5.379264524562864 4.989784194779949
Cs 9.485394844736359 8.062778112991651 0.7742912916106579
Cs 10.03661532039974 13.568773421944494 0.531895683772389
