39
Energy = -27.4099383 eV
Cs 9.118196465047095 3.7724849459805587 4.725718295797322
Cs 12.994592903454766 5.951937284264833 7.058567888203954
Cs 11.3309955402691 13.521084199989964 2.8121157465645226
Cs 9.801739191326321 9.043327705211166 4.566414784754562
Cs 15.44179985747733 15.715191822464742 4.450825767633383
Cs 19.03000671476388 12.579519106108917 7.477110912414675
Cs 22.47734189760311 9.658760712532754 10.756868963263308
Cs 17.679347015309368 8.010765951256504 8.853771070545786
Cs 14.318085921090159 11.075278594507568 5.924251954122626
Cs 9.550712059790483 3.080130495099607 9.955520163482676
Cs 5.131991272315521 6.965278838605177 6.100196901108181
Cs 5.678001347931275 12.00050160610123 4.326847136862631
Cs 7.199364924826415 16.54705531202495 2.2506383523986706
Cs 10.939838026691051 17.897880535534874 5.964574215877615
Cs 13.704493482555375 5.549840358483081 11.735782106637206
Cs 9.409356958935229 8.295152743924424 10.019458688767628
Cs 14.618728937548957 15.58719183118422 9.385784451088892
Cs 10.211703451134591 12.853379326093995 8.161985229417066
Cs 18.051966621321125 8.417654696913354 13.688224375056564
Cs 4.974005629886191 11.334653369308642 9.383965619955509
Cs 10.08190858218161 16.96613109276011 11.299453611475062
Cs 9.227983699838807 5.701945811360275 14.076822410694945
Cs 18.718272611431235 12.979752904438536 12.174854360935317
Cs 9.660558020337927 11.716489487567795 13.541584287567018
Cs 5.135072154246805 1.7071844383001034 7.606835004073526
Cs 12.973703263709927 8.868682388000934 15.738304017415926
Cs 13.945117824381306 10.942395190376537 11.209812455715102
Cs 5.973759074455395 16.156511993514975 7.625969600256188
Cs 4.595278905152238 5.687969218504165 11.203608993484716
Cs 9.251269344949833 16.805674834231056 16.009534413286726
Cs 16.55927894339015 12.013810277071627 16.984234949268686
Cs 4.469391441664669 5.420249900913018 16.256528166064424
Cs 13.523207270948046 14.889222733641157 14.101414894882547
Cs 5.417863045777399 14.8700544668445 12.736070852630272
Cs 4.741056345405827 10.024143302374636 14.012042760531559
Cs 11.330995540269102 12.707437711990762 18.764054080362268
Cs 6.099272031187984 13.137080906526108 18.041406940040172
Cs 7.984961889453275 11.330282508192266 22.45512096322931
Cs 8.436118667825852 8.8403637748996 17.962766657089787
