36
Energy = -25.13577915 eV
Cs 0.7742621396273172 9.927515848395197 6.698085273293865
Cs 12.64367979343395 3.2386140335709053 4.253869973051256
Cs 10.720031659809932 10.603990867683715 13.039597978119929
Cs 0.5850642554297051 8.000323371153273 12.010985386456777
Cs 8.560963973942183 18.352127054303388 15.839937148721992
Cs 5.4754751889581605 9.664347972172184 10.04436539782376
Cs 14.918340400143382 6.810468885905082 13.033804037088379
Cs 5.347558788664967 14.219599229933578 14.902862876745813
Cs 19.092153995515435 7.7785968098377785 8.978777667723607
Cs 4.515565983534689 4.417527211924372 12.424233225239785
Cs 12.652664347694254 19.881414202676044 8.855458250170928
Cs 17.496952177404822 17.426349256446247 10.384032039707714
Cs 11.942414903403689 7.638845584715916 17.584616105741844
Cs 7.972293827669274 2.5979908840515256 7.860084112847391
Cs 14.92350344218536 15.967331807117649 6.007421352877128
Cs 3.6030417334183715 5.491947221438236 6.6987640896441105
Cs 14.691783978364658 10.603990867683715 4.824738307013403
Cs 6.968593884096913 4.131740628465289 2.7797940472430644
Cs 1.4279979856348093 14.23758830566422 11.243097357860005
Cs 7.222464862473184 9.010861847572144 4.809634305454578
Cs 10.04699883001461 13.527921176613026 7.496051619598499
Cs 15.436015390963018 12.086373766591187 16.106636085436403
Cs 0.7686512533621567 11.803645995361325 15.97964202941872
Cs 11.665295228779447 7.37188031227449 1.2731235643740142
Cs 9.418120640051201 5.06201437850607 13.291557931057087
Cs 19.499756264643473 7.906341919630331 15.16753849458046
Cs 19.904216542796597 13.032250819003687 12.995867445683553
Cs 6.017036053732047 8.458914704717472 15.854732011387382
Cs 13.965626163614889 2.4963047250834136 9.135790118512542
Cs 7.22748137848821 16.926733648537372 10.963864346129434
Cs 4.866246291614696 14.186533378922311 6.542911882082713
Cs 9.794416553525263 13.434430808167502 17.859286589218012
Cs 19.7014883053686 13.433483369305492 7.188042549276474
Cs 11.498710298043502 7.240010509267409 8.03015824289148
Cs 12.887556774214477 15.984581734281477 13.14806672546694
Cs 15.310005576616398 12.077390208235116 9.933050707317955
