37
Energy = -26.13452288 eV
Cs 11.433317581534993 5.267962607922478 18.05569289457291
Cs 14.513107026283995 9.12883924972773 19.69654571759064
Cs 8.463175625745405 9.634170716491395 18.927088308444038
Cs 11.521595208331425 3.4921493560254078 12.79149164090444
Cs 15.59094931039054 6.6946257604042305 14.81372941548159
Cs 6.904353094155056 5.569124452498404 15.055844203967396
Cs 12.156387611156939 13.869632188092348 18.858604183779946
Cs 6.722504730729323 1.251648656865492 11.079436682279981
Cs 16.02046761822481 12.411090404963993 15.177254020429976
Cs 5.793802480191658 10.335535479389694 12.726296640005495
Cs 10.477387899705676 2.5589737447474543 7.0065002892932995
Cs 11.229425546197787 9.853446694952604 14.129831128549757
Cs 15.05787094196954 5.36328617629966 9.053537184403982
Cs 3.2582967034517094 5.663929835881541 10.955968946109778
Cs 7.635769850329183 14.54481261968935 16.015317945788713
Cs 8.685523485966296 7.226596558267822 9.251260511273376
Cs 18.009249620303006 9.658488267781383 10.955968946109778
Cs 5.183528813863128 3.7389896994815865 6.347168703321456
Cs 0.7628207677623436 10.794073397602125 11.60592133434417
Cs 13.070251612620314 10.311601975008482 7.654784172145501
Cs 13.862873979916884 6.041807412687368 3.90494472391783
Cs 20.976802209691122 13.059400958525831 7.215410369111283
Cs 12.62743612887244 16.304737906697536 13.925991219507837
Cs 8.991061902863569 14.199900525875698 10.100461946448688
Cs 8.507027810611728 6.8437878005264565 3.615712070868967
Cs 15.552804086951186 14.828100594482164 9.660524899595156
Cs 4.002624285081078 15.682367335554725 12.25947075940411
Cs 3.709838246062297 8.912403299791132 6.87956845668322
Cs 17.956992723391245 8.779574349697661 5.503128537509873
Cs 3.7814512568927796 14.420050426290992 7.157123967049853
Cs 8.064880387336355 12.018684122886178 5.143971580408389
Cs 12.507432114682489 10.993835608553674 1.9225006806128664
Cs 16.50186986419647 13.870368262202007 4.31437696185846
Cs 8.06665466571524 19.241082925752305 13.30298483676795
Cs 12.038090173454007 20.095086088381887 9.449865298762976
Cs 11.85441621957667 16.024972260177087 5.685037780168035
Cs 6.973036239921471 18.893763998378365 7.822672813872113
