32
Energy = -22.76006457 eV
Cs 17.678998042146574 10.01041150104436 9.604324583645926
Cs 5.410128062932483 5.424052366713763 4.107959708048698
Cs 11.676282359060014 5.720092517545249 3.698174485233363
Cs 15.085858024672854 9.707967404028974 4.67447224802293
Cs 1.0060701896118038 11.929478890609198 7.191143111475718
Cs 3.845937533947626 10.381977605954003 15.681297165414557
Cs 12.965083377574233 10.409015466175902 13.012960197473129
Cs 15.986898395715693 5.165544196268141 7.857488491000748
Cs 9.731425447885275 12.311261404528997 9.737119160132163
Cs 12.048702793012987 8.430903214018116 9.164400751831732
Cs 2.3646461706322763 5.163599122180439 13.68761607333019
Cs 7.3214640905720945 3.006232528982304 12.184413651795776
Cs 7.974457653617687 12.308733615576555 0.5972264245122146
Cs 5.291624964516899 9.176574104669319 8.026475752722869
Cs 9.225455336179857 9.64491959626449 4.916558366355897
Cs 9.067084196005116 10.798919336465074 16.248686609519833
Cs 11.257888885761318 6.654370604662261 15.586648475788344
Cs 8.125697233178535 7.57110228681131 0.06907344895071743
Cs 0.17973835831540091 7.063327183576455 6.1262798221256345
Cs 12.04158741094042 3.7105045164091814 11.24564301890962
Cs 3.550198377366067 4.226197880759382 9.23906246711944
Cs 9.044324433468203 4.619976100780571 8.004915572960087
Cs 3.6856098929168404 10.409015466175902 2.8877970212152113
Cs 1.3958243116732227 9.321464994485225 10.991163738921248
Cs 6.691388494942337 5.802888066060037 16.53662682869837
Cs 16.234806974201504 6.518165480430136 12.718504638608346
Cs 14.234780798752062 12.943837800570934 8.729415591239903
Cs 6.201776304031203 13.5242020549793 5.974269299860104
Cs 4.887367216066316 12.720520917896051 10.878758079672684
Cs 7.882560179988607 8.26009244166738 11.80238650348374
Cs 11.512355837307565 13.11582588753229 4.254614237869394
Cs 11.934979914014354 10.12867331160563 20.798796471282834
