30
Energy = -20.31674122 eV
Cs 11.519777112887361 15.369045336823277 6.772119830841859
Cs 19.26133293059721 12.796010220582605 7.610643300041519
Cs 12.89705531351099 19.84271314546405 6.70964705315175
Cs 9.4362040850156 10.492818427344753 7.3173973174957405
Cs 16.65828400089026 16.686239561699427 6.759745112563858
Cs 7.457164759644882 8.457661608548205 10.112276744958633
Cs 9.976329113591424 13.235447402700961 10.62727932502652
Cs 10.78126795132003 18.04918504615687 9.938199789799146
Cs 14.646027245274373 11.3922067567292 7.317397317495743
Cs 15.43953335061078 15.400545443263205 10.403838075700413
Cs 11.464420376907459 7.931957510819698 10.364289158745892
Cs 19.740786362007228 13.265991709367475 12.80702545535094
Cs 15.883340761780431 20.056156125420646 9.845798796874144
Cs 20.06823174477419 17.657791335208167 9.172252340407958
Cs 17.889143275533552 8.71689783586586 10.768446805508635
Cs 14.563292937938753 11.149746200189446 12.930060276359583
Cs 8.775124258565606 7.102315426628848 14.872749712307161
Cs 18.11971017677845 17.781763303684812 13.84447887440044
Cs 14.62925914802599 6.833572547079493 13.702113618751959
Cs 6.639547515774714 11.441674307083757 14.028392946582375
Cs 10.683440033684496 11.906553185895834 15.604233501434276
Cs 16.37682582248977 14.453267442209743 16.577240843366027
Cs 7.874105407485336 16.454406730932014 14.381469817971185
Cs 17.580442415349292 9.112403027992592 16.542912396114914
Cs 13.043355264647435 17.781763303684812 14.513627775620396
Cs 12.780316837142097 6.967883883874875 17.651212089407476
Cs 8.901634957114892 10.03974886641989 19.509167684876573
Cs 7.014447734812485 13.87832064271453 17.935322120137183
Cs 10.935286424323023 15.63900465802476 18.55904960504254
Cs 14.098635199564722 11.447933407779056 19.60079545413804
