39
Energy = -27.28386256 eV
Cs 15.535816972305343 17.234456469904032 11.652425250687292
Cs 16.444110279770953 11.653072250337361 11.805527546585969
Cs 14.892209617940875 14.007602394428249 7.583402382917262
Cs 11.635633755069744 16.071867432715923 4.328286041405274
Cs 20.763639933218393 9.810872381105343 14.767142223106378
Cs 15.652264499039141 8.627195492197785 7.456763948153802
Cs 19.191872870954935 14.867962968289232 14.87689819882738
Cs 13.84357200707146 11.327346246512326 3.0303687957800727
Cs 17.217926815629166 6.553655196308291 11.90204942677189
Cs 17.73628464482411 6.001071963022527 16.98925720641114
Cs 11.675693893528269 13.878954210173847 22.15561643309291
Cs 13.447971855842235 3.7332935809209764 9.259730541784519
Cs 14.153760119937564 15.937486853837502 16.71470418206572
Cs 14.887408207815529 2.247237740561913 14.126119718985118
Cs 11.771512499355543 6.186494888390601 4.716063529618156
Cs 10.68229384403968 10.847981240671112 7.116091228477287
Cs 10.298382963435158 9.010511794376121 0.16330252982260599
Cs 15.93668650342916 10.979139040331907 17.109371162339862
Cs 7.8632003308221625 12.930654004085781 2.8857456039877274
Cs 11.913691282786756 8.367142960151794 11.788575321703043
Cs 6.813240861099977 8.117561753645441 4.59448110814637
Cs 9.88676181936175 3.289126923133687 13.585161507765795
Cs 11.451377187590426 13.884115584542291 12.037456616881709
Cs 10.828842917745467 11.67155728373241 16.971867288783365
Cs 12.554363903404372 6.6783959014810845 16.750137499884136
Cs 7.873067682646904 15.2920482395894 7.980305012663235
Cs 11.635633755069748 19.96551753931722 14.136014584577962
Cs 8.387489979123822 5.6358098164062636 9.004875420812118
Cs 7.1770129819951 10.597767246426987 11.094504316112596
Cs 7.454516657633795 7.827969065300645 15.671195785139652
Cs 9.141459375651959 16.84281196509761 17.735918172163387
Cs 7.323266700008779 17.132200365538242 12.723300907110518
Cs 3.9292613711043334 12.03697491612566 6.553383315210622
Cs 4.739097319704179 4.483162213682441 12.701733545892523
Cs 5.894586848078138 13.081293730574313 15.817818995177149
Cs 3.272901134255116 14.111723678818924 11.254944077238887
Cs 3.2758506120749744 7.598865323773937 8.886946870073109
Cs 2.631843435228789 9.39527593796708 13.831219581362376
Cs 22.29090121369885 10.980946532565213 10.06157324611549
