32
Energy = -22.51276924 eV
Cs 4.797103456242075 3.86348793382636 17.566010665190078
Cs 10.441018796599694 5.9508309352611075 5.958673110571547
Cs 11.21282666928091 9.375120613777339 2.2373685283504265
Cs 9.518907438627055 2.648521813608122 10.16002061527132
Cs 6.198164868359673 7.801416683874303 2.2383989250560714
Cs 8.834987804921745 17.087926328427837 4.99980749934058
Cs 4.904890393874297 4.2336684550116725 12.038906857551506
Cs 7.775513603718452 10.971414748487843 7.400582199252863
Cs 9.12512599721356 8.075035390149703 11.06032377699634
Cs 13.829057061368168 5.178234907979408 10.038524527791028
Cs 11.879995436165107 13.825101322779714 2.5479431350760153
Cs 14.622145542804573 9.489420838140777 12.88523019259573
Cs 6.376871991507035 12.269765677390504 12.909683122343322
Cs 3.2734775246722974 9.138235111198465 10.702342409941442
Cs 12.648525289447287 10.086611364812748 8.184009108571908
Cs 16.928895019111692 11.747187471843963 5.307662700396732
Cs 15.459596081448032 7.138254166307096 4.907645130699801
Cs 4.108185168908894 14.895696642696697 5.583998222332613
Cs 10.441018796599698 10.326188904170408 16.511067831182594
Cs 1.6959314467740865 13.338770255861705 10.023128810366023
Cs 11.33776856985581 5.28794202202957 14.388831047270703
Cs 7.390691831897906 12.369624855436859 2.1074507893595062
Cs 2.122768832782902 10.286900483826773 5.548985053863544
Cs 10.954450926929452 12.783406191637189 11.872891335738922
Cs 16.758436261706994 12.828646268439634 10.527120513783137
Cs 7.672236276711222 15.972361075014165 9.922953646112415
Cs 9.667443699270454 5.572909387603796 19.160832667671563
Cs 8.459272258217519 1.4379398618972457 14.65318650968792
Cs 12.276023666480885 14.789693565601395 7.558155438436257
Cs 5.403274743690454 6.195709256336524 7.533822588145155
Cs 18.611254234910934 8.20452387302243 9.23917529828678
Cs 6.225183184663962 8.326134379395253 15.721948528612467
