30
Energy = -20.34460104 eV
Cs 22.216462278705386 10.131135700958694 5.260874941927728
Cs 14.688858466200909 14.949576742963755 7.48058588616247
Cs 20.29030729304695 14.669654904329587 6.950686341636808
Cs 2.4682579369384423 12.446071674306664 9.021404697757008
Cs 17.036432510598306 10.227428216436278 6.950686341636805
Cs 8.97406251709399 15.087426828615234 9.17710929213064
Cs 23.317215220808357 16.362717187667865 11.098347875966152
Cs 12.321287748033638 10.65342809915132 9.568989470308289
Cs 21.444895285095626 9.674644799441497 10.286656598283866
Cs 18.156271870435944 13.67315670712966 11.77904119054821
Cs 6.771757374836002 11.071349672795044 12.063414978276548
Cs 13.045456638868798 17.433225631165662 11.64670182097351
Cs 16.325583847007785 7.085449343079989 11.238547425651957
Cs 18.266211168985485 18.763837877808104 9.982939859424603
Cs 7.054595006857227 16.47442773515435 13.998608712057504
Cs 20.290307293046947 17.018209320878373 15.381227931638398
Cs 10.979294383526032 13.492861447333937 14.035643079685585
Cs 10.66802937988472 7.919319955955046 13.975667160645783
Cs 15.104513045088806 10.945675156106144 14.387756845775167
Cs 10.949266733955293 20.096977463715525 15.771498366547611
Cs 19.7831263497239 8.14451968476436 15.138610054496366
Cs 7.730413140941054 11.468993551852687 17.292632355934526
Cs 23.19204137700552 12.379265294610896 14.49625275738674
Cs 16.224873142707906 20.804934636971 14.406506212356534
Cs 10.054607181674093 15.91743020923769 19.04888453757334
Cs 14.971836208672926 15.940316733964375 16.63435746828062
Cs 14.975208984353277 6.777715613637533 17.055604761099882
Cs 12.895191065650131 11.493455023052439 19.447131617869893
Cs 10.135672840579318 7.071912738704784 19.311045501786715
Cs 18.687556778711038 12.303942544551994 18.21744564830511
