39
Energy = -27.66283726 eV
Cs 12.641505486499938 0.7241423001077676 6.793912961388883
Cs 15.76025385541951 5.784612802619023 9.53775193752367
Cs 14.410633340923498 6.583775324160221 4.000560100602469
Cs 10.628072808315002 3.0342109169367886 2.227809391280057
Cs 16.590996863157812 10.209225077002523 12.256417186324533
Cs 14.067794461081467 6.212647047480558 15.387327398560354
Cs 12.210800301704635 2.632969469760689 11.469971668962906
Cs 13.341823278896209 11.287635957479807 2.2405932612093316
Cs 14.481332164211599 10.743256524240167 7.735414391100771
Cs 10.100860966498553 7.761216719991956 0.8791760533653814
Cs 7.776833973930806 0.6049810790115224 5.342565253467833
Cs 10.695652220875195 5.187943739593746 7.494235817738214
Cs 11.296443093045925 8.32683176970859 11.829415388394988
Cs 13.297722473348818 11.084750740325852 16.37654280567106
Cs 10.22439287973997 9.832073413776294 5.610235329891455
Cs 12.2242386175252 13.440412225455043 11.419410501715697
Cs 6.568842735320109 6.29552339641409 5.094191919446554
Cs 8.21061294485969 12.466343167501233 1.5769607802303767
Cs 10.759263383799011 14.444761116824345 6.45333505392265
Cs 5.495996966964632 3.718114400848283 1.1424673373480427
Cs 4.83962992974139 9.10380745852098 0.6830149151224576
Cs 6.421228536050384 16.267882721808544 5.09121769308141
Cs 9.428357623199577 8.460433409797787 17.128337483663874
Cs 7.800244012705161 0.37203412125372165 10.485497856178883
Cs 8.200634514613977 10.756245729454358 10.230613766410926
Cs 6.949940397006017 5.891483004816828 10.238090309333497
Cs 4.793256449986791 10.743256524240168 6.583366893280432
Cs 7.331871318934538 15.865028083955611 10.4602113171755
Cs 8.729165129158732 3.90869087765855 14.67563263138834
Cs 3.321852560748959 2.6658966744948858 7.362350010236464
Cs 8.20627687075186 12.363597840764244 14.664090458819292
Cs 1.301325086731907 7.507314205721976 4.549712759182149
Cs 2.2504459167806385 13.005923651068025 3.050994148779451
Cs 2.2513829053608716 15.609362315430724 8.055450828140497
Cs 5.069765023714029 8.182303521621481 14.256944178090006
Cs 3.704182141241317 3.0912062573770327 12.56498686267856
Cs 1.561503268255017 7.245759736823956 9.95065768698753
Cs 3.3070946507881733 11.95005029814969 11.42017758911831
Cs 20.350605778512787 11.14241536016428 7.92904505280821
