32
Energy = -22.35055836 eV
Cs 8.4795834144807 10.981468341714312 20.552255786483496
Cs 8.065835657714928 14.76870868421776 2.6429810209627207
Cs 3.7104371718260443 11.522069484314146 1.2785748840275681
Cs 12.15297753388402 11.231451924202458 3.4410177259187797
Cs 5.633981753470295 6.731483995673473 0.8130018907223102
Cs 10.67839269157808 6.990328019124927 1.006779630169378
Cs 9.692148236437596 13.683337678026282 7.528075297956741
Cs 4.145378746433175 14.077603245348689 6.036970071971082
Cs 7.383938619633644 9.841206583120744 4.491616845081738
Cs 14.310122965978039 6.737070246973542 4.967707405877225
Cs 1.7956770412471892 9.331227957911207 5.393140681998089
Cs 14.079739698819 11.501062761876145 8.472155242058356
Cs 10.43449583028313 8.176641755741834 7.713996172984875
Cs 4.421460365265904 5.084096651246354 6.842507476341492
Cs 9.235886472668618 3.888729127454305 4.7984024025786765
Cs 5.241296515694513 10.497508385323416 9.423966971939564
Cs 6.60349566957796 15.041489506720167 11.343995746979084
Cs 11.907490143295165 15.30711733803961 11.632886180067828
Cs 6.9767742541627396 0.05090561240489767 8.049633585556245
Cs 7.78472860162616 5.342962887900768 10.784825634252693
Cs 2.639002696387084 6.7458071037223775 11.567580811760687
Cs 15.290132198934911 7.146979787177445 10.438112689463377
Cs 12.04158972349732 3.0322478659203167 8.997775401147472
Cs 4.039308115139216 1.5834076356139917 11.608683898487904
Cs 9.845223875489076 10.505990603087117 11.658197682180667
Cs 5.636523117567684 10.508285110879825 15.059619888784312
Cs 13.945876445923316 10.922131780903133 13.79471955739369
Cs 9.860702778109914 13.531069783704709 15.853807348215833
Cs 9.153889968998039 0.5847052935009666 12.705332230845165
Cs 6.321222783478636 5.200604677329967 15.432042709405842
Cs 11.885638050097732 5.199299330135801 13.401913865814052
Cs 10.434495830283131 8.40295755566545 16.818511480262877
