31
Energy = -21.35986769 eV
Cs 14.958128726998083 1.9978810155056341 11.114571444554691
Cs 10.732779862499575 3.677114164652762 11.529118930609826
Cs 13.90134495730593 5.554424296957239 14.558070354247002
Cs 5.656526905281491 5.677971753024478 11.525058278310633
Cs 11.654027896449525 3.44394762835852 7.131290565550703
Cs 10.167767221498842 8.194480793604747 14.308176347481021
Cs 5.283935564780789 10.5605739943736 12.601540365948564
Cs 0.840792646132292 7.381838862681479 13.363978629740656
Cs 7.149439466411102 3.15418962307102 8.07924069958226
Cs 17.464544547079473 4.495134250414326 6.745954463296355
Cs 14.288616265059986 7.148781429676647 10.302988881554581
Cs 17.86783603380554 10.062123798060377 7.000687228619311
Cs 0.9571805058804028 4.9004788012251055 9.288101225308816
Cs 14.023731631063763 10.961152262678402 12.998343477937684
Cs 9.803286846388994 8.30652517578839 9.615018090804378
Cs 3.3152988746640246 2.9897688630754624 4.766674346647987
Cs 13.115040732117974 11.254670562848373 8.47611575733867
Cs 1.040400717356978 10.306381083933344 9.920027485456421
Cs 10.061289165248871 12.070403854978384 11.660314679515363
Cs 5.013780620479357 8.155001352617917 7.0175119914240955
Cs 13.243977889151804 7.823154750879896 4.892508928546124
Cs 0.2849254950105971 7.528219719535114 4.60641988091285
Cs 13.356392553342772 15.464292596042766 11.114571444554686
Cs 8.738794377302918 6.07821645311949 3.8332310960710148
Cs 5.92668003858119 12.188547956246119 8.859916378443119
Cs 9.53590069223535 11.241378478495012 5.163765324861875
Cs 3.9642812237155822 6.082208512543248 0.9073739290401064
Cs 1.576108121670707 11.929864702658046 5.414986616931885
Cs 10.309251453175383 15.104754159378462 7.922635027085394
Cs 5.144272028213069 10.815700490974093 2.2438822333810773
Cs 6.12223329615035 14.800427305808702 4.36055491400282
