31
Energy = -20.66269163 eV
Cs 2.313809946014117 3.935428102008836 6.780560921452258
Cs 5.669986821940073 4.8053524473549745 3.0275811622799043
Cs 11.728978315512853 9.002052936655627 12.448349113732545
Cs 12.067108348974193 10.885998183903752 3.931084219763838
Cs 15.412944365339714 15.698441753368659 14.812247460109736
Cs 12.117892290778997 9.049257928007485 19.11622723100747
Cs 9.255969263245033 13.366107598132498 4.228052940128207
Cs 11.07481286814205 12.13464653814873 15.329619523503753
Cs 10.180880924142437 5.582756069671439 16.38120751938496
Cs 7.278329860891582 8.875621733941804 13.525573616900859
Cs 12.24098565425524 12.845526439063104 9.285403436804012
Cs 5.086788239318501 12.427638129776092 7.522158301335852
Cs 10.696626062379604 6.2918387383075025 1.117255220637311
Cs 7.376592344571949 9.360357587191453 4.198422526103888
Cs 7.940218781555274 12.636808019730159 11.849709236648495
Cs 9.480131512390964 10.440399801407924 8.957363643300928
Cs 8.81525475171712 15.779639235672095 8.718892744167368
Cs 7.418287847743524 2.4252047035715303 7.353610642014969
Cs 11.21622365308907 16.32620848013265 11.879874787332314
Cs 15.36169177035562 11.792746914218348 18.439641978206463
Cs 16.243235049280685 12.95006153567247 5.965890365324699
Cs 18.806217463619504 9.798200046781767 4.404760182814859
Cs 20.30151548624198 11.471737839092524 9.06460575595433
Cs 11.07481286814205 6.038245900622569 6.544960697998266
Cs 14.639529637186145 9.169124752051482 8.502306132309485
Cs 15.906017850450086 11.474833915603746 11.953472461017997
Cs 5.612146030186986 7.189503102215297 9.284749117190431
Cs 9.714229719605747 4.928108700208092 10.720957177207072
Cs 14.721470211392003 6.467121109426847 3.659272500704229
Cs 2.973961243609003 10.972745481043825 10.896359539074142
Cs 1.9835889148226178 9.232163265959594 6.120811984351724
