37
Energy = -25.80596849 eV
Cs 9.479389561455129 19.003270697604947 17.34152163065179
Cs 9.460735479450193 18.4736787644287 7.269334737866993
Cs 8.910143028663258 19.15007154980889 12.114138379337021
Cs 6.9909488064446705 14.75520933247891 15.028109432140651
Cs 7.510158086718722 13.862949606477253 4.872195780582135
Cs 11.167909139564673 14.233981560177046 17.36651249672172
Cs 13.048484983631727 18.59383136591024 14.545831226702647
Cs 7.396682741731722 14.622969890620949 10.14017497235321
Cs 12.120395431302244 16.247165352017547 10.844175291912915
Cs 11.841547508825096 14.119703678773485 6.153495999544614
Cs 11.09644998580502 12.14141593419968 12.539437265898533
Cs 5.911273672917921 11.096107747551308 11.738969903937216
Cs 3.5271876982846013 11.41002625993123 16.407853469691474
Cs 6.014619344151593 10.822707936437155 1.5095494646528653
Cs 4.653113789283065 10.851500722013064 7.119237647476085
Cs 10.012553526192509 10.696033141228654 8.489233699634527
Cs 11.167909139564674 10.80425959845443 2.979633715866156
Cs 8.632450960454129 10.591166703284829 16.959067290914984
Cs 15.301889773662037 12.134487981971736 9.596756953341737
Cs 6.029450998255463 6.445814606234386 9.886578027877535
Cs 15.296730509503993 13.673187788088315 13.96177185915558
Cs 7.967768453519218 7.129926250618204 5.05400563487549
Cs 5.0645658064064305 6.567810393313991 14.604942663409027
Cs 15.573760630990845 11.392282055460761 4.5335156307056685
Cs 10.14671583419496 6.96304047311127 13.231001457199591
Cs 17.755392447232246 8.20142830022324 8.252691391825156
Cs 13.147066732581868 9.942113612861025 16.127942895039315
Cs 7.406385991067568 2.0354190110268924 12.008382692531045
Cs 13.277075783377589 8.591199589158153 11.267954679864346
Cs 17.695876652616235 9.873254333606738 13.087790389305855
Cs 10.819026254601628 4.223071713743339 9.340472698028263
Cs 12.837506002638522 7.253533996325728 6.040850090982807
Cs 15.143593250486278 5.344134174682923 14.374654696339473
Cs 11.560829604576334 1.5043688625912597 13.660786503429916
Cs 19.71489729753907 5.202834491153833 11.460903303986607
Cs 15.15164034261366 3.675923100302848 10.142329311390528
Cs 11.996097903918082 21.499750675208407 10.009283836763549
