34
Energy = -23.17579856 eV
Cs 17.28247478901814 5.98361612556729 7.512866169305077
Cs 6.2030628352497885 13.82744301934217 6.23034371129781
Cs 7.857786361121644 11.186275468981066 21.567170628395328
Cs 9.28888852222299 18.32533377235456 6.116189061792727
Cs 7.439479300412699 9.775381026086198 2.6912405202295613
Cs 9.297691099298792 9.225701919679432 8.002192220616088
Cs 5.808914852986458 11.186275468981071 12.732610232073025
Cs 12.636758061627829 3.3846160913227163 8.236383141304293
Cs 7.467405028061916 6.0289405163370375 12.621762262868975
Cs 13.14299812026887 7.852927548313158 4.3572331552425565
Cs 13.616725811593863 12.853588602591248 19.20158999699883
Cs 7.298318175605572 6.012358804700121 18.14772860581234
Cs 4.195327704778271 8.096510745399527 8.08994267030978
Cs 12.10841179097617 13.918056699443602 4.720763293029028
Cs 12.039547902866776 3.904897661684731 15.459329798298466
Cs 21.157816146761583 4.956980858526524 10.877860621181062
Cs 10.050414101824806 14.106637494060317 10.303868648474666
Cs 8.295833899847475 15.39712024825328 1.1255871842160943
Cs 7.733875707987695 5.138043439755022 5.101586715766749
Cs 10.003445923139058 19.562062463666397 11.296010756275649
Cs 15.335323526189896 11.147215616205395 8.190377451685366
Cs 14.921338824557322 13.925061194841152 14.013695615961263
Cs 15.893054103928788 7.737748241353917 16.348235494458127
Cs 10.022591027224504 9.922034355460374 15.503698838272099
Cs 12.382917583535841 2.7749647316346078 2.4735073329427406
Cs 1.8890431482751864 13.317017897018218 9.147694261303112
Cs 16.407531332093363 3.27658144499851 12.82853122845694
Cs 13.438253908766745 7.334506872761342 11.164415686485277
Cs 18.60191911741541 9.255264607903136 12.271427661038171
Cs 12.627040096703062 7.055995823740865 20.195552848567306
Cs 14.662847748454478 16.965135549712695 8.803935196790967
Cs 12.707662558034473 10.554564564618651 24.63975672217583
Cs 5.283357907525093 17.440633117975562 10.07265140859778
Cs 8.682665585280509 5.8693647974996 24.216197441144693
