38
Energy = -26.87330137 eV
Cs 5.468297563888581 4.692379427893413 13.69188322534092
Cs 2.4487136799096545 3.5354373948383437 7.716772826702441
Cs 0.30542572831958253 6.939283554289422 11.444628237415758
Cs 9.545419591057678 4.918365243926534 17.525971664371276
Cs 5.86123886057983 8.519847560987047 17.549324410534975
Cs 10.501248598023519 3.9136679060550676 11.72369983059968
Cs 4.6863758563122655 1.7664986182621545 3.1145627412295913
Cs 1.4017987845360427 5.876742302261829 2.1752911646727364
Cs 7.7219628562622855 2.326381683251163 7.490137885770985
Cs 3.8922932595412534 10.50746692921941 13.302087027507936
Cs 21.88560825645833 8.102566940614274 6.541546443667495
Cs 5.575738660724025 7.405008241381338 9.568073870524401
Cs 13.83370181406751 6.151288775072043 15.025233935917242
Cs 11.175208604028024 9.857092358661978 18.068270619645936
Cs 9.477197843603763 9.151529406437843 13.035257582767498
Cs 2.6980119936311273 12.108526673095215 8.512096552665701
Cs 7.317858163625765 13.151353309238045 16.708375318458774
Cs 6.002180900917149 6.924552070986633 4.549124322389531
Cs 10.625594130691304 6.921608943621111 7.20902813752881
Cs 7.03870548321842 14.213933703826777 11.186391024919345
Cs 2.849131219042157 11.04423586359364 3.2431480007973987
Cs 6.2885906462346535 5.847445116271692 21.757870547022552
Cs 9.728940047400569 2.8244076456067693 2.4538336706772963
Cs 7.99348567491209 11.176408448842707 7.098532748526156
Cs 15.50397302261385 10.885641046431214 14.08790622906463
Cs 13.319795379750815 2.996417159993388 6.149484328191127
Cs 15.301592619091085 6.400856606709499 10.10270720435249
Cs 11.441953243148419 14.20425181458531 13.787415462876467
Cs 12.758572460553205 11.145265145201794 9.56854202155567
Cs 6.13091922518454 15.246395030965258 5.071771736808797
Cs 11.056870904717552 7.8349100258707605 1.6448151353362597
Cs 7.324626436539125 11.407122083516802 0.4475691483503923
Cs 15.165115551189267 8.749855560100661 5.073502773192309
Cs 18.4204738155588 10.81746349855707 9.333265148895174
Cs 11.056870904717554 15.818561330964984 8.240742034628418
Cs 11.468944790165601 12.742955317243972 3.6172320700436473
Cs 15.792095706772749 15.262907627749442 11.161481262845628
Cs 15.799737287399198 14.190203193953995 6.136402109025754
