35
Energy = -25.23182599 eV
Cs 4.764761953421807 14.884759365072588 12.553769584970263
Cs 10.07791632943156 16.60716132933803 12.431808754228001
Cs 8.801441511502832 12.707004484502564 16.44977220726687
Cs 2.538896949413944 14.122443275803223 7.3561616567438675
Cs 12.826664693777678 14.799452715021095 8.414399776945643
Cs 4.495647171823401 9.70977850096704 14.891345760194286
Cs 0.8359710890048226 11.20869880274303 11.08481949375884
Cs 7.6099747415148755 15.300564896595978 7.894839968063268
Cs 0.04686972263054796 9.440628006519413 5.557726116013908
Cs 8.148837787530855 11.10024237299054 11.260974152920708
Cs 9.725544372175614 7.496825148793825 15.541817546279704
Cs 12.835235309340225 11.39457868053078 12.71616093565556
Cs 5.823430057731597 12.41143783478819 3.3215922409838816
Cs 5.034042988310047 4.501587676357589 15.580856713027405
Cs 1.6396466705119932 6.195506299451674 10.880750503765146
Cs 4.891243078293739 9.42466879312634 7.631712541211353
Cs 10.251066613947009 10.46496173196073 6.325403561383824
Cs 7.2163704758591205 5.679994719331505 10.63963693108141
Cs 3.9860325382740527 1.2594302385687122 11.162935470263225
Cs 9.073238792503258 1.531154076552688 13.458749553849982
Cs 12.536369574643931 5.835494960585787 11.114604453169573
Cs 10.367819438832996 15.43348162972716 3.335479409409332
Cs 3.464967050946901 4.256486377752645 6.3495827759608785
Cs 15.555957353300517 9.703545230786627 8.435361587847162
Cs 14.908329218666665 12.150437839683429 3.84726321451456
Cs 10.25106661394701 10.362981236844954 0.734393159726132
Cs 5.573281446442785 7.2493333588402065 2.174837926340542
Cs 9.574605613628275 5.421759094546674 5.827380974339869
Cs 7.621542457271378 0.4700978432134846 7.655823944302032
Cs 12.310722389059778 0.44540917647750605 9.458560017026834
Cs 15.813061956161963 4.374759103878325 7.245741784443324
Cs 6.841299135367246 1.9103635330502162 2.647928444838821
Cs 13.869459907016578 6.984397588907764 3.101497419865836
Cs 10.113004836738634 5.017009332494819 20.505388067520823
Cs 11.92410440973593 1.2484526299405354 3.9819843821602148
