37
Energy = -26.80594375 eV
Cs 0.2268217203773886 13.470984226983626 11.218524370983522
Cs 5.038590409452095 17.195129648913543 9.140952581079116
Cs 3.6690600572728638 12.525804098786262 6.75940453364862
Cs 4.500575589902386 14.924729331294087 14.418951354500143
Cs 5.953930559492071 16.525091123452793 3.8285322380120577
Cs 1.2839087913021388 7.816076055256961 9.681881463946972
Cs 10.217141965761652 17.63987667526324 7.176508615978821
Cs 1.8084279933002927 10.51894600566087 15.590252618717853
Cs 9.314164843549445 14.919811466999699 12.40262871828955
Cs 6.2182246109801955 10.129808878059404 11.479162097349924
Cs 10.96573489343614 15.9829345646491 1.7145191145305712
Cs 5.546816563428723 7.275294596129884 5.4442585068477385
Cs 9.188563980674552 12.00843427650527 6.290276684829719
Cs 6.735676077569898 11.597478812841295 1.426341672855748
Cs 5.6727220198835955 3.2860794770829886 9.310689703648304
Cs 7.836361106936218 14.80709228501405 18.818287609191408
Cs 3.9410781505695565 5.554531659276595 14.284281808665652
Cs 14.527561993715194 14.019813566989102 5.582318148965615
Cs 9.242905604048179 6.5073933963780455 1.4345349062226314
Cs 12.399139936675581 11.210977835162232 21.46105771644069
Cs 12.9229147442621 13.224154477198194 16.514988500332475
Cs 14.937784146764592 14.817829757584455 11.342226989800704
Cs 7.687846578835966 1.798293697409554 4.637185470890893
Cs 12.838756046275714 9.285400715029045 11.879294994185296
Cs 7.807929584802995 9.428302681157216 17.166285185344634
Cs 9.031356125588385 5.148297334388777 13.494554152533647
Cs 13.863596043135898 8.511382182929793 4.621387876326118
Cs 10.054075030756769 6.092444025715785 7.821793846493075
Cs 12.965371474786227 3.284364859394534 3.707350752462709
Cs 17.884509950940956 11.882757934592709 14.819217593122136
Cs 7.964354160836612 20.65768106490482 12.389697461086817
Cs 13.586712570700676 7.546462505034355 17.04887874327711
Cs 17.612487979536322 10.129808878059404 8.737752067518798
Cs 11.756804292540554 1.0320921688057454 8.649104677544054
Cs 18.20764243981545 6.624751880824646 13.23054106345898
Cs 14.011387970296335 3.28173847387747 13.488133129873818
Cs 15.626778270871037 5.026794107833978 8.342967130780076
