32
Energy = -21.51416107 eV
Cs 7.762882341898425 1.0157007709384005 12.47471216830133
Cs 12.766249458425515 2.087629848783618 13.849044992308647
Cs 11.667800457967491 1.5156853295490396 8.429205200500645
Cs 8.720363971490757 5.187961867110977 16.158687083726015
Cs 13.702594953125484 7.276400539001757 14.893801099580314
Cs 4.535388962816903 5.062740237906142 12.195829558448892
Cs 6.805191952710272 2.7914227736592068 7.354676831503336
Cs 14.92696413140328 5.059295878160384 9.895376839202344
Cs 9.506900515982107 6.2717886630410185 10.9797215569613
Cs 10.342969797784058 10.073893194305857 18.0359430174316
Cs 5.467902601143642 9.37738799445147 15.548080573996355
Cs 10.84953379852243 7.243214482466455 6.129965428010705
Cs 3.7736531168911402 6.997140685568146 6.869265632006098
Cs 1.5501650627249386 9.112126436177796 11.676938889159683
Cs 14.904641128280709 10.070992205458829 10.317860650532413
Cs 14.662121547484666 12.761907866061 15.316686157949395
Cs 9.93751637896707 11.435972490346385 12.887555899123
Cs 11.14272094985045 7.881448005135945 0.4685466834973644
Cs 15.977362163405505 15.599686838546807 10.979721556961303
Cs 3.5778509622954973 13.828237441899779 12.590529023183969
Cs 18.152359457225113 12.874381459637156 6.833328975891823
Cs 6.949417960118988 4.932041994643268 2.631531866574849
Cs 16.273911538981157 17.877300255390967 15.439645637012912
Cs 1.4212728968834445 12.083966902560942 7.098861082635593
Cs 13.009189036329936 11.808379294603919 3.4420272666709204
Cs 21.101359065558754 14.03600389899818 11.431019953203172
Cs 6.259195352772959 8.160655956239253 20.986285957456804
Cs 6.671649103365111 10.188850476003722 3.313701666484782
Cs 11.815713860289799 13.691120461276666 8.041316501902404
Cs 6.672336224573685 11.10207571758549 8.704381957707607
Cs 8.841648164843958 12.92279304232291 22.210139953782008
Cs 8.571725512557016 15.17419187309477 4.096033484950316
