37
Energy = -26.59231015 eV
Cs 8.969119001240252 21.2975024457058 11.414832262093793
Cs 12.655396756021677 3.3944347120456735 10.056064853343983
Cs 8.584020398625626 5.00580811093505 13.179285647901857
Cs 10.330271098807314 20.423684333831797 6.559141862355271
Cs 4.171396994809826 2.5586551203746994 11.695851794226831
Cs 5.273014749034393 20.191677167195387 7.878644762474679
Cs 12.659652346274815 7.758618889153414 13.991891330723476
Cs 16.499553544500618 7.782565989276666 10.50286223815375
Cs 7.765825501844613 3.4909233942457103 8.05156810341936
Cs 10.931961250267753 4.4641393895061245 4.082169177105533
Cs 11.16226717367614 8.202075914738266 8.562441527481898
Cs 3.9386639724730252 7.636167803921482 14.291707415240682
Cs 6.420695460629233 1.3345862546852327 3.4988286804640873
Cs 2.278461974590406 3.24126459037379 6.905870914273951
Cs 8.2821217721752 8.822992328248628 17.04787779568125
Cs 13.747511561199984 12.273884700492113 11.147775359204072
Cs 11.581916820020744 12.529282303261736 15.964444697277614
Cs 15.59748890270553 5.882367348828048 5.669361261659897
Cs 5.021980278680496 7.7455699795374775 9.088276539858501
Cs 4.988382290281103 6.508245775070349 3.79958571977141
Cs 0.0786231189117536 6.129966304056173 10.912575689709326
Cs 8.536988306170961 6.776263610720936 21.717510610433784
Cs 5.8477283995219125 13.213871634572513 15.64710579508129
Cs 8.307759694722549 10.897383546628687 11.83867757780647
Cs 15.12961214000426 11.030787796068287 6.364220313941864
Cs 13.200483154382928 8.8844037012365 1.7205974784772018
Cs 9.966402656770597 16.102590755881927 12.643392238345303
Cs 8.996407123456846 10.112334366219844 4.308055459084938
Cs 0.3477813798543121 8.570956542143557 6.1205671733594
Cs 1.9940481063789952 11.32172811306072 11.13625214335651
Cs 4.874302004288142 10.897383546628685 0.8918341007531894
Cs 9.955618115152998 14.054149486824583 7.879436704558685
Cs 4.445050841367735 12.1452404186636 6.369096028920083
Cs 5.283397319543547 15.51873751070589 10.628554142528134
Cs 9.54524812264555 12.151384490303965 20.876373472114512
Cs 12.360395238811241 14.044070860278635 3.105344870658365
Cs 7.330004712795927 15.687358382232913 3.527397086663202
