38
Energy = -27.28549053 eV
Cs 14.79684621230362 12.51339670554045 12.040457926926187
Cs 10.783316589146335 10.392710198081023 15.082284267961466
Cs 14.552762087065096 7.900738430941599 13.44863481548161
Cs 10.770173755902574 16.437937906940913 12.524501065797503
Cs 7.363260929792548 13.21445046186298 13.596473383301461
Cs 13.458790266078086 16.037032605015934 8.684281044389282
Cs 4.702231215160488 17.94386595960395 12.533821718046475
Cs 10.312882458440606 7.375794844538522 11.196026037588748
Cs 6.376181202145672 8.9026200447249 14.317535676234055
Cs 7.353077022354329 15.887278785989974 9.472234362764103
Cs 15.897415803939731 9.482953993281525 9.11469064847329
Cs 10.398158157694365 11.754181861495331 10.019459767286284
Cs 11.447508521769649 3.470058514193377 14.147003702770794
Cs 10.310680109314307 15.59856219092059 5.203681949411174
Cs 2.6443567340635243 11.852928014089612 11.9969574378938
Cs 6.6650763928557 3.7206659877278176 13.065139483105735
Cs 13.34695528765132 11.732342648700206 5.078151718300241
Cs 6.274471838143856 10.081951046436105 9.266461453309567
Cs 1.6030993617002816 15.895881022810084 9.428784304506594
Cs 13.99221763672578 4.1337203111548835 10.186627121277366
Cs 11.189664839122807 7.765096814561488 6.941606737903696
Cs 2.972363875254158 7.0275418372671865 10.59781458056645
Cs 17.973189051840837 9.763383416316943 4.116868942675264
Cs 4.760223692570085 13.762388214732713 5.212085672880582
Cs 0.7342860043109551 10.609814589774679 7.811924997861178
Cs 15.791058397832169 5.228013927803127 5.279006300967662
Cs 10.0276527309215 0.7391808972987128 10.59781458056645
Cs 7.129394160812001 5.046223567807762 8.015569392036836
Cs 8.844080628107287 10.386671877136052 4.011604957802071
Cs 12.681015294259126 8.03009878669705 1.8365694567941009
Cs 3.838135024141486 1.172478497218655 9.61791118127474
Cs 11.291563285640153 2.514757418334932 5.625278005721301
Cs 0.21508470885779016 5.341915710508163 7.080016326912342
Cs 3.999299284020357 8.443264445569055 4.533916028288342
Cs 8.56297576466568 5.600375774378373 2.660977924916418
Cs 7.611447138042942 20.334682269201338 5.886120462122401
Cs 2.5251057786828546 18.904555491896247 5.30809150925843
Cs 4.009892791001201 3.014661667038074 3.867433058326948
