32
Energy = -22.30678471 eV
Cs 12.99718970697564 5.7108860941187745 11.620359462939883
Cs 11.542419464348884 8.07650989320882 3.5959078203305563
Cs 7.624966447293876 14.628703950485264 23.37386736162256
Cs 1.7656911250651852 9.296627407051789 13.956692269871583
Cs 17.45542729033761 7.606811929634199 13.927628275993104
Cs 14.993684494724988 4.095573096289273 3.032732649140699
Cs 7.937113984499584 9.296627407051789 21.471268412229957
Cs 22.449806804793624 4.7828972126760565 12.86040873728512
Cs 4.25007411407474 7.026607942835388 6.709579614644867
Cs 14.063173335252847 15.319342231643596 3.2724243300046587
Cs 17.006286302608512 2.320074949574868 14.224862399769107
Cs 4.237065635082377 2.5805453285783817 12.601356804969065
Cs 18.606003541475193 3.5358589109311027 6.685030742468205
Cs 13.971789026255705 0.37361170323742304 7.085393358191731
Cs 5.457447223668218 21.75620956772545 14.775092814578548
Cs 12.188992673000445 18.881782492199584 6.954168130563723
Cs 6.298432966647162 6.678403797041402 15.73235619222
Cs 5.959534592961106 22.906440630984044 6.7966808250304895
Cs 16.70061859534975 8.40532265421704 5.764928601837672
Cs 15.311650156004374 14.930918631230737 9.079343452527844
Cs 4.100527873401143 8.183984184139641 0.9425218694299989
Cs 5.93771195761811 15.60779559335761 3.908089609527527
Cs 12.073168611432264 18.06979712846551 14.921429191533951
Cs 1.3373527648384118 13.958843312138752 6.122426109416763
Cs 3.513482534081843 8.897220823123845 20.06781063892479
Cs 12.979960834913822 13.156287826277874 17.069018482122395
Cs 7.468264935898429 13.571717560827922 11.653540693720071
Cs 7.142694595813472 3.061489142389996 4.703367831996186
Cs 5.096253780769775 15.391536926439159 16.562511211987285
Cs 4.235254684055761 17.797799588202096 8.724438691149436
Cs 11.766303877118276 1.0745995843314962 14.652059944840579
Cs 14.049323190904463 5.186776260666252 17.524672396509377
