38
Energy = -26.94616162 eV
Cs 19.114949168922433 17.318099121472805 8.324210139523498
Cs 15.987848906219941 13.389990886700645 5.782425277164261
Cs 18.273193152359248 12.445453790950438 10.78658556980816
Cs 15.304606318002879 8.741031889128887 7.524399269997639
Cs 13.104095000094418 10.238921331392016 2.3889748959599886
Cs 16.660196305255326 17.460913971337714 12.45661152841306
Cs 13.51867668543234 17.48538750615112 8.465313523160685
Cs 16.539788347540064 8.072142272547923 12.442172590047125
Cs 10.763316289225056 6.579145727006417 21.113981989916105
Cs 12.434237905489134 5.22624263754802 4.676261915873705
Cs 10.763316289225056 13.990188777074433 4.859825413199233
Cs 12.593246779662891 12.32085308834145 10.372096904928467
Cs 14.760837766709972 12.86035533190791 14.895504755631434
Cs 14.603520511443698 3.438934835537849 9.555094896041519
Cs 13.745269598904674 4.10224322480822 14.683240126746798
Cs 7.245970509336932 6.045996222135107 3.7274170824451485
Cs 8.076852491712469 10.808427206921655 1.4235361049079887
Cs 11.494236818871938 17.200707289889355 13.399356267827994
Cs 8.723741851377186 15.826481511545488 9.441120933888985
Cs 11.083847615560202 7.238662287056727 10.948568646691893
Cs 5.76329341390605 14.609884116729589 5.2149489744731845
Cs 9.9378394440436 9.440901711519398 6.5599719993484875
Cs 10.45145536594852 1.06263270319021 12.553709991312841
Cs 9.536027790141821 12.71700260735975 15.430620738269187
Cs 9.435876707139796 3.1509633689145717 8.069069022122799
Cs 7.101486209360704 10.519559825795794 10.79814725384952
Cs 12.15820795956573 8.757454261675473 16.38015235562889
Cs 4.381644985750917 10.22241905687987 6.146524230642229
Cs 7.0077907688188334 8.818712438566505 17.925514750156495
Cs 6.298554069247919 16.921594210375062 13.65134016075113
Cs 4.950656852983847 5.754743475727381 8.771452375033602
Cs 6.705959820251428 5.480467847936357 13.536261297919367
Cs 3.0343219029333826 14.234938599427002 9.956243446079645
Cs 3.9647668867376558 12.025881697400942 14.890566481164546
Cs 1.6712062346909882 9.405735352031087 10.825179032106167
Cs 5.346812949119668 0.4723961749514235 10.811705696870417
Cs 2.0952230351546954 7.396762218279485 15.961191335631801
Cs 1.1385694743140227 3.9892136052406517 12.020452858373982
