37
Energy = -26.01252238 eV
Cs 2.2102863031525506 13.129494495463552 14.801750629837105
Cs 0.5739766304638618 8.457040906587908 12.70496114593198
Cs 2.050231993527985 12.9899589431758 9.694575599406626
Cs 6.649689760207206 15.490442855009555 12.715474299254218
Cs 6.2434247517599495 16.29028680866658 7.506644679348692
Cs 3.6231295167499824 8.718140673774046 17.154156925425937
Cs 3.8835676756165194 7.491272417797421 8.885734224162363
Cs 7.192479111298525 12.577196693550318 17.419901482524867
Cs 10.80458194740034 17.571348859088555 10.512766651551335
Cs 5.275340174414509 11.440210837799023 5.5710589257769385
Cs 6.230257169714532 10.52990770482594 12.4092834204954
Cs 9.837658896466865 19.479619203129722 5.552290299570601
Cs 5.970458994398901 5.439107792554481 13.810567188564532
Cs 9.2825905921203 14.3818698833835 3.3477992658669513
Cs 6.672576692822757 6.528404965676586 4.586375519727675
Cs 11.460244412804812 14.798716816195006 15.070615032130759
Cs 9.990445715576032 12.435340812474228 8.770665480193825
Cs 8.58404256340685 7.479557093938819 18.433127674151052
Cs 11.078749973880267 9.713973222248493 14.222829424069216
Cs 13.540751141319912 15.890946527949565 6.268539166509944
Cs 9.030382539349073 9.699339969972558 0.7022194775195477
Cs 9.280688766830295 6.937053908916339 9.726211319160498
Cs 11.242778933174668 4.453025207067979 14.107546090811407
Cs 13.695375552464519 11.48320284311193 3.316061654528145
Cs 14.92362345718346 14.374590169211064 11.255675686650328
Cs 13.671492666902376 7.112182109098995 18.531626048403204
Cs 14.254160528446306 9.555386145587928 9.730229493045591
Cs 11.858470202098113 11.875861697482927 19.911669851341912
Cs 11.727645738781472 7.230213599192096 5.161371452689226
Cs 15.733952438452599 11.440210837799025 15.879552885135785
Cs 16.172623799139107 6.538261265731299 13.962728176773224
Cs 14.098036173034517 4.335480327683331 9.45036840067911
Cs 17.829811980866054 12.703136142900187 6.82779841588919
Cs 17.001549154361744 7.634218943745799 5.679250068027478
Cs 19.351224442338562 11.115531929527467 11.617420988937345
Cs 19.481866192722034 6.006177541390914 10.127657184270205
Cs 22.26728263205331 9.448739063592088 7.348944986938636
