39
Energy = -27.54442945 eV
Cs 11.491711155358196 16.122266123386897 8.266134448757455
Cs 8.72882441714348 13.255095613167471 14.879249389171232
Cs 16.665467655306557 15.704934504654435 9.881349841823477
Cs 7.466815602733087 17.327359038051927 11.35986370508774
Cs 13.546735285958594 11.921872413812775 16.517249337786776
Cs 15.054275403912252 10.975373421064827 11.226824004084392
Cs 15.297262545378274 14.520744989305214 5.035230272387818
Cs 2.8480233537613575 15.71321795551322 8.529909195824027
Cs 5.223677839516804 10.004793745324527 16.019077994696524
Cs 7.599228428190722 12.586558147731814 9.475723074290167
Cs 18.555334166872804 10.971441321780661 6.911821077035719
Cs 10.357490214687813 8.93647866796974 12.527247780268299
Cs 1.3593955212493083 8.26136299698579 12.721232539741113
Cs 14.794946320772903 7.309106623247352 15.167398654334328
Cs 3.642828426516538 13.264515673695117 12.735255971099912
Cs 11.24549938297334 3.8011280944763635 15.170363517249811
Cs 10.037957186771092 8.399485434773135 17.73732877376533
Cs 7.182465430434662 17.327965725402365 6.098557983515514
Cs 6.236272287817575 5.280462472111509 14.778095172615018
Cs 2.9875237288990504 2.9825836293857395 11.386360433121297
Cs 12.453237547083594 15.835945469093675 13.006134907961977
Cs 18.96598182179571 10.428522744034213 15.306238741274614
Cs 8.54288506968846 2.5932307494726907 11.10220480339538
Cs 5.954367171054607 7.595089344187354 10.054606595034494
Cs 1.9183774754299125 10.782883216087296 8.242571274160193
Cs 13.402263975495693 5.148327011628462 10.86531075394075
Cs 11.643647464019095 10.586545297095757 7.568492995022529
Cs 0.629204515493465 5.75897693130942 7.957993198148868
Cs 17.472990182805322 15.148547628302184 14.753809021130051
Cs 10.530133426363752 13.920110361506723 3.4542231071864267
Cs 5.614578422407935 12.410159202646641 4.515737870339172
Cs 18.823594068083832 7.591193572336719 10.96350911638235
Cs 5.158499260060247 2.714958120448103 6.932470625312822
Cs 9.611789107260376 8.96705783477372 2.9675153448702507
Cs 14.495120496855932 10.294669154903794 2.9554777709192814
Cs 10.020346897238802 5.562148311666584 6.926334518020489
Cs 20.856628559230547 12.610706709443434 11.10220480339538
Cs 5.019814969750684 7.476835688389461 4.88020190185361
Cs 15.319057132925614 6.661597978131831 6.503340730214669
