37
Energy = -26.4079234 eV
Cs 10.37407185874233 0.5725189032929303 7.6366498878751505
Cs 7.675725414093428 7.791329163566288 5.209322356829466
Cs 10.827053447273174 16.102574949381538 6.113520538110229
Cs 1.1686068585839795 4.087163179777191 10.008762621852517
Cs 8.514241134136228 7.3216962932568945 20.920941821918905
Cs 12.477224254296614 7.935198687009151 3.1484984635548634
Cs 14.184989833845524 4.107281209789259 6.438347222933543
Cs 1.3699720166332765 7.099588376982818 5.872998415640089
Cs 16.001242294248343 14.36051928828709 7.750756021499959
Cs 4.247085411350831 5.324572771509394 1.8192819429388445
Cs 4.092669555316184 10.641765442839246 2.7556812998100253
Cs 8.60688589035836 6.170633369518987 14.771830721191685
Cs 9.839243394443494 3.4447470161317297 3.072824979870189
Cs 0.8465685918933987 11.519433117648544 7.510686555471696
Cs 10.374071858742326 6.39398008049039 9.404646488566584
Cs 8.054259567618626 14.773490793115267 14.610430361925395
Cs 9.53445854877456 10.689504203308184 17.758173516024964
Cs 13.169455410702351 12.765986183895485 15.227796636596675
Cs 0.02835060043377914 9.021567102087172 11.506576255526996
Cs 7.366947806723516 17.09075380663794 10.087709079289972
Cs 15.598808068889536 10.677742425242466 11.091907463241235
Cs 16.80562569087712 5.744898144803734 10.547730145405872
Cs 11.66430823305459 10.94198266648597 7.51071911987194
Cs 12.318732756398418 2.778737834849077 11.92405568877748
Cs 4.7941066838846 10.11457421952203 15.45204635648835
Cs 12.016340535566982 15.445149207617852 10.933142681234612
Cs 3.8663451782353215 12.999392429728742 11.489734002515533
Cs 5.061289374974004 7.942097659253118 10.084961041456857
Cs 13.132000271771265 7.777151680335869 14.459613605422279
Cs 9.404127966881399 10.648402453096486 11.921570939313147
Cs 14.194719193523751 12.600339693179654 3.0524950881269906
Cs 9.295181905165393 11.782322900871725 2.3363549805621773
Cs 5.482457804109192 2.9088327568074983 6.451307375232975
Cs 6.953792307301928 2.480510369516192 11.09919354408802
Cs 6.683863902075152 12.470464706561911 7.23660126260636
Cs 3.4283299262369566 5.221407831324385 14.343807148112942
Cs 17.067773652708272 9.264410392923553 6.66801946634851
