39
Energy = -27.63511914 eV
Cs 18.758628343755117 14.690928751786105 12.059015375019172
Cs 15.592120251167872 13.279841902985092 16.115266087123874
Cs 18.50273709687366 9.835661796998794 14.130436456079957
Cs 13.282505077962783 16.69579187759386 12.751943411341413
Cs 20.427389982058013 5.851769100458628 11.308675246137115
Cs 8.667129456601375 18.727807040525978 13.689048912439652
Cs 10.719313252475827 13.854072662517517 16.265080849539597
Cs 18.14917045039077 10.700263061153672 9.33405818764541
Cs 12.74845081503857 8.964548979577051 15.99643408413038
Cs 15.095495164137871 6.112022509248567 11.942647348255132
Cs 14.898177072690464 14.915653313373529 8.386385837212933
Cs 12.858588354260847 10.999703458494125 11.308675246137115
Cs 10.707964322227669 18.439550180458824 8.798197297070862
Cs 16.937585246642975 1.622380879479761 10.036027900086827
Cs 8.805769154001544 10.317771550684254 19.3643311990588
Cs 17.19839278561673 5.949746305830318 6.771470601351713
Cs 11.663648599239345 5.946506049114887 8.247980086289093
Cs 5.546268792741477 14.350757669052578 16.13089743949912
Cs 6.2175253813302955 21.17155386557934 10.151205274538258
Cs 7.593255815195479 9.885132974615896 14.246842935370468
Cs 13.802727338367653 1.4748113017139073 5.95799598715939
Cs 8.296220020799733 14.100093034214488 11.384592285145814
Cs 3.2483703888298114 17.095073835979033 12.213876595193492
Cs 13.151891771327676 5.9485517352629085 2.996919125774484
Cs 10.152249652430838 5.564238309830688 13.046090782771415
Cs 13.736766622983009 10.321669329528492 6.131303989881671
Cs 7.956416647846931 9.309801083238282 9.403467851714534
Cs 10.031769287096333 13.437119038797059 6.6292163570014875
Cs 5.536277746015843 16.40773364513508 7.8460106648461
Cs 11.252228781652281 0.9144220507263777 10.586689616883271
Cs 2.845762522197599 11.680145361067144 11.662165764289513
Cs 9.064901403049904 3.1266588489066582 4.758875936329626
Cs 9.069708536935131 8.790170303252797 4.0632803254014735
Cs 3.385450515336671 6.7926235197931275 11.379374666463626
Cs 4.7202654236038715 11.525886403033317 6.25023381422458
Cs 0.12957879965644767 14.500512030161271 8.398929762804809
Cs 7.0556900370224955 3.7921886868461554 9.490168353749437
Cs 4.6130899825252625 6.487180228134824 5.828351262769394
Cs 0.38577184260622926 9.22491005954158 7.743089817960899
