34
Energy = -23.67167764 eV
Cs 16.402825316767927 15.611574113896637 2.809129610631555
Cs 12.702144640410475 17.03936725213132 7.020471473313314
Cs 2.8442653466544527 7.962972415652322 2.2746397139489796
Cs 8.165546104948541 13.22848335914913 6.552697836777194
Cs 15.035910680369593 12.405358552152842 6.72478381614494
Cs 17.109823644232698 10.170113411438829 12.059733792831453
Cs 10.741027200181913 13.46979947696927 16.74855888487676
Cs 18.96035300046591 12.105179839036989 23.189152789233997
Cs 4.217829906676023 6.442604130700071 12.894436629587483
Cs 11.62560694042125 13.940877079948685 2.1606540604203563
Cs 12.141683085340736 7.300757802521614 6.61136913763291
Cs 14.884702911502067 8.806504432821477 1.6969782390265724
Cs 20.828030962333006 6.884786060887635 2.035144934963942
Cs 20.753045846629934 12.251263258693305 5.312133605628882
Cs 5.027823696774081 12.579666118306148 11.608712311425396
Cs 6.249714736762395 10.170113411438829 16.507314274324138
Cs 13.78495714105222 7.060680840823885 15.55547995180469
Cs 8.919506719901346 16.071352337121436 12.1772229738309
Cs 8.231338122946308 5.386686054789885 16.522570767913415
Cs 8.970586740646159 4.487816140736113 11.437843569110518
Cs 14.765059694446986 14.8646331780123 12.751057487774839
Cs 8.688014860046192 8.002966254043518 1.890004903994661
Cs 5.707285899224436 7.770887822981751 7.048985968663639
Cs 14.985187909752986 4.585267056467958 10.141047196713217
Cs 10.951566842533294 9.742492228160106 12.303557744298999
Cs 17.989974807836635 6.864546174997484 6.403803634312321
Cs 0.03389851937280829 9.966581717852918 10.977511402942065
Cs 5.701265268010195 13.206810883939534 1.3942168498089291
Cs 14.364075311522008 14.322302664052657 21.304817451274733
Cs 0.2524537363098763 6.369642934814301 6.491510647419462
Cs 5.562914120072807 7.684000988156906 21.120931671042037
Cs 11.79658637309526 8.554060510987036 20.3048846069657
Cs 16.703270063826402 11.885845943143028 17.403908864412664
Cs 2.5525904176242755 12.973572041924722 5.829117132653608
