32
Energy = -23.03329062 eV
Cs 17.389373253453684 7.706559353674319 10.64423316886693
Cs 15.47461883298835 4.429689668162341 6.987059081517991
Cs 12.79495480714036 4.974253993676028 11.858350013029636
Cs 17.64602204337272 8.859647625437452 5.004200691709865
Cs 15.62394879067529 12.504043469931347 8.471169090306395
Cs 8.482409041914316 2.1583115857445745 12.405058440312287
Cs 9.972923418070298 6.468634825042886 16.817943135568996
Cs 13.046743011921098 10.11281564437619 12.91662299810872
Cs 8.218362960618308 4.840331880613228 0.3776873317154289
Cs 12.252182013203234 8.633920224047994 7.577517825259276
Cs 8.874807852437677 4.438692896657088 7.528390469419693
Cs 8.887958510009677 12.121631133841724 15.473427824302297
Cs 12.795086911342135 6.572749907708061 2.5587574867556184
Cs 7.784395331694383 7.562879784505788 12.250058425283418
Cs 13.61725719845323 11.724825024533393 3.0920909860988868
Cs 5.10927124960663 4.43405607043087 16.01802358112913
Cs 9.019121037232367 12.392679687530023 9.811589813410496
Cs 9.69810680926771 10.112815644376191 20.87753370820641
Cs 9.428658168621286 13.882783873110798 4.6482204217273715
Cs 4.905321448188092 9.5725920825054 17.143176061352577
Cs 7.806299360156329 8.860237425525396 4.427624292573357
Cs 3.9143577377559384 3.095283595534342 10.250156791661164
Cs 4.4430623189339435 8.095248873555482 8.359231522867015
Cs 4.176062460195102 4.428181354447844 4.449138508553841
Cs 4.044170522412978 12.117223113915916 12.256010242883288
Cs 3.544688133258496 6.851542100203278 21.315873805660836
Cs 4.571718816925495 13.197222859388793 6.736228658789077
Cs 5.121213169396905 12.108156129887236 1.066266898076266
Cs 1.503917692701495 7.2717168588589765 12.793194251554649
Cs 21.14453784130183 5.389213474553152 7.532960063054349
Cs 1.5624190693757747 9.43802490896403 3.9741765001935656
Cs 21.15006093375187 11.176930930156717 8.88839470137429
