37
Energy = -26.29706857 eV
Cs 16.929447340830404 9.052412424149361 3.8207154722528562
Cs 16.352130002292064 7.817367846042804 9.314953999224045
Cs 12.802109446187112 5.5894101911410194 5.324483278436997
Cs 18.942854049884193 12.104226860960354 7.817678780112998
Cs 14.869520473616983 13.878297414532426 4.368074963181312
Cs 8.228852958612894 6.665040503517335 3.253057719512331
Cs 11.968653229001726 9.997235735413037 1.9060052705154873
Cs 12.06406996636524 4.544647002819588 10.624032040479252
Cs 17.761282967582606 11.145697990651739 13.085544563338821
Cs 14.296180594219084 14.020289361041971 10.380253508862566
Cs 15.520518755127231 6.970107751202362 14.883727359507473
Cs 11.988528905659305 10.647461071471922 7.241571739055163
Cs 11.694013050006053 9.623754148238032 12.37879965566737
Cs 8.498303950092883 2.4379153573295542 6.83717866011087
Cs 10.273063903722282 14.585065274727441 1.914207985608097
Cs 10.869435915377895 16.07650838464583 7.0819629661441645
Cs 13.837320296622526 5.972461015379721 20.752935506145466
Cs 13.224939225127704 13.464216459774187 15.560065237113495
Cs 7.377514825702575 11.296160307274285 5.017960384409
Cs 16.19478002314146 10.542267486176259 19.045610848548925
Cs 6.042872406043711 16.479931912044467 4.956155308523359
Cs 7.91200430775718 7.510037060506641 8.882063126665994
Cs 7.762355865525269 12.789814007002395 10.124076931401847
Cs 3.9436322860269946 5.168053722374168 6.011489295775334
Cs 3.271915375545885 0.9408149185054961 9.282597609545952
Cs 10.893966872041654 4.500411342792555 15.666646980532455
Cs 7.394714334984698 2.5976239880868106 11.967526322060971
Cs 2.5836456511604355 10.020393690892455 7.386643080734594
Cs 2.4719451253155227 14.920983698071545 8.746790898249921
Cs 10.286479200392375 16.760905266218867 12.664996262090359
Cs 10.869435915377897 9.3020018016974 17.862550983185873
Cs 6.700627323678155 18.840089233181484 9.546846390138773
Cs 2.73322135156053 6.02269382005496 10.976650508397125
Cs 7.088073465315639 7.6673495591652605 14.006403821381964
Cs 3.1161126263336483 11.008769459277099 12.501483210354957
Cs 4.666268467069158 16.095844656756476 13.224001844866434
Cs 7.947974186249908 12.5348797616636 15.387773817878008
