38
Energy = -26.87659668 eV
Cs 7.051752090488119 13.783283974051052 17.000489062938033
Cs 11.819101705103792 12.854189733928283 15.422800555705813
Cs 8.867440669265926 9.300631668005392 17.797786204939946
Cs 13.54083801375819 8.44430289004159 16.988016900127086
Cs 9.382688650713737 16.97707211201672 13.027013954458385
Cs 4.077219937215748 10.420972083172591 14.344592248348771
Cs 4.3552236331722955 15.125622973383646 12.361803063696296
Cs 14.338143189639423 10.184311481371791 11.700460760976684
Cs 10.166449371790206 7.642031109542773 12.915681411153992
Cs 5.677514307236637 5.534701043491601 16.35340298770793
Cs 8.343175095741511 11.800810922482409 12.227653665923405
Cs 12.213384991934275 14.187078371343832 10.057403974867077
Cs 10.695364518871552 4.07424317594883 17.134235844390698
Cs 13.550347648738233 4.480278505987196 12.755025160427797
Cs 7.6549801926814975 15.147368098442536 8.473886895566325
Cs 0.88780446716971 7.132319403791683 8.856104532614983
Cs 5.532684235263022 6.622862385732262 11.2551023434555
Cs 3.9373728480820107 11.154523347560914 9.243529476172519
Cs 8.45643212221114 2.351163204204516 12.732483019532943
Cs 0.4934242687387184 10.87950337534251 5.036690892870398
Cs 10.036289158223502 10.275742541489349 8.47428571974631
Cs 10.185110725242277 4.597866265792415 8.743875803418929
Cs 5.937258949887375 8.152691589904316 5.641205927640934
Cs 14.762231083629068 6.584682517486327 8.454828355577051
Cs 5.654135601615346 12.606249774243427 4.23557875810198
Cs 4.8550647487907534 3.302796710847595 6.983609352012808
Cs 1.1814657445771994 5.781154347160495 3.7953023852207775
Cs 11.039926637724855 7.656531757739123 4.506114112808804
Cs 14.883202052482455 10.879503375342512 6.211686785128388
Cs 13.698156716321318 2.8890336598637076 4.862711226475295
Cs 9.138716497163573 2.199199180349866 4.180455442184982
Cs 10.957984935728089 13.146974559035984 4.487478742113844
Cs 3.4267615564452143 9.52851727871235 0.5205152899161934
Cs 6.460162510823837 5.300186062000679 0.8780703994589136
Cs 16.61302113789241 6.89254715788666 3.164987511985216
Cs 8.711993356869597 10.196746768073913 0.9065067734590612
Cs 11.434145380082631 5.279534785903663 0.2104275790298671
Cs 13.424303400106895 10.441027464209524 0.3857213479203593
