39
Energy = -27.49387853 eV
Cs 4.778793341647711 12.025750727546969 6.140984539413246
Cs 9.511150500842819 12.167683665411884 9.212743083084868
Cs 7.220350428240236 12.432186787142786 1.1772305396589775
Cs 5.082611237223435 14.417917208888689 11.247406438291982
Cs 13.249882767485504 14.292619125586752 6.6731672674556295
Cs 10.97956427005112 10.9548110850468 4.291997939677386
Cs 3.6124406441941224 9.21411328227787 1.9870180601550416
Cs 1.2142228350762867 11.51893190947957 13.648564691204236
Cs 10.439610957362381 11.510257592982597 13.530015748170364
Cs 5.204996789788813 9.747322935850551 11.103554682462443
Cs 8.431225427302746 7.625988838451165 0.3921208498781849
Cs 11.530919576784333 8.149604910726875 9.369593383056118
Cs 9.07820385057285 8.58468829118395 17.249337380189868
Cs 15.811942832692834 9.907763271631916 6.414351818235291
Cs 5.8937299840356845 12.30698079272341 15.939817627959444
Cs 16.899332560296806 6.968455190096654 10.688418221037564
Cs 14.623684992360213 11.617125679636864 11.228947157508602
Cs 0.11852140294397114 11.371236372774803 9.102107195946095
Cs 13.526631553740858 8.26165558179242 14.198227479394207
Cs 11.292452799991445 4.14239768042179 16.434520368451622
Cs 8.557685735821183 15.651202211932596 5.482474388214977
Cs 15.270220451485278 12.039164404746955 1.8651360043898189
Cs 13.007098301096667 3.4238697616255696 11.480554800200705
Cs 8.568908689887783 6.413375058295992 12.454654486901221
Cs 3.8875502288922537 7.912789885868312 15.789251696048796
Cs 14.256358114320053 4.655300403969677 6.561597797823606
Cs 7.50688969252913 7.779877591251692 6.421036657483996
Cs 6.8082117924922825 3.878572965848013 17.979177629658388
Cs 11.514332773886867 15.405788829903198 1.5933734122717726
Cs 1.8579922864825695 7.5657499736878515 6.615649822309918
Cs 0.6700257661077195 7.068301595530209 11.24740643829198
Cs 13.534933470699807 7.501118849189908 1.852210111189335
Cs 8.582724533537709 1.218808501219415 12.723694278101718
Cs 4.812995292961979 3.9961708229356145 9.198249455941985
Cs 5.220876909039352 4.28104327626204 3.474417588430281
Cs 9.768752215894258 3.07987298640898 8.301883520278375
Cs 11.136942338337079 11.126722686294743 20.46865590491917
Cs 3.8380959738604905 3.222234583656676 13.647354241583585
Cs 10.58389786564574 3.9961861092637783 3.3328615326874265
