49
Energy = -34.83090413 eV
Cs 20.88991823817264 14.816011539161574 23.55842055391636
Cs 21.282021203760145 13.483857521098333 10.855301913855298
Cs 16.154498881627788 17.618168382685106 24.3239848992953
Cs 20.903975768082955 8.05822761666412 11.492871196845712
Cs 11.835090539580893 23.959138889049825 18.823085355160497
Cs 19.249991064789647 19.59299526507821 15.886999003432242
Cs 21.298955854502548 23.930661382177494 19.03500620145885
Cs 12.8270843700066 10.826672103453186 13.482926534913979
Cs 14.017992819600682 28.207325246958177 16.272262800470862
Cs 15.339702394246977 11.119146612726395 18.656375112238365
Cs 16.670594210238434 26.461451657401923 20.777744641654287
Cs 8.868334368650007 14.834265029989899 13.48165161789211
Cs 16.796468829181737 26.611325687615437 11.89480670885884
Cs 17.20911162022552 16.659050746469557 8.32073700712308
Cs 16.554550696272706 11.79152379986955 23.828302592243354
Cs 12.346647384030538 8.475510570175667 22.122645713502326
Cs 12.145153409596915 13.998550573293015 22.071928051010524
Cs 21.570495898377 18.637710645048763 11.385985678920186
Cs 24.61112107507104 14.818631073328856 19.19058241341983
Cs 21.565416664310522 18.92558579404042 20.76450512894256
Cs 7.944124537825449 15.733179133641462 18.78652104152342
Cs 13.775354655895878 23.01551043451429 23.825359745997698
Cs 17.98343726995396 11.145435242455683 14.540415807177148
Cs 19.556171087986623 28.192864349021335 16.279625307322018
Cs 21.427380204773293 23.94295735977844 13.504795574909581
Cs 20.745804439522143 15.079793268703032 16.12183187847549
Cs 13.967488934856469 19.62455290451896 15.883263410099005
Cs 9.938236253902557 10.730604784974702 17.930962534458512
Cs 12.162751092012677 23.95425082543485 13.350770176721847
Cs 25.398622914788405 15.465513695477194 13.762414210669693
Cs 20.494642762105897 11.112080093674882 19.839765158165743
Cs 16.682117132503453 11.113072507168196 9.40450470137889
Cs 11.897477835428427 18.908672701945715 11.132267712071299
Cs 24.345011630552488 19.9058473042896 16.283012535985605
Cs 16.289102597398188 15.77786885003367 13.131556028125068
Cs 8.881748327301139 19.96991129183384 15.73603309027989
Cs 16.785149919127644 21.18263396313301 11.379827736793606
Cs 12.707303001143767 15.070204686576382 16.685801352667166
Cs 16.677663295380402 23.91548728771765 16.15887677136794
Cs 23.409834560733618 10.598740720389621 15.341071399232147
Cs 19.156944252144207 22.74803331386129 24.071638450019783
Cs 15.880364894939568 6.618314143397576 12.321665921357281
Cs 19.433071991752247 6.72632553890023 16.5516677594175
Cs 11.764222874688189 18.942477352517823 20.75178248531472
Cs 17.065975028178965 15.760329568452304 19.59111687603289
Cs 16.655954421196583 20.89668974910876 20.125957810257404
Cs 12.485652098945646 14.17809614946017 9.403736132137482
Cs 17.328674698137224 7.002242348876123 21.426432225019603
Cs 13.750206496497732 6.590114793856796 17.17881754186519
