48
Energy = -34.32888538 eV
Cs 2.706940596935098 2.971295134082218 3.715496550346018
Cs 2.1659048703074655 3.2197286579696796 8.851413321092371
Cs 1.7723824258776197 7.795851060812213 5.166724169150261
Cs 5.173166154999826 7.540941308211939 1.2595912763863246
Cs 7.402890830888041 2.4341790213862615 1.6604213419184939
Cs 6.482756802863973 0.10523463493606255 6.744873655307324
Cs 22.351793275660953 7.408315223748013 9.357255877830186
Cs 1.6449454630236684 5.034537893424887 13.739781547380403
Cs 2.830519994173552 12.447441990016866 3.2192379048575046
Cs 6.760396326630668 5.307552908187445 6.609299700202979
Cs 6.3537234381921985 2.446703782950882 11.767601496542762
Cs 10.290619732676086 7.024140316036375 1.774720188714826
Cs 8.443032266870363 11.738318984222625 1.579149659954063
Cs 11.602432983340458 2.1907875085698953 4.6736842601982165
Cs 23.16743599865886 10.035251536245939 13.626430379097856
Cs 0.88876830241033 11.927051788003572 8.442757274414271
Cs 6.333407987997786 10.539765437751681 6.356500710331303
Cs 4.248124125236749 8.301882501768057 10.62831073125008
Cs 11.185079626161063 2.5628639398487527 9.657060569272657
Cs 4.786595016120545 9.347368034514874 15.831329437803415
Cs 6.372430468079143 16.511623943850974 2.97279926917995
Cs 13.600950366278417 11.564981074386244 3.989608791571762
Cs 11.080851402225177 8.449413279114603 7.270493985513384
Cs 6.363555048635026 4.408506778509172 16.39020847169493
Cs 10.034423439838124 14.14656454585431 6.608163060946372
Cs 4.01729131437198 13.341874085979263 12.558924713120286
Cs 8.86189030188577 7.136328679530487 12.172782742614302
Cs 11.44444083715874 16.215144294521544 1.795304644758768
Cs 14.773693661766092 6.33814603448525 4.282422270832305
Cs 5.171814315647124 15.426141404920761 8.024287863889539
Cs 14.260849821786518 6.849952226753944 10.814898479176213
Cs 16.3477506607309 2.9738499677823325 7.813359368610259
Cs 13.98762930317536 12.44976402717872 9.578479510381706
Cs 17.783030833061577 9.100368488534668 7.535901023468638
Cs 9.623208144218028 8.308193838485254 18.225908021190442
Cs 8.95793482749581 11.910747884212185 11.069124019119668
Cs 11.463213846153293 3.8863293683146187 15.056574684058793
Cs 14.666274668610203 16.366890934860958 5.604024739007342
Cs 15.428880871801772 1.7725092335172365 12.714864480347451
Cs 9.76953063312982 19.368943404204824 6.364518849132993
Cs 8.438391239158454 13.089239898656292 15.96506619057409
Cs 12.970502088776765 18.471157744476397 10.149995834310875
Cs 8.334677313822443 17.138935264269467 11.767601496542763
Cs 19.372664558343416 5.164793294108958 12.194869967159079
Cs 12.68003126580368 10.141748775266203 14.291182278645222
Cs 18.035354563113867 10.525593203114193 12.458761197108267
Cs 15.974765999907001 6.479302544880428 15.851831552438675
Cs 12.71466030975596 15.192759712055619 13.974182589677008
