46
Energy = -33.11316359 eV
Cs 22.174587615440924 9.782832828952131 6.147224685692015
Cs 7.747155774198967 6.412371414210279 21.08989014113109
Cs 6.420407758288873 2.5204764113102955 1.9764403313052894
Cs 3.720921883280961 7.504536401767879 2.7662413880998686
Cs 0.15502261977661017 6.693339156349648 10.69588098123698
Cs 0.7024745105837698 4.18446256035274 6.049436527414922
Cs 1.577309610006361 12.21628043353335 10.458127297935615
Cs 7.624223484055206 11.10336042381603 1.0276999489856102
Cs 4.152120518763306 12.572760854737325 5.209141709365662
Cs 5.746851343823938 2.944607298829254 6.968362023718231
Cs 11.496711312387056 3.293654133039067 0.8981281537844635
Cs 12.31866277882669 8.433356764570803 22.043627687677795
Cs 4.500780253371779 8.060352391506443 7.818006422592712
Cs 11.003792296358261 1.5962914565030726 6.011497474840403
Cs 8.980285065191593 15.536763072230183 5.068054401821516
Cs 8.86230539532278 6.9405747935871265 3.9807125567750923
Cs 1.9602692587186101 4.149781579469619 15.292325191430727
Cs 1.4522040382448336 9.345135721179247 14.631611339648746
Cs 2.509574677495324 1.3113029347810037 10.868566781611358
Cs 5.892927754752587 15.42493715475158 9.524647362078673
Cs 8.900200356351279 11.103360423816031 7.246790514474266
Cs 12.193970541453403 11.496490201263196 3.555965648537603
Cs 10.87234389165578 18.500758119271268 9.520896581065376
Cs 8.563493771437635 0.4724641258531381 10.749826827137293
Cs 5.628884161259555 5.253789727799525 11.885887479179877
Cs 7.647593429654501 17.611679978298692 13.93211932995902
Cs 14.09498575297625 14.801173812408988 7.039146729407796
Cs 13.927932804348885 6.275397016466171 4.698679741913339
Cs 6.698292835512923 10.59720921605106 11.768529085227229
Cs 9.792503820328392 6.146542860808289 9.243803396780255
Cs 11.00305429460525 13.660112547836018 11.236542620354571
Cs 6.271540767512987 0.7653432079757796 15.263375849035162
Cs 4.503263841499303 13.518991984174667 15.14210431907063
Cs 17.137974665077724 10.693751390495834 4.543659881812663
Cs 13.834375154268573 9.80181465413789 8.99748959186085
Cs 12.460220744132288 17.166073369048302 15.14245509667007
Cs 6.547720571351919 8.040983682854272 16.236464854813633
Cs 15.898681949910559 16.624527685152824 11.30196290497832
Cs 10.570982505643336 3.735021808859892 14.477916464706677
Cs 11.779031981613407 8.70956428577156 13.64935051383126
Cs 14.186067654221363 4.525222152873482 10.593226899090928
Cs 9.641807013473127 12.733313984883331 16.500983704996806
Cs 18.554177898930785 11.837589624814028 9.707638154582495
Cs 18.310715611337102 6.495207200492999 7.823429232525497
Cs 15.167841722444157 12.457023338592982 14.322048604741598
Cs 17.64382302909181 8.02609865019278 12.905427377447433
