46
Energy = -32.9993184 eV
Cs 19.201944917295204 5.328591088911692 11.629978633496043
Cs 16.84845496530175 8.633722111323504 15.476744637948006
Cs 14.780416265160927 2.431412234277466 13.550923448118317
Cs 16.014139037728317 2.106898616464673 7.932280924590027
Cs 16.28745383178945 3.4045875112538875 2.577516828630646
Cs 13.079506450649351 10.868782279114177 20.297259704063823
Cs 13.262093153023123 5.4517696044243635 17.851997122784887
Cs 19.0509431946033 10.69604253392566 10.018625823039008
Cs 18.222041134634136 6.862275495464203 6.151895347479685
Cs 14.209047174643318 7.001136700793147 10.826857951784746
Cs 7.935572324501565 18.913791068312758 18.771226347355864
Cs 11.55108346098561 15.967247819619962 15.80143400077309
Cs 8.211173846064124 7.805680644733638 19.219752200829788
Cs 9.040035052656618 4.791927448120807 14.228324604458011
Cs 15.59145931070882 13.556326176992767 13.26190331702522
Cs 10.844823535285217 10.036955449590746 15.080212702558036
Cs 10.206757598123177 2.0991048355550124 9.458367242299555
Cs 18.250849166868836 12.322846865089561 4.648950849903121
Cs 16.136575085621182 16.01938178781843 8.093400795510908
Cs 11.267930973105834 4.907026924838221 23.45839768867668
Cs 11.916962263082755 0.6505449921931172 4.370520520083667
Cs 7.960044070629407 13.562384206700798 19.61189176677137
Cs 15.358528607331124 8.62794097995413 1.3655231092272402
Cs 12.434998558016446 20.029537811448403 11.32579795394741
Cs 3.5650155837371638 10.72197979444565 18.107533325672865
Cs 13.938939882993045 10.868782279114177 7.36176580408858
Cs 6.986193122807824 19.352871719858047 13.707169528268082
Cs 6.582523739219847 13.947618144908114 14.111483230976075
Cs 5.220103749690905 8.514848496243898 13.700803361434428
Cs 13.4048423780566 13.958037474299838 2.817529986533067
Cs 7.705008334639337 4.383104639900486 4.433723693952564
Cs 10.689285989373623 14.765739289205218 10.278658298752063
Cs 8.799925086320446 8.782352321188553 9.202828183216853
Cs 5.451962464889931 4.782396808312224 9.464854015232211
Cs 10.306002246788102 23.05986645423048 15.378998945125483
Cs 11.752734840015671 18.227642914456155 5.885173432940163
Cs 12.723717858283301 6.0484289483343066 5.607732632897691
Cs 3.2847944603440395 16.29591858415995 17.410729222441148
Cs 0.6380868742989708 8.08112120014667 10.007327217617965
Cs 4.358728198693697 12.59694599388523 9.221817436842725
Cs 9.462084700089752 9.457245230490896 1.8550836013755199
Cs 0.6510086975819305 12.45042112955412 13.833235447912152
Cs 5.059362630371588 8.650639796252376 5.463517684369199
Cs 6.7264359614650315 17.67452406166891 8.61931579007934
Cs 8.344021875877438 13.549439515314244 5.480574320622251
Cs 2.4285053403969803 17.13055275054979 12.302162828174298
