46
Energy = -33.21231649 eV
Cs 16.192325848399832 12.146356436512445 2.512215170462491
Cs 15.095547870343813 14.68629390841701 7.598411624559014
Cs 17.374205251107366 9.859162002127183 6.930662948383606
Cs 11.353599306533457 14.964405694141508 3.4306539594247023
Cs 14.704060670444887 6.932300480340114 1.6978501457951072
Cs 18.194614379666564 4.916750149759008 5.336778980507534
Cs 11.280651730162285 18.3725604099612 7.90718650070217
Cs 14.03718225619525 10.842281563836183 11.24107883459068
Cs 11.494774634127445 10.8182525743461 22.074731205496832
Cs 16.57436992056409 6.2789500748507345 10.5595117575946
Cs 9.869413294418383 13.051329112993367 8.071849341073719
Cs 11.8669133395252 15.240407229771455 12.149920656519683
Cs 12.809137910240523 2.2284285507842614 3.469520026502789
Cs 12.274367781304738 10.145915166770415 5.191040779191017
Cs 16.049738755604263 8.006426304723638 15.498704213658465
Cs 9.487479506811802 6.538071621701327 2.0893436120863935
Cs 6.677995165241013 16.56010707041908 5.44835845466948
Cs 16.296200101658272 1.288492072659264 8.417318629209815
Cs 11.243119929737473 10.43838750958057 16.30251497461255
Cs 6.933881890928241 16.702441993288815 10.958306378714477
Cs 11.353599306533456 6.65556429190125 12.140440945050575
Cs 7.411296216031619 11.49479520449472 3.2833816074113193
Cs 12.439640449349545 5.606234829660956 7.215564964168908
Cs 7.994284370804638 11.26309930791731 12.258798810035787
Cs 2.2324191991960483 17.103322646829866 8.273350583058198
Cs 14.429118772575434 2.642885508509716 13.36358214986366
Cs 7.851995981463969 8.125772710093479 7.461317536101768
Cs 11.865839248307307 5.330466538341849 17.5384632951594
Cs 4.626525738067393 12.060216455221209 8.352172219788716
Cs 1.958795128768847 12.935834060450599 4.2360925892732375
Cs 11.227843531876779 1.0464986542736519 9.352727663938118
Cs 1.8305056653750804 13.855739886353476 12.260985795780705
Cs 4.005512318217844 7.731671237972997 3.8561501893562955
Cs 7.7515015174664414 2.7692626487992804 5.072135645614477
Cs 6.9277817830885144 6.651260494807853 15.231106853377874
Cs 9.227778781517609 1.7500694351408619 14.2846173447657
Cs 7.095272291911024 3.996194864334315 10.177185882732903
Cs 20.615023720116096 13.6271192798793 8.275641089027959
Cs 3.9621453701561204 10.942864819247283 15.661879812224688
Cs 3.5710403407087723 7.995065727488854 11.22087871718845
Cs 0.06848162902470496 8.676648811481652 7.352809906032879
Cs 2.6452819746077085 3.968509318150309 7.215591986852225
Cs 20.321524904353847 10.010476701965224 11.993317263443899
Cs 3.431053788174621 2.669687569231679 13.091211679143928
Cs 0.6116474822165421 6.67603980798645 15.365545747279809
Cs 21.249335895125164 4.383559888859386 10.827574317268331
