43
Energy = -30.61509999 eV
Cs 15.145472992238648 10.313168562516806 5.8863679371845326
Cs 15.147920033336861 14.322592559329985 10.051492117955728
Cs 16.216092418338338 6.408943975560765 2.3676397294748215
Cs 17.721548530928498 5.477104106407465 7.559330591571626
Cs 12.012721516008195 13.980979126917383 5.556910788713501
Cs 17.859852602894332 10.050070332525719 10.19196290368615
Cs 11.640999199422847 9.790013676886444 1.8220249284897048
Cs 15.965467989271646 11.237959502863882 14.182579956275802
Cs 9.497091993611386 15.531181858121208 9.962348301182733
Cs 11.48249016674785 11.237959502863882 10.380062119263696
Cs 11.766628060359999 4.405830202667739 0.4867774159846777
Cs 14.462597415013715 1.9890719648730164 5.082819200993387
Cs 11.24280038980582 6.113440718500664 5.610241519604084
Cs 11.156870659501754 13.8100905782523 14.172975403737302
Cs 7.359600551139269 15.260300539745733 5.077951996946655
Cs 15.421883252831032 1.7271597450067127 10.576405823735769
Cs 9.019661829346836 10.52847365831447 6.195646125847427
Cs 16.750111544952247 6.272231385923108 13.50822054988955
Cs 13.417898353016993 6.677999017645106 10.16338814634539
Cs 6.943131121855695 11.359575917893784 1.685593597490795
Cs 7.367515881998804 6.399514745442561 2.2269922789895467
Cs 11.761646555138379 8.580695114668524 14.862625729887016
Cs 3.945183057337183 17.039010352991266 8.540267914855104
Cs 8.692003334279729 6.821249920178465 10.320791175273335
Cs 9.2501064247086 1.436825554165782 3.7120437066924197
Cs 2.4811966181657765 9.197598610204528 1.1145783394020157
Cs 5.34206762513797 11.742400280316657 9.398937860185974
Cs 7.502858116915031 10.851590100734908 13.525523247391467
Cs 11.429389308943028 3.388493820854307 13.428702391680073
Cs 4.3878371870964035 8.162520405247161 6.1534846392054545
Cs 2.3870926973314806 12.709658746355423 5.082331978189856
Cs 5.330784712737112 15.140918131237632 12.860330882134285
Cs 10.757421775864247 1.7041170033092257 8.778109302602696
Cs 5.62369132747338 3.1807980866181276 7.086877221815184
Cs 20.6734349002214 8.601058806744627 4.653244199810055
Cs 7.5093878137399654 5.9949663576359375 15.412498208607747
Cs 3.771568365462118 6.669156144714352 11.40984247033202
Cs 22.12538462996286 14.206073708967063 10.534429321035962
Cs 1.7627047598325272 4.477755911949487 3.3195157090308713
Cs 6.6932141834064245 2.1174780706534 11.768704448089121
Cs 1.9783524450374932 11.153978970383003 13.594687331133969
Cs 0.4904996652822127 9.643237612647598 9.10555354812152
Cs 0.4877379813842069 4.389631398942647 8.44240876287526
