48
Energy = -34.58727771 eV
Cs 12.963188853283592 7.8807360296882365 22.11390157819715
Cs 9.69080002662515 11.865911352045993 22.44683480360115
Cs 8.409925394006942 6.0594232992947745 1.1683566139151955
Cs 14.066414438744047 12.45460920074561 22.880019290618108
Cs 12.456492110124492 5.09589186122845 3.8029774617373295
Cs 8.536502141253308 2.479377012793539 6.167299070768926
Cs 5.532691404625851 10.259269724795477 2.06661091323488
Cs 16.520511318490193 9.060779907412998 2.739480668137274
Cs 11.991596287404056 10.387260950103492 3.6545997384149174
Cs 11.236361986055186 15.240927418874978 3.1230585561772397
Cs 6.028421810115524 15.102942987028664 2.4705333654147785
Cs 6.157717199603033 4.97628155332052 10.52150934135444
Cs 12.57561785358816 1.6904949166388852 8.30502475930763
Cs 15.772411196750717 4.7176039511629915 11.816766671905805
Cs 4.3146966271532 6.411578510953957 5.616232341956507
Cs 4.702147468294825 2.5961006910312574 14.291153577870165
Cs 15.210147259824689 12.85445563258029 4.970272518989822
Cs 11.429608105290585 5.915176083758544 10.796144464387261
Cs 9.184406393933106 7.61002548775048 6.449583792003843
Cs 8.01728259491094 12.328823467420712 6.1898212213856105
Cs 6.56788190931158 10.121299070205007 10.265323161089686
Cs 14.69577841567155 7.986656573730765 7.720144332092033
Cs 2.6181563767865654 11.493293831953697 6.189394538828809
Cs 8.668855155496377 0.4759778518091367 11.550136757523687
Cs 4.452905693598401 8.265313751406925 14.166701090816378
Cs 9.412919853180782 0.738849333123769 16.279939739716305
Cs 11.976853987723702 11.43364152939601 9.197363415986327
Cs 9.091218268343345 5.74759618931305 14.426828464911965
Cs 16.402273204151708 12.180535248259451 9.874288512346956
Cs 12.832018917253555 0.9028162239531471 12.99305557458726
Cs 4.216324025919172 15.883121075080359 7.624254335359517
Cs 14.179866650724634 9.583011104988527 12.703995121858277
Cs 2.4676174795561074 12.591946581163619 11.190268042632127
Cs 1.6887047572388778 8.019285618556273 10.234951032339117
Cs 8.672037475473857 14.410251701410473 11.06835924106056
Cs 5.362848157516419 5.077190609950437 18.886894223663298
Cs 12.339339500310569 15.862013961755942 8.275036947927873
Cs 8.68259693986212 18.813840506452912 7.501618499875803
Cs 9.865018209693218 10.775576668592038 13.371821162764757
Cs 13.492707470075464 5.509836080732187 15.901301817523628
Cs 13.115141294361703 14.262146867651053 12.839976714043486
Cs 10.405407155773768 5.199724944026032 19.45489731853759
Cs 5.52280875338982 13.082047716019066 14.55320696854942
Cs 11.457247931366773 19.068246454196984 11.816766671905802
Cs 6.031302112809975 18.401677300214292 11.818005539456584
Cs 12.05551708336873 10.789774657653322 17.730227676543535
Cs 7.612553300618458 9.841404815023564 18.159118420100082
Cs 9.862339123377227 15.457427436232038 15.888450325353148
