41
Energy = -28.79253208 eV
Cs 19.144636256049026 13.396862717843176 21.347259692404624
Cs 23.42275991475096 15.015417248335469 18.552086051220325
Cs 16.93631871618185 14.886889072121207 5.962242301324246
Cs 14.674166089726548 20.83005699142256 18.192287787428068
Cs 14.50256391852527 14.475991473292808 11.100744934496854
Cs 10.56444112633387 13.15388009900856 15.307741116644232
Cs 22.206239211003407 17.87856635579444 14.492274298290013
Cs 14.891707122915932 22.865848940992205 12.858265824645416
Cs 22.30695586078481 10.05203881545132 18.071726740446884
Cs 10.577263148230061 23.14016393384226 15.698741091523493
Cs 14.373765094130395 11.715871718676079 22.783781366635413
Cs 19.41221907512427 8.182713235553807 13.924643315638619
Cs 14.89912545792496 5.633898968417378 15.446593380672741
Cs 10.697783792454397 11.086653789531727 10.017969575928866
Cs 14.358711209597573 17.085748596514254 22.285256632069945
Cs 12.028259108294867 9.200245474466971 18.756728122511706
Cs 6.151846210271984 11.446546834656143 13.00980433431818
Cs 10.438575622638643 20.724275785211866 10.309452038184176
Cs 19.023130077933008 18.051798365079303 19.17064711484825
Cs 10.002928272413223 18.54720752591957 18.960941675123284
Cs 14.22015164661148 10.567795664563615 6.220561753095347
Cs 18.792934696328594 13.533583627407504 15.626796474991439
Cs 8.620571273214876 15.827775402847875 11.236914353639264
Cs 14.61598330787462 7.182277522031831 10.305193904629364
Cs 14.50714453627232 14.617285428830787 18.006005708859234
Cs 19.71169012702191 21.366407062427584 10.955637397087157
Cs 6.916149596179458 10.141426420836915 18.017559940177712
Cs 19.765033095563513 15.975264503874799 10.28256018466124
Cs 14.761728188251954 10.684158552766334 14.197455057382786
Cs 17.181520465036012 9.228274514364829 18.816549431875462
Cs 6.222377602137958 15.281286557194937 16.93559524721887
Cs 16.95258116262016 18.01065033213543 14.203234463151276
Cs 22.896642571746646 12.456119201224666 13.154044771925605
Cs 12.155252717235681 18.012637191349402 14.33441960007145
Cs 10.110104600302616 7.761073176963528 14.03505300642542
Cs 9.789932430530332 13.676810023865459 20.943899090592957
Cs 15.302596688198053 19.11062737660138 8.950715073418179
Cs 18.336919429627493 11.051591243586891 9.712269309560764
Cs 19.36028518774551 22.387872329587772 16.08381986877257
Cs 6.984810795768772 19.75954588856525 14.415293869146483
Cs 11.760659596446986 15.575327036841514 6.895699098961899
