44
Energy = -31.38194714 eV
Cs 13.951869632864016 10.955374964109629 23.215378841423234
Cs 12.067323676437539 5.508608171954733 23.62306982326599
Cs 8.394615353380425 12.771886447319089 23.102710550539083
Cs 16.292766622494927 7.264548707809733 1.5633212924850035
Cs 15.21014056498279 11.515190719308592 4.333122937235668
Cs 11.357483454209214 14.634887956141215 2.3872937519741098
Cs 13.162961641139887 4.004142817801341 4.280885458455919
Cs 5.768242794263225 8.005858446059575 0.335469249871553
Cs 8.378129651682473 5.3800158292071725 4.150672535490403
Cs 10.642368962533508 9.563976166712179 2.5148708998431957
Cs 5.51124415323074 12.873416039739462 2.8061609983055282
Cs 16.71782588850962 7.009845020605751 7.149116605092997
Cs 8.562573776037102 0.9419645999245811 7.165509665904878
Cs 4.0339772264882905 8.775735309818344 5.661939537572355
Cs 12.211660232601897 14.385289443448201 7.41191746959468
Cs 7.561245032329879 16.79259036567816 5.644455812768477
Cs 7.437918568409574 5.7926352143421855 9.168228329437799
Cs 12.888686518384093 3.081133065627446 9.349153412755362
Cs 3.7452863446551805 3.6231060270584012 5.736742583038554
Cs 12.0678004332712 8.242682722950322 7.675612064922031
Cs 8.298444629312511 11.41714929037518 6.8126910568417065
Cs 16.142088028065974 12.178219543463696 9.744732330746812
Cs 4.035107626470911 1.4292922856138488 10.314313651010458
Cs 8.802403308878555 1.2886213555526742 12.338928534404106
Cs 3.6462150550467776 13.668229197591216 8.119221278169924
Cs 15.306695974851484 7.675386067211772 12.194022677595099
Cs 1.9970108731608955 6.588388855720111 10.153764405258935
Cs 13.022451628719836 16.12342652575902 12.082935398827454
Cs 10.684799842888161 6.100947841827479 12.885266793631809
Cs 5.7909686514517436 10.169710716457132 11.369486691146017
Cs 10.961252940071018 11.261086242120527 11.794086286257146
Cs 7.841710144194751 15.475340511334723 10.683900650790898
Cs 5.289858654846351 5.171758338047037 14.087784487385118
Cs 14.646149236892228 12.178219543463696 15.031219061187178
Cs 9.20292558050992 4.305230998929921 17.6018924545765
Cs 8.199454620443516 9.6832642329483 15.815223644041211
Cs 13.151299780907403 7.842550550203921 17.520933560190542
Cs 9.187539539584906 14.911790011555958 15.464996639279953
Cs 2.374732068950865 9.472711497721113 15.323528187678052
Cs 4.200394719440823 14.115044110025945 14.196436213037682
Cs 4.399747570423459 6.966908215630883 19.36302231562685
Cs 11.664539179629987 12.745633853984994 19.134625558253862
Cs 9.207071640920217 8.540283386283823 20.805145241840258
Cs 5.153843503202017 12.26958546890038 19.08526736476185
