44
Energy = -31.01551271 eV
Cs 11.870130527495434 8.667242821696487 20.800560271251996
Cs 15.88362538582282 17.740778821627327 7.342549697428562
Cs 10.643789573346357 9.641964403169222 11.854313316728016
Cs 11.443720734584915 23.277530860226168 14.132555849190764
Cs 19.0722172712716 13.752344398357417 9.068390530253264
Cs 18.941064623870968 24.66779484536557 19.1919107546396
Cs 23.348186804599838 11.065854730559693 16.794679222377926
Cs 12.928551567605265 13.700065535914996 9.127073747029469
Cs 12.821215229925228 13.328408230908195 15.084722894749214
Cs 12.811733389604868 24.54920947776526 19.210918934723697
Cs 12.015330143961613 18.29156668687582 15.483570839572456
Cs 16.001483077467736 16.410832408117123 12.539484604341661
Cs 19.878801619729167 18.425223533185957 15.471916059194735
Cs 16.09614626932192 10.40703302984546 12.159718611017354
Cs 21.582201392507578 9.854466897755191 11.765509317978717
Cs 24.031431666661998 16.325374662813356 17.606386506270468
Cs 7.2521087685270915 19.48629624250269 13.58176234336502
Cs 20.163148691658957 13.979362237027006 20.42582475348279
Cs 20.00501162184115 19.211200628977306 20.799859183920663
Cs 20.521975924934804 8.811720037938832 20.68826636192257
Cs 15.894599982179075 21.1109428778222 17.080456301114193
Cs 8.522812242750879 14.541161440044887 12.523693633304482
Cs 16.017417241557826 16.427452839980653 23.60209735772584
Cs 19.088531205764454 7.472814890958253 15.722779901966842
Cs 16.231532333546838 5.9702900543024535 19.956489189431164
Cs 8.8979066879367 10.782887008713558 16.870480512995954
Cs 23.485959322460694 14.807525754064208 12.336027177053037
Cs 8.002842857322907 16.02418063837694 17.746795579843518
Cs 11.987026589401506 13.836642053129454 20.53902225952924
Cs 23.36438460718856 21.869064812890887 18.011815970125205
Cs 13.214356287127941 7.354756706430661 15.745921433063208
Cs 19.27927406416004 13.4134671545306 15.052972231672602
Cs 24.57054673821687 19.77057323464871 13.423927485823825
Cs 16.008648033212438 16.2714689588648 18.40404643698156
Cs 15.855965664846291 26.116503743696132 14.958250605551276
Cs 16.111344700359687 10.984185226149618 18.097126403234263
Cs 11.407795182961594 18.74514373316701 10.264333023341354
Cs 16.14777461696764 10.936158325165755 23.21510199742419
Cs 12.006016948532455 19.085318110973933 20.80294812242097
Cs 15.999880498520593 21.879490421375515 22.810576618980367
Cs 20.403976926401235 18.882845563800185 10.180097965884258
Cs 20.287997776088275 23.394541935729347 14.022217615229087
Cs 15.872119774939183 21.504523576698123 11.746971615207258
Cs 8.416241432815674 21.61061644785595 18.142702762658324
