44
Energy = -31.93710095 eV
Cs 14.536013392892189 10.115064671400543 1.0009798514885087
Cs 18.346961919616803 6.929732527752241 6.68139831254333
Cs 17.533980344429917 12.261373092695695 5.305145941103615
Cs 14.772725431326581 5.166176427078022 3.3146407287313564
Cs 9.020762991395966 12.144975400378703 1.3364720584242058
Cs 9.702486963833483 6.552069583155235 1.9825374913424623
Cs 13.392742632564973 15.031500511532466 3.096836842236992
Cs 11.205787516784183 1.305181661628767 3.5290590782199938
Cs 4.60818308691549 8.21747866630795 2.8346433383984806
Cs 12.56688755551563 9.711335323593158 5.565402789914852
Cs 5.872217145288058 2.261489457640689 3.8093800248234886
Cs 15.542874104210531 10.103741512439504 10.196765809661676
Cs 15.587583103038256 1.4669363663685981 7.2375501225434435
Cs 17.261154756288057 4.85125475570353 11.50837630352416
Cs 12.596410252115549 5.417538605135438 8.333504505411518
Cs 12.265661787948396 14.348225694139025 8.180423419688841
Cs 7.198036145790468 11.647673045447002 6.386805139528048
Cs 4.202402200422482 14.080469530395048 2.8355401120889248
Cs 9.42272553461294 0.6146374960639421 8.31292099887747
Cs 8.589232952591294 17.115825748093865 4.625575990124629
Cs 12.587633263069549 2.144604010336775 12.45240987661586
Cs 7.5200023429279215 5.866653441153671 6.822072083065717
Cs 4.4588600372070974 0.22208280794034554 9.435358260475963
Cs 9.810781399105966 9.428591932570471 10.4029678069479
Cs 1.1916074053570553 11.08202051090167 6.25474988061794
Cs 1.895394538509439 5.437968139164814 6.684142937807682
Cs 8.185850881270175 21.36843990870901 13.945404107958975
Cs 4.214400346263504 16.70899454580021 7.607511355514861
Cs 7.10362150221056 4.485534731336392 11.869071583196085
Cs 9.013758186801368 17.825595930855105 10.491517085838034
Cs 4.041228572576855 8.883359743009985 10.491517085838035
Cs 6.528132887198372 13.546913019425032 11.332273383571055
Cs 12.833934419407104 7.207204032377694 14.207728244367003
Cs 11.86355460463503 13.529323785051744 13.536684145105578
Cs 0.8872746741660887 4.081983032344766 11.855372568881922
Cs 0.629649761501008 14.208082117648516 10.762437122999996
Cs 3.7781611890838747 1.3122981070672404 15.176443001937994
Cs 20.90767168696325 9.061927347618438 11.171292586940252
Cs 8.5913921671409 4.1030432738303855 16.696300129851522
Cs 3.7737011278561634 18.081455169410365 13.128227694473917
Cs 7.78512675995651 9.713304854874496 15.44998447083933
Cs 3.367116508310509 6.706141749292726 15.722197567675485
Cs 7.764236889626909 16.007153102792056 15.994182519132448
Cs 3.0727586846023502 12.30039804699824 15.172195839675872
