46
Energy = -33.14732356 eV
Cs 16.743760227200074 1.7607227979465336 8.079418629303518
Cs 12.082829066700091 1.603599876899551 5.171303409784291
Cs 15.699920658849983 5.297508437882607 3.996022790719882
Cs 12.36203253910561 0.5214945544206238 10.694380869895838
Cs 8.361031643878254 2.7012510848735216 8.61110220608058
Cs 18.273481124650775 6.430308019192891 9.316115681236234
Cs 15.516003104209954 4.208026312420486 12.909709936964983
Cs 11.704222031968044 4.491483394074908 0.6643234106552053
Cs 12.73109310670246 5.837782496281395 8.487664996688732
Cs 7.43012597714352 3.906616065356916 3.7583994698654033
Cs 5.599674279013833 3.2784146048296523 12.77665195312256
Cs 14.96891735920311 10.103362487499073 5.856668271110978
Cs 7.509369339473173 7.818936182939504 9.816487675559863
Cs 10.542054165922519 5.075537083189087 13.068039173347188
Cs 17.727258510598283 9.022104371773143 14.564262997096458
Cs 3.2759787623200043 4.611366257508234 8.38691649769751
Cs 13.7464327378295 9.552796078161908 11.806426819950167
Cs 18.260998180274683 11.091787990095165 9.561457686094728
Cs 7.6423129996810255 7.2394708929763425 22.330016113509508
Cs 12.355548733524017 9.724145275285363 0.09379242846279029
Cs 10.22307359193558 8.25341860138195 4.654642348824901
Cs 12.339923095629766 7.494414061525475 17.31651309109739
Cs 17.198787559949235 14.157039857934851 13.071479539119599
Cs 15.105207162494827 15.070924822957723 8.197145494428703
Cs 13.324147017357793 12.357574069589209 16.58796904878773
Cs 7.054926546930947 11.818373612919565 1.3517879204186325
Cs 4.789837086201556 8.351165651322313 5.032573318428579
Cs 6.700583073382913 6.977571428078367 16.48864463770401
Cs 11.192811491331586 11.808745481452481 9.028005659513193
Cs 9.154552395427801 10.803023635431503 13.619198820567753
Cs 11.5493363875049 13.462405900342763 3.937168977862295
Cs 2.455618635594808 7.3772117285163725 12.907880260232677
Cs 10.192134967609444 17.362631729816055 7.749031022175683
Cs 8.917101150566399 11.091787990095165 19.11769553292231
Cs 0.10028253561762786 9.053039371351531 8.328981464921707
Cs 12.09352319429887 15.638217105282088 12.514170917311183
Cs 7.105397955386348 12.885362238796692 6.409086013181758
Cs 3.9627073394646324 11.434197002436106 10.261351107876393
Cs 2.1115245925335544 12.583555371127087 4.838600197498533
Cs 4.253356340025597 11.675262852261225 15.517402024738526
Cs 8.239346922258258 15.24262822007697 16.192555653220996
Cs 7.244274494765275 15.219488814677348 11.464763908914207
Cs 22.100266596789044 11.420905413072186 13.04229267992244
Cs 21.963985308276104 14.576103168431645 9.030130934871224
Cs 3.7940535486223457 16.74696032372835 7.914124727643363
Cs 2.1690951466821566 15.929433353408136 12.928402065683368
