49
Energy = -35.06766167 eV
Cs 12.02289136237687 17.91782127620249 10.967697339944667
Cs 12.536822684421283 15.266809297032808 6.062729688677628
Cs 16.924781129982833 15.566175380854396 9.870374680167332
Cs 14.469320420077999 15.250461502509301 14.04549412906377
Cs 4.803266231417789 15.535965660690657 11.788142403046967
Cs 8.376494170175597 17.189256636900765 8.228382004156602
Cs 3.450306576142652 14.996873283950064 6.783466553280836
Cs 8.495347152489055 13.903608906080356 3.992723758127389
Cs 9.558989760499239 14.108700909725355 13.181345169980602
Cs 18.568076767657402 12.481298978818494 14.059573711563969
Cs 16.630080268841247 12.48890086564595 5.501432174077385
Cs 12.790358589655714 11.932748917466556 1.9608583185721087
Cs 12.446284856935964 12.564772282552063 10.337229255235252
Cs 23.7637850751403 13.09854192881879 11.795125296414847
Cs 18.966939129190017 11.646721068199046 9.867535904212339
Cs 7.8634291518375425 12.564772282552061 9.164025027137004
Cs 4.674502318276605 11.498594854830534 13.492740575962731
Cs 11.12451834951869 10.307676061454574 6.186599004853029
Cs 13.415951954451806 10.638907400926637 14.477449101969823
Cs 4.256646530398128 11.22513285069687 3.985937462401981
Cs 8.3905612736102 10.226054950676257 0.8195479010435386
Cs 22.81005580637377 12.336918752321175 6.1885847971937755
Cs 8.786650419699079 11.523916890453338 17.426590773890712
Cs 9.495763934057491 9.069457782126666 12.365140666768427
Cs 14.596418598485064 8.902329087134474 9.874506267883561
Cs 23.043731011609264 8.716803190227802 10.247155710955093
Cs 10.736439199018394 6.864789144339467 17.47114800223933
Cs 3.2862419270470706 10.85862406390318 9.053947398177417
Cs 0.5759311332480809 7.700641623791467 14.210021389941712
Cs 10.951711011023693 5.9170421522857115 8.925711531883898
Cs 19.375218457070467 7.160679841828343 7.018091194164275
Cs 5.523874731120254 7.16337658057692 16.510182378627295
Cs 18.700944815825377 7.014954508992888 12.27765636589622
Cs 14.605406521927728 7.399716176186554 4.839975524415005
Cs 0.8680703455728619 7.22053466230116 5.375619264073768
Cs 6.600580502120312 7.290500829320752 6.627492597462995
Cs 10.560577124894914 5.931202930530116 2.7686851573563813
Cs 13.077944466596987 5.458094972998154 13.0873103825254
Cs 5.101378423312747 6.0488696140336184 1.9274606536087686
Cs 5.066845513992084 6.744762123356089 11.519966704557037
Cs 15.821829436682156 3.8509232712637913 9.478424543603513
Cs 0.5641086665320448 3.8724583413990676 10.160325637699078
Cs 12.956068799426893 2.373072789033264 5.477046727408691
Cs 3.0656040881984716 3.039467895988419 14.04954434084401
Cs 3.3026749136445233 2.766034413066259 5.782379383174533
Cs 8.648279813997961 3.599068812957297 13.760413618753569
Cs 8.386761960639035 2.0766481325093524 5.4923499008049
Cs 11.519346826588233 1.1072375232885117 10.321416336475263
Cs 6.063944947948454 1.8292558091180062 10.14652743985353
