48
Energy = -34.91040195 eV
Cs 15.10985411741286 13.606494443369824 4.399886073200886
Cs 17.68736180462602 9.280821594439601 5.612564385576359
Cs 10.748965838486942 14.018945993598582 1.3877797065106101
Cs 13.619448693181392 9.69715859636496 1.677361127080509
Cs 16.47564104248655 13.082416382912655 9.39638105244592
Cs 14.302214059749941 17.27268160002283 11.735048672341545
Cs 17.28841621355756 8.610668398721304 11.594928835515239
Cs 11.722892500585862 15.642335828372005 7.547136606952913
Cs 16.205949912402662 13.054433561117133 14.724089255645536
Cs 8.85060696582384 9.39648187424192 21.601042713820014
Cs 17.858811720353952 4.392904817459374 8.72336954334931
Cs 13.126141685622109 9.062193858243505 7.9149857590201105
Cs 14.55670530113239 5.07075056106112 4.3841690281328916
Cs 6.818537948224982 15.651622896221784 6.302203807673105
Cs 5.483857063099794 11.99220615212556 2.3789854613558314
Cs 15.792434110221395 8.048709431381804 17.131331470315775
Cs 9.655826832517844 11.303030350859666 5.4775220648274425
Cs 11.716259052322975 16.309310615754306 16.178924527418182
Cs 11.603381659544663 12.650124022952156 12.019861689387293
Cs 12.522426049729933 5.1990113148138315 22.15486508958413
Cs 8.601080802145283 17.006924694452316 11.46987230349526
Cs 15.269685502609134 3.862221428647013 13.494821152606594
Cs 12.232940398915707 7.956372001235538 12.893668319148098
Cs 11.747305547186185 11.303030350859668 17.822670715818354
Cs 10.736162158882564 6.04693114688018 17.502593894908582
Cs 7.51902004905741 3.83172759119121 21.115558971817702
Cs 12.282232878442924 3.7224040076097618 8.876590515377494
Cs 7.139361532643707 11.870200667215494 9.969908003711604
Cs 3.988444000745946 7.628411090054416 22.29470159129428
Cs 9.274332457324094 6.560375867919234 3.7041973141760467
Cs 7.533737666295691 9.123659727821453 14.428613797126213
Cs 10.219885939587888 1.5723561308973502 3.0670267665474498
Cs 7.193165018678448 13.877820749009087 15.819495323914671
Cs 4.529834756566539 7.9047193781922065 5.615199491136792
Cs 8.992285359235765 3.721150112754216 13.221195284704121
Cs 8.317823329496571 7.116462640025089 9.277074599972133
Cs 4.679160508275615 3.184956005255467 2.909114464297811
Cs 3.4071950702160207 14.393113404870698 12.049681599160419
Cs 2.495045131517587 12.394435378228346 7.14305593045785
Cs 3.4304874656400233 8.464109439460769 11.05025574904101
Cs 7.092405945105236 2.3760001872046312 7.656541201940889
Cs 4.542828691346308 5.497982153088837 16.746799254260424
Cs 2.504398505105174 10.609021277717838 15.683265246594118
Cs 1.41779941122329 3.454913413391095 7.3809803576818425
Cs 21.88205396774881 8.191680474097323 8.069451076085759
Cs 3.847359554272959 3.1797348070084777 11.873439751098985
Cs 21.495110521260614 11.609375409708603 11.763292098302461
Cs 21.76737150090463 5.899505169519547 12.82980643855276
