43
Energy = -30.68354828 eV
Cs 9.243335136974915 7.170565603021052 18.106595398158067
Cs 5.654888117210643 8.556879310605598 14.518551470873504
Cs 9.234192988087626 11.767256253407147 16.310346888078893
Cs 2.8973111431782916 4.398962642384344 12.708432952077048
Cs 4.412188565719739 13.254790601335545 13.42235960182705
Cs 0.6931232320726987 9.378371295329483 12.151688470233005
Cs 12.685804754963279 4.019747460108783 16.328345858840574
Cs 8.032245986230002 3.177317728296378 13.70318954634483
Cs 13.682226854068679 9.382371480077515 16.025591319115595
Cs 0.27806075583930123 14.349919463664683 10.365653634887842
Cs 8.695991103177057 16.411774418839176 13.404489698263157
Cs 9.245695087237195 11.60770254022222 11.086297948319014
Cs 11.200583857309184 7.168726597863987 12.164354782583086
Cs 4.867004200563872 2.054644904572427 8.251540789053779
Cs 6.5294138157859605 6.75792101365565 10.076383517437428
Cs 22.762444916602245 10.623575251249369 7.187340505392801
Cs 5.634351719732277 16.134606878055646 9.24809458631988
Cs 1.6510150863691733 6.082913366862281 7.993696818846268
Cs 13.25849397195375 13.6885770274056 13.528402991009113
Cs 12.833690738491875 1.9246009778947284 11.74757319516604
Cs 4.596246079765255 11.092854124405157 8.890023093130148
Cs 16.245940725559223 15.618093249204753 9.95277121768823
Cs 11.30443997112672 16.019854967850154 9.100085526734413
Cs 18.79123383014319 11.60770254022222 12.270817606446148
Cs 16.438380424526144 6.107985544683638 13.045448268407698
Cs 9.932267435404176 3.449923036692977 8.002269759334473
Cs 2.8183568826022323 3.8413489259122797 3.353524074639787
Cs 6.364506570654594 7.474266904042971 5.00007585365969
Cs 14.388804071465826 10.354125546723763 10.064098761967845
Cs 1.936817191324987 8.966292090801383 2.770385079047974
Cs 10.813734604636734 8.782524922029852 6.931598529661143
Cs 3.0484802661129207 13.709864511446574 4.8291349527905725
Cs 7.588383802456461 1.9370396645071923 3.456328812812982
Cs 18.255661764668613 12.148691826029594 6.885921659345816
Cs 8.289334102552777 12.96058124986502 5.515321862493644
Cs 13.35913288749198 13.131176818891651 5.386233057405004
Cs 7.041455211284237 6.319825708625309 0.011387580347626552
Cs 19.207616361622662 7.480454078013172 9.098258066240936
Cs 11.607774133134878 5.1191256311610145 3.0489206177459196
Cs 14.49513129462311 5.114363212105786 8.270710579748538
Cs 6.026422723599255 11.56159951728131 0.8046334564760084
Cs 10.809336977803516 10.072557542133344 1.3794002248938075
Cs 15.33440452987631 8.571476864604213 4.541175984911606
