40
Energy = -28.10804655 eV
Cs 14.405457589888771 18.92221161340576 21.40276811000497
Cs 11.843855701973078 22.613588978227796 18.58696611111962
Cs 13.72819550114696 16.835856734422393 5.925425830869789
Cs 8.480113905252306 12.393878513660253 18.036645801681868
Cs 14.483449537211284 14.211747879227719 10.961203006546361
Cs 17.17630119602988 11.025396344641207 15.141692540469872
Cs 9.16226851814221 20.59896840256769 14.553650748745076
Cs 6.884297671815113 12.108715931287284 12.796508189401873
Cs 16.841031603561692 22.90240554548407 18.06070011943629
Cs 17.227042955661485 14.675036172804543 22.749825405464975
Cs 19.520763553599156 20.73620259439543 14.005496378271083
Cs 23.06981597095941 16.94254268348764 15.549674827666152
Cs 18.995574787178924 11.717353271788053 9.956729379722173
Cs 11.987246494289911 13.197920058798674 22.09165705192207
Cs 20.370314275025414 13.098829327390243 18.813534028555768
Cs 19.797401493283306 7.129623001289281 12.825324352241077
Cs 10.221910802290274 9.311946896326388 9.837626893161382
Cs 10.02139845979305 17.473495278629702 19.052126411552905
Cs 11.311490658099363 8.340704518392892 19.53967466766329
Cs 18.558779145057475 15.220521819573557 6.215197240350544
Cs 14.399736964964097 18.69461305908227 15.505706256903082
Cs 14.998998677569874 8.38320628606428 11.054141341253901
Cs 21.695764946875435 16.557484527085112 10.376834738835512
Cs 14.547847041910535 14.387876558869145 17.98074343275673
Cs 6.472057731971822 17.35308601612447 11.04139293489804
Cs 20.22724653286988 7.7417645822375025 17.94682729456283
Cs 11.706893145961416 19.12104037799341 10.242923987000198
Cs 18.179920795108796 15.615928664392749 14.033641863671381
Cs 18.84144436780963 18.04965324273264 18.74001092061609
Cs 14.957598963534045 6.468093019990786 16.165476889651746
Cs 10.629505974562454 15.6112104662861 14.009814771029765
Cs 14.269089874724665 23.046045220486032 13.322665311766569
Cs 12.255934252425309 11.047547557911052 14.684977595720259
Cs 22.33747309953041 11.844900173254107 14.011323243351066
Cs 16.186522934626964 9.880692580478845 20.5060001655603
Cs 9.825701984923803 14.271483017700445 8.49032714825542
Cs 16.82067525905428 18.862333961071904 9.965285892791577
Cs 5.691906511745752 16.4500774855192 16.085806871827877
Cs 9.149235342680893 7.271322243761885 14.810911631873743
Cs 14.401355776890108 11.566315393157918 6.604380612828401
