42
Energy = -29.52352086 eV
Cs 22.082699508866884 12.383349056625944 15.889556392884918
Cs 19.486385362914174 16.301044201782567 8.534304021943445
Cs 13.457833557726593 12.108549042037357 12.109484412620786
Cs 7.111808007239275 11.97304945632368 13.055890340329329
Cs 13.313119517729664 7.492860697907008 16.814044946333055
Cs 15.888906234096618 9.10752151333389 21.28027250710543
Cs 18.549221756850507 10.763865346010016 7.857661451558051
Cs 18.502148317596937 21.134631992597676 12.288124757187102
Cs 14.54862859993933 14.642033819859508 7.5219920768957245
Cs 20.98697814276195 21.10015465962541 17.101149378098636
Cs 19.5142125311387 13.049838283172237 20.57489585383043
Cs 10.754140023894939 10.363455557437646 21.114918088012086
Cs 21.35681469550779 8.397482875673985 11.964483486900043
Cs 8.07288883738349 7.947196368708825 16.954706844659174
Cs 9.676219791921172 12.906817394686504 8.479075921152786
Cs 10.6114265715264 7.9429296893731065 12.113066880346123
Cs 21.955788255128564 17.092520400924844 13.186014092150451
Cs 23.105453894069623 16.646177228276645 18.906906234689323
Cs 23.27687612604901 12.922175013052028 10.221717391611367
Cs 10.694043252952863 16.343032217168165 12.569740734075515
Cs 16.14782557746385 7.663835249297246 12.108058074813071
Cs 18.842210053247413 8.19806638306326 16.813207994149092
Cs 5.85280156002047 16.235799037451436 10.191652244991582
Cs 15.620274341336495 20.04536581506352 7.805182864013765
Cs 7.788934835800622 20.7162045267583 12.099584085562434
Cs 18.28555514399927 16.53978152461381 16.553447617757687
Cs 13.066133771502203 19.77258723819406 21.392014651592316
Cs 13.321813840665836 16.833509525404825 16.956655882878348
Cs 10.223048839081196 20.844063228984037 16.94464634175926
Cs 18.38195698501409 12.774546701407436 12.522562603497246
Cs 10.609162090059808 18.439234167700224 7.941776747136625
Cs 12.927975951238356 21.523952645984668 12.244892724573795
Cs 5.901326672084062 12.357697000633705 18.80551860187115
Cs 15.735138080567895 12.121400942493326 16.93310043109559
Cs 18.283392544794008 18.561849694725414 21.23724924053276
Cs 14.503418105829837 14.430154240909486 21.58036993695332
Cs 6.892203968099756 16.65147221515063 15.889902954057613
Cs 15.608019486247391 17.012994042860218 12.169232005813933
Cs 13.46150729360901 9.159907708213897 7.668618323404184
Cs 9.471446474097574 15.869689542776637 20.53895039411774
Cs 15.736325335952413 21.5152711934483 16.96143749356212
Cs 10.763388063992927 12.483384560289966 16.473384973482997
