46
Energy = -33.44531594 eV
Cs 19.079350653837363 10.731838699873528 13.641797599119991
Cs 18.964346389758436 4.898021650580605 12.443571849465936
Cs 19.22265058089832 14.311028279184795 9.43014867073489
Cs 16.186822620965884 7.00451487469271 16.419556049232703
Cs 17.500752169263816 8.629347011910856 9.010729032049511
Cs 15.885994878528319 14.97038885706731 13.913607572559748
Cs 13.379555083498493 11.4076001018117 16.985125962073486
Cs 16.171016123187332 16.310138598999515 5.446869994039819
Cs 15.389170235014188 18.702531468609976 10.339982041420894
Cs 14.327489026182477 4.369751044706302 9.24893494542484
Cs 13.535425695109625 2.7589283564370692 14.16572376821491
Cs 13.253180158646565 8.750732224877835 12.301899771496664
Cs 15.373379576294859 6.392111116125344 4.2381571489055645
Cs 10.364192574420231 19.08521017438493 13.13378282769112
Cs 10.6018409616438 6.621235755103308 16.827499542882368
Cs 10.851993509368985 13.910114455959366 12.594098078785885
Cs 10.736658582751579 16.148777251469053 17.50480558795541
Cs 11.274371979076106 17.5105225701745 7.585903580726695
Cs 17.311320507103353 11.208468684588619 4.246290224268222
Cs 11.045125222947874 3.0443934151938845 5.147554488305245
Cs 8.07420168320533 11.382876633615302 18.17005376349275
Cs 14.141283110456271 12.835884561899796 8.888959160740002
Cs 7.044382447446433 10.349015799457202 12.832181168959861
Cs 5.28605573265592 6.594551393713195 15.790601976075294
Cs 11.652718140557166 8.751388439715388 0.2435657971733735
Cs 12.084839522771087 12.877531597092744 3.9593297669751855
Cs 10.605593806853248 0.4971080884181922 9.803680913749114
Cs 8.215566213597759 12.72947315533144 8.093844064277308
Cs 11.129855448258933 8.324127869839426 6.760941723311051
Cs 7.807185146735158 16.304413645806164 3.998075657596453
Cs 8.345488846973854 1.9704302245120204 14.828682226265423
Cs 9.005875743921703 5.564582014794651 10.872354440995311
Cs 6.104958625950802 15.651524015644533 14.589123758186833
Cs 6.353491034928341 17.647035514774494 9.433887231009624
Cs 2.6449662133580474 11.660278504807696 15.914273788918335
Cs 7.274520936905115 11.005757299752291 2.386752425999494
Cs 7.0402014363524605 5.860970822367637 3.705624309935085
Cs 1.2117601052245146 8.073420748200183 12.178150189179064
Cs 2.6515896259452396 13.394703587124624 10.872354440995307
Cs 5.188005045732644 8.220155399333478 8.210652956061582
Cs 6.213321519067193 2.1250741028791276 7.411496617308962
Cs 3.4410778647147717 13.527219220392245 5.561500131857095
Cs 3.827126429125263 3.422663510164568 11.816173188743782
Cs 2.504069335300184 8.611678337795707 3.3227460408235037
Cs 22.041077364226968 10.191652560115031 7.567806746046275
Cs 1.1779264936577185 4.905694458842624 7.406014878110808
