49
Energy = -35.68000958 eV
Cs 16.92470665841808 5.513786162514325 5.089788616740164
Cs 17.872752195857135 9.696290194055656 2.1170369709556196
Cs 12.978890988872108 7.3886747519091704 1.575071776665574
Cs 18.94321664901876 9.708000267001747 7.704514498177499
Cs 11.752912766807752 5.082728682341891 6.429250278771515
Cs 15.408806795099425 6.512789885666449 10.318596130205895
Cs 9.274715337728546 4.41338351255949 2.0772749475016243
Cs 13.15163145389413 12.174648740615506 1.6966069295320247
Cs 9.275436902261623 0.5833030301974883 5.897183375531578
Cs 13.776335807191845 10.360243815965264 6.319318261296104
Cs 17.862037658555195 13.515242504837596 4.572055396653783
Cs 9.301441465840291 10.386249357255934 0.04520647381851493
Cs 10.619818288205085 2.493224669600621 10.906929882063423
Cs 5.073482809721901 7.257800594819528 1.2835357178114255
Cs 18.535502933320352 10.363848521202733 12.428822389646175
Cs 10.761624112934717 7.819407342118341 10.665409912131192
Cs 9.298202314887877 9.429317731182207 5.096502691104542
Cs 4.407314145430496 2.5109708289043753 3.9744001125536714
Cs 6.910301880624003 5.450351538896708 7.281209132154119
Cs 12.990032951471347 15.148696773399509 6.315885076391929
Cs 9.15321723419537 14.185806483287122 3.456718843069636
Cs 14.328495992781372 8.09517793434868 14.525550510858919
Cs 17.472842865354668 13.90598902252589 9.846513356501223
Cs 5.561394294528963 0.22144653380749654 9.739426292771522
Cs 7.367993893464817 0.7292945125940149 14.044362971291587
Cs 5.9568643416290765 5.632270415610122 11.75525685779731
Cs 12.986042816932528 11.20277008584305 11.207134328233742
Cs 4.491741680325323 11.344420024494058 3.397054795935061
Cs 13.268696697682257 16.783408297966226 11.190719617519324
Cs 1.302824767760658 7.810647566526107 5.238960567274821
Cs 15.005725412065336 13.503848648143379 14.475693734320977
Cs 1.8247516134193529 3.602578635946923 8.500274640884875
Cs 10.232652349858416 5.495267683228567 15.00942948045463
Cs 4.974511167134322 15.692461814079893 6.468742430993375
Cs 9.164765255317079 18.27937954765941 9.315258193107912
Cs 4.939487134303146 10.261637284824003 8.455793061596191
Cs 6.990112926041085 10.650854129760425 12.4516263937926
Cs 2.1028590711902964 2.9037538593100414 13.315124956483698
Cs 5.357039219948934 3.9978029099330743 17.60225162423418
Cs 9.33704227022349 12.79522958225529 8.71281556910806
Cs 11.168130227174888 11.20277008584305 15.840078679299161
Cs 9.913108923067005 14.864920597126249 13.24399451840409
Cs 0.6205718794717937 12.57512065135304 7.9229874584715985
Cs 0.8563401301155263 7.946141038196529 11.029861825914224
Cs 7.098190636008616 8.738482447291732 17.876060167656952
Cs 2.497639862789818 8.197238564359873 15.543160715194071
Cs 5.083280823868302 15.160924056403475 11.611526364015068
Cs 5.632712684401156 12.979722247265679 16.228715904098472
Cs 1.4281635614606443 11.909591491050541 12.69587984628924
