46
Energy = -33.46151916 eV
Cs 17.825025170457508 12.28605362091151 3.785395317571162
Cs 16.18687370462903 7.411324886897459 6.73671925401719
Cs 17.864596870406107 12.425336167122817 10.914493909470808
Cs 15.671763347775727 6.886840413064941 1.2251778093880232
Cs 17.992758321613028 6.623774239365753 12.54058749138132
Cs 15.656092835981546 2.569373083426267 4.454622311875346
Cs 14.447265568034997 12.01472535679701 21.59444464177951
Cs 14.189489043018193 15.125716094951564 7.414922591750967
Cs 12.019090168956803 2.6992264404305044 0.26997295861911225
Cs 15.799786430113025 9.73353581117737 16.34083037591537
Cs 13.630205659187345 15.38784991634741 2.025526736571651
Cs 13.507586695193035 14.866007362813724 13.505357985320941
Cs 12.001859162593409 10.329085716323766 4.801450666664694
Cs 13.659101125138442 4.568207466151514 15.136045200765235
Cs 12.95870993337477 8.893987473939234 11.609378562269553
Cs 10.112432055770737 0.007763332122734735 5.534603512526187
Cs 9.868761054032234 7.837942873095068 0.5206884668428179
Cs 13.222502827149603 3.4568654802222856 9.397970354525526
Cs 9.318675082189406 18.86985421064214 8.982893935505
Cs 11.220035259493168 5.3486127724171375 5.064001271298982
Cs 12.16331356953303 6.767239655574112 19.335476102576745
Cs 8.509019654156099 13.510383474076473 22.94483866175889
Cs 9.604520013520892 11.879854978795285 16.879855453765188
Cs 9.312184871102756 0.6737820388495805 13.7859322291048
Cs 8.519421678664632 13.367131707235 9.696364699042881
Cs 7.311226053130911 7.878330385091809 8.285214147485569
Cs 5.666211902132102 9.594496120295599 3.115422496439978
Cs 8.020398607425312 15.376134618251967 4.777276443553392
Cs 6.492540149553587 2.818531927437915 8.66330549218214
Cs 2.867833678467979 15.246001040447915 3.9303425558721568
Cs 7.834424525570663 6.329585211315484 14.302388994437917
Cs 6.35670795072026 3.9220167913378283 2.1405878518736734
Cs 7.433137106622208 3.1147525448734656 18.810951942584047
Cs 7.433707438005575 16.468864779480526 14.579707785471259
Cs 6.217666800749733 8.243357057409911 20.389024830688605
Cs 3.0407571368790225 11.387084909758233 7.787436939638867
Cs 4.3237374095270065 2.0248931249403883 14.710361206539943
Cs 23.366745476151344 9.99133267059561 3.1088020447764975
Cs 4.8502812893512335 11.61030572643589 14.033569070653078
Cs 2.730604834473709 5.676422216900193 5.6731447656271365
Cs 4.040855096435378 16.323934119950568 9.184982815384082
Cs 2.7858169416208276 6.572419990028082 16.894151696140256
Cs 22.156498964282648 14.26048057742763 7.08203354182014
Cs 2.3038846232969434 6.05746159342358 10.914493909470808
Cs 21.46931367974751 7.963687385167999 7.558024559231455
Cs 22.952748219082213 11.401608197084226 12.723441703220741
