47
Energy = -33.3121956 eV
Cs 20.593794483980837 9.513407216644458 14.63530249632234
Cs 21.521644392818 22.04477968291141 13.859617003652687
Cs 15.73735140897826 8.7207472779881 17.126729908598566
Cs 21.24037000773545 21.7684719790165 8.43865612631987
Cs 11.750249553410676 14.119257177547013 24.153317724497615
Cs 19.21374838187389 16.614573991618027 19.919552694716902
Cs 21.107976018109067 13.604416111704717 24.177011919959483
Cs 12.9465365876799 19.931286319478797 11.10962684738989
Cs 13.737863267089665 16.637356073294374 28.421564172407294
Cs 15.192942857533833 14.636617219937175 11.361571809662502
Cs 16.520524812873656 12.327031588832336 26.93294876200644
Cs 8.82868268024866 19.7583530287955 15.035143191890954
Cs 16.639874420079313 20.959661257742273 26.93324995861358
Cs 17.554267538978515 24.543383150506827 17.142120544133427
Cs 16.238308277410585 9.38651064530565 11.623869210720699
Cs 12.028853997526396 11.55020932604533 8.439263351288567
Cs 11.750939927557685 11.219124224659714 13.854115909157853
Cs 21.63689632719951 21.1121554658289 19.018651069359535
Cs 24.527516430959025 13.479165139567048 15.041179233277063
Cs 21.261311036187692 11.754883289863313 19.13582142290668
Cs 7.786960943944121 14.391682083493029 15.84134543421282
Cs 18.075653609436284 18.629225991485818 11.361479673692324
Cs 19.407959739615915 16.63118886127732 28.509071808115873
Cs 21.50965205790438 19.131127735446906 24.17360816074837
Cs 20.721491190122883 16.764928509897445 15.320067183614471
Cs 14.112075923155428 16.64164191654668 19.917919481026555
Cs 9.78335887459329 15.683826292645318 10.941574925181628
Cs 12.146822725307484 19.60209344298964 24.158044747614
Cs 25.484034521421584 18.868522073048467 15.942369834378082
Cs 20.335092288065336 13.345484821682392 11.10808057508566
Cs 17.03205274568437 23.87886935028348 11.62708193497864
Cs 12.013496911694492 21.503664507907224 19.14030066517709
Cs 24.289149203126847 16.104273129112663 20.209892761732352
Cs 16.392629612030124 19.78302165613728 16.112158212159493
Cs 8.992859553590815 17.144829230355615 20.19297316686344
Cs 16.777122381867155 21.373104134351184 21.51047372440772
Cs 12.562779666192288 16.486138419952248 15.326183747612665
Cs 16.642143774203998 16.632079532209897 24.15157322121749
Cs 23.486908712440705 17.680152851915462 10.950279378652848
Cs 16.128889421232017 21.229711757031307 6.995633883593595
Cs 19.522121371987673 16.834038890068246 6.84573242535314
Cs 11.632079893781869 12.15349461889266 19.0121148128834
Cs 16.885230896612512 13.48065111507895 16.112105039030084
Cs 16.494970025746664 11.887076022354028 21.509480070750975
Cs 12.68399314111915 23.756244855106452 14.642411742561537
Cs 17.143905893505362 12.043602437405001 6.99587023161856
Cs 13.74561601338621 16.476639096037545 6.851563300854045
