40
Energy = -29.19238224 eV
Cs 18.941811870880375 9.68946835971018 9.949999878422553
Cs 17.751579228953478 4.562092376960946 11.521074394455892
Cs 15.147786775884112 8.01279062636856 14.621103414398402
Cs 15.853507276262519 13.097563647093242 6.120054130829664
Cs 14.622944137242882 13.377232441015128 12.284875250959216
Cs 18.479794728445157 6.656405494913853 5.571435552251788
Cs 12.131030999978798 3.8791012525894737 12.970168422304544
Cs 15.127612840330745 9.222301123132425 2.115423073581056
Cs 13.522680204321063 18.031652260023936 8.416297056834876
Cs 13.9455148287036 7.620908107085362 8.279834533189842
Cs 11.330929870985445 13.79266360222603 2.6659370786586813
Cs 11.857100686559193 12.183393531542777 17.065094770690138
Cs 14.661592990640255 1.4997964557123664 7.990566529368397
Cs 8.395463281744735 6.76221743318766 17.05284700005029
Cs 9.389227564645873 16.11429663081468 13.236709039977583
Cs 9.97334315250921 13.376967779534803 7.86921750171901
Cs 13.407322521771574 4.415295038970086 3.492203008393931
Cs 9.97334315250921 8.425580938573365 4.872456644658297
Cs 9.222488766164078 8.961436169334533 12.39457130118795
Cs 9.64264496888642 8.53212547859277 22.160739290360908
Cs 7.101895849915911 17.966606952395 7.478731171456867
Cs 5.133566718718178 8.072675541696096 8.020769104507147
Cs 4.528850263574967 8.493537617486952 2.3895398290823278
Cs 5.825816547577847 3.628131819594099 12.680241651032567
Cs 8.664449635803905 3.5662986074594163 7.412171052350703
Cs 8.822809689306665 21.736677500511647 11.177534942639664
Cs 11.309378848515285 21.596650476446303 5.1263773725149395
Cs 5.359051467291412 13.416867998532133 10.12353726196638
Cs 5.352223730722395 13.74889633969797 4.606978067608822
Cs 3.0687679013763223 22.41299554702393 9.245313558881616
Cs 4.361966421568612 18.08756058948538 13.015072698665259
Cs 5.950474055495955 12.97444299017687 16.237690990613697
Cs 7.4747998031858005 4.021846050333736 1.975673117511249
Cs 3.778476656560074 8.132614732149388 14.070381961964747
Cs 3.0760611062414287 4.171832432797296 5.289794042371912
Cs 1.5954514868872507 16.732551104899773 7.867118720364584
Cs 0.32654147124711985 5.937389518580782 9.58536021097478
Cs 5.576567698338244 22.28697827014209 4.71376574008504
Cs 0.5845865405181212 11.167213310111759 6.3643222522348
Cs 0.6321789143745993 12.836872389070592 12.407136191279104
