45
Energy = -32.57987493 eV
Cs 13.122363977881012 15.958969066013795 4.843310479478926
Cs 16.55020061505332 10.405304455060444 3.8715001538229736
Cs 18.017254393213413 5.36940577041977 3.33173772931649
Cs 9.251086205864446 12.263669684362357 1.742350495336832
Cs 12.800454187519895 6.541789078109168 1.50508546094519
Cs 16.636830969932436 13.934588280558442 8.770706512786276
Cs 18.55451979539386 7.782407400321854 8.214517299542457
Cs 9.69010462794769 20.32110083582077 7.283044983177906
Cs 7.01177609772346 16.792429868431096 4.013346376281629
Cs 3.885489512613728 12.022235821689208 2.39935361605907
Cs 5.927915773072056 7.143601603532627 23.4486247266565
Cs 12.284278893392004 11.201305332950474 6.685912920175622
Cs 13.655685598829422 5.377140511591895 6.983210316004251
Cs 17.888676540329538 1.8115988879968388 7.023811217555099
Cs 13.49561772660043 1.1059594556698529 3.9222978563809097
Cs 7.386926495027185 7.029082801057466 4.592468550334021
Cs 10.285552278030309 15.006676520754072 11.330600087160914
Cs 5.5100853456301095 17.5847516674893 10.542998368990604
Cs 2.107500813027191 15.695410936115389 5.672914477667001
Cs 14.287964737337479 8.601173038703884 11.991691030218796
Cs 23.027538985031978 7.95399987450874 2.9335404522454365
Cs 16.937943397917227 4.141556314627844 12.719012388085222
Cs 6.480612668119275 12.829381170822385 7.2754149304287905
Cs 3.0848104858511722 4.1545864197266305 3.7445978580312334
Cs 14.619167714707475 13.526247757785363 15.2919444604666
Cs 2.6382699228849495 8.754492733945812 7.024230387193717
Cs 13.237096793212432 0.7428173353936759 9.46284757428576
Cs 8.226245320073987 2.5490262383943554 1.1493401873339009
Cs 0.8809187407939587 14.615510364556112 10.542998368990602
Cs 11.757890069926354 4.128284632548808 14.332226037315035
Cs 21.68383690695712 12.411791960090339 6.731952860276582
Cs 8.477864469970957 15.142758931331086 16.372741208244424
Cs 15.158700362869425 7.4013402559121415 17.18948562897569
Cs 7.684272720228444 1.8513776020966164 6.3222496956264385
Cs 7.961208561805502 6.730263343319493 9.601400319506858
Cs 22.386350995036654 4.691104424805585 7.000368759376401
Cs 9.460204911602048 9.179337395992633 15.152481611880857
Cs 3.3336985290675387 3.8915813795543888 9.30743035943483
Cs 4.938227403818469 12.008666838116005 13.331041748539596
Cs 7.151014674959121 0.6222423159612387 12.297548571294714
Cs 12.015561450586066 10.662935931132207 20.17048819104128
Cs 23.688972951428127 8.213387098380256 12.154821491798801
Cs 9.448779560715515 5.6411833089510175 19.76372637066016
Cs 5.907722650515365 9.992875532507465 18.954315020577692
Cs 5.247918134065907 5.770740467169311 15.009226643210756
