45
Energy = -31.76295158 eV
Cs 19.994673752914835 14.213203037330448 22.799417949407825
Cs 10.667219326105373 14.05879418504818 17.655807366643486
Cs 15.176360809172857 21.467863187515064 19.418740296516606
Cs 10.729833111048903 22.670387749833544 15.907158843257472
Cs 10.653614366587524 15.160891987693251 7.771748433717153
Cs 19.900165189707938 15.423247216521254 7.673582717919702
Cs 15.313320930349095 15.154350392010029 19.44024805672122
Cs 24.429784432351322 15.895012092703652 20.01079851820203
Cs 15.37259332173892 12.618866474090566 15.086625864117838
Cs 23.198423110123098 11.610948233456204 10.158748372056259
Cs 15.298441142125764 15.840551864143642 11.196206859206054
Cs 6.270583295453244 15.438027431157904 20.099117348407596
Cs 19.98576917273805 14.696253124214897 12.80630060810617
Cs 19.99411661121158 14.318589032456213 17.648580741659213
Cs 20.79742962581782 9.736043368898233 14.816078350177097
Cs 12.828618364266267 10.507113596426747 10.25050531872049
Cs 10.78228874679106 18.720261581253208 20.368965774911157
Cs 10.652373981562295 14.46494344202972 12.84178357096484
Cs 23.249164760120582 10.814248829475506 19.68224715599994
Cs 17.934912657286556 10.650831080684918 10.24610611194123
Cs 19.676066900618874 19.68911968364054 10.921452319114492
Cs 19.764415839542984 18.980288456998498 20.34652205481384
Cs 18.051651021969093 9.845580666998623 19.548113871465958
Cs 22.836821443015268 18.565121760775856 15.52845149127851
Cs 15.518184013543115 7.76151575673327 14.718272152986438
Cs 15.31094456806678 17.613527827836762 23.656711744077526
Cs 7.647362700128894 10.404358264241056 19.776294736201198
Cs 17.53166171863569 18.337384565301644 15.574525595694604
Cs 7.521698995727457 11.200403089640837 10.253805661999742
Cs 24.87921764123286 13.54991204056074 15.110682283358612
Cs 10.784292446942821 13.941064752241594 22.817257391533104
Cs 24.339660103963976 16.670363362532793 10.651146185469576
Cs 12.94752084895574 18.19081808870333 15.57244460916134
Cs 12.950802874523186 9.711126633880326 19.552148607997033
Cs 7.639044881153231 18.164391835363553 15.582753015263838
Cs 15.309471898103729 13.39592201512966 6.412859045918457
Cs 5.843325581254392 13.032978140771426 15.186997530795413
Cs 10.66313068472613 19.425262380465174 10.934931628748881
Cs 6.1225729655990495 16.161713680128646 10.71307092147281
Cs 15.449462139575294 12.02227577496131 23.78479238476359
Cs 19.520026003188374 22.95311627933249 15.855988572595521
Cs 10.115074144889366 9.442576918637515 14.88781326382493
Cs 15.084115977758328 22.0069437171241 12.180406730714616
Cs 15.173336417945182 18.855379990620353 7.376797276594927
Cs 15.035321481467362 25.563296410436713 16.121862665501283
