46
Energy = -32.8937867 eV
Cs 8.69407868020895 22.660864354507797 8.068948510126035
Cs 13.970937720826818 3.600190133879803 3.7673575252173674
Cs 8.262212341498543 3.9597697962861336 5.130875145460834
Cs 15.251840238375866 1.762673494829102 13.777819061712092
Cs 5.151489432697039 2.878684337108317 9.1960906152074
Cs 10.6877141472998 6.417626630886335 0.27818882501762004
Cs 10.546841927868561 4.0897383238491285 10.83009956871603
Cs 3.392485371342905 6.244047973626049 5.540509020034115
Cs 14.235212247461172 0.7417547758893136 8.268242252895947
Cs 15.63177701600754 8.747717696115874 2.444002343774295
Cs 5.2849858415780675 4.772128425829137 14.308274595332419
Cs 18.934631011701715 9.894567355625394 13.029192599245713
Cs 16.899057538847813 5.322227547676522 9.584496877965925
Cs 15.491852280046247 12.195388585247091 16.540176002115285
Cs 11.873843722951108 7.89185861914871 5.987832130944409
Cs 6.460969362051638 9.024222654906843 2.4481473123338966
Cs 7.135601343037725 7.907619135847412 9.085716990706732
Cs 1.9219439025323353 7.606632652447184 10.605292631479518
Cs 10.16721948641758 3.58216343865653 16.821791582323975
Cs 6.53956009719418 7.0790705654415556 19.36721803918287
Cs 14.141099034134395 6.896379586187951 14.875186153177715
Cs 18.056069252025587 10.04219368607568 7.233141418636706
Cs 10.769821974530581 12.155495949898661 1.375057109786279
Cs 14.084075725623828 13.663883368584122 5.729778334772193
Cs 15.572682335325974 14.85537354504431 10.519430656373322
Cs 13.595534062433371 9.584334709876707 10.23386206817921
Cs 2.563500028113328 9.39633624393492 15.656110642724538
Cs 11.21649301051837 13.362864325127424 13.680226173129034
Cs 8.799876743443207 12.632190997630216 6.988496910241895
Cs 19.428408779920346 15.307860993450053 14.48470016810244
Cs 11.21649301051837 9.324050719560606 19.47750968933283
Cs 11.289919691043835 14.6716230815607 19.74459256483725
Cs 3.422283322413363 11.91724917109865 6.523675841656903
Cs 5.9209532106860925 14.643770169261575 2.4269758214320816
Cs 8.933383035782759 8.45632123077017 14.523220840800324
Cs 13.724386107170112 19.26185145029638 8.14175017503156
Cs 6.632309487931178 12.646710546606364 17.293909009832
Cs 14.195364468360372 17.529015668434756 15.39383294347284
Cs 9.12789099477253 17.115151969769745 10.24105766474963
Cs 17.104348077452297 20.578390162008162 12.4963282358803
Cs 9.670431724002217 17.556770264958242 4.873250213437074
Cs 23.549123009738413 12.96980093845436 10.73845135549089
Cs 8.599612110164852 17.673411291640644 15.8819905978345
Cs 4.602659798752005 16.877352275409233 7.25643069059905
Cs 5.632372784059748 12.747685885790206 12.009237779531334
Cs 11.438565346700072 21.927503186082134 12.90141855317123
