40
Energy = -28.58819776 eV
Cs 14.21466470291347 8.450866394032202 2.8794529178124564
Cs 10.82101502714573 6.711086253002935 21.07881382213519
Cs 11.955467959044743 11.007571989686877 20.506060057790567
Cs 11.383547288930062 3.94815185840577 3.8120023426104863
Cs 14.872083593266604 5.938106260601425 7.6836586074715685
Cs 13.1620396803409 13.41409839623245 3.530878094935797
Cs 7.406815802579414 2.1942975394529625 6.606837238270723
Cs 7.049541837370443 10.506528179533516 20.785376772988506
Cs 7.535775505498319 0.3107976198183536 11.041449812692175
Cs 12.60593163825604 10.755879917847208 7.681014512504922
Cs 10.07509889731572 10.208273773084015 3.5394592845243333
Cs 15.822677720860954 9.813733697946466 11.149048306329439
Cs 6.880544165676546 6.439193691971313 3.1432306237193854
Cs 14.612117022633951 4.609307742546909 12.351737036602293
Cs 9.003158366181504 14.359292351556997 0.994958264261301
Cs 11.535591086240142 1.8002569246316986 9.551546791776921
Cs 10.068464817676988 6.44283323610143 7.780113440987256
Cs 3.49702299677914 6.3535119485307145 7.052473327642124
Cs 2.9987981659043013 1.6784716736808207 9.68897322824622
Cs 11.274850438477229 8.35199441421961 11.69380182131956
Cs 7.263616427957843 10.460508425532373 8.374714181716575
Cs 5.126750353697868 11.55449987337915 4.205319392895841
Cs 9.660944344714894 14.274205099663803 6.370179838330979
Cs 13.850169062382172 14.487313755100413 10.337297253602541
Cs 0.05869860213459323 5.2759596808646645 11.15752121833131
Cs 10.335735392345189 3.537302640864211 14.083112580888043
Cs 6.19698820117871 6.318219950533252 10.91314213896607
Cs 10.055061016978096 12.728486463480937 11.074351670457723
Cs 4.325485945191109 3.021441632791749 14.339963140293511
Cs 12.611187845567049 8.093955269528886 16.48718103978438
Cs 10.212062643052029 18.096124239354737 9.80663250743392
Cs 13.89846722388613 12.270482844041027 14.807039999013842
Cs 2.219369534184473 10.333118047087682 10.324969073067757
Cs 5.326997390142958 14.756579464714097 9.282733909725103
Cs 11.274850438477229 16.7903171439856 14.079823313247278
Cs 2.467051500088768 7.9666052027809116 14.88603134323817
Cs 7.690431846449057 7.680344016028278 16.230620989816355
Cs 5.544538264966927 11.345062875100929 13.197961537305614
Cs 9.529170942881288 12.226469960574967 16.491763544166457
Cs 6.858512554415571 16.825597558796055 13.25819048080845
