46
Energy = -32.51398063 eV
Cs 16.324269486837007 24.58220499681223 15.09620124865446
Cs 15.512210407910487 13.06635670207305 6.719139630982101
Cs 13.181840801567056 18.208429489326992 15.484946613973063
Cs 10.5693899567908 14.298003732210576 17.822722283204172
Cs 15.247907670885562 7.700360606222694 15.24245636292747
Cs 24.32285916198112 15.782021963011523 20.548858145607625
Cs 19.066738050976753 18.260662702697942 8.940267301728367
Cs 15.276301894787636 21.231111844018162 11.290168458292571
Cs 24.00736282119845 16.735311762479906 10.868898215858614
Cs 24.850430144574496 13.608835319192261 15.524928474293972
Cs 15.248635887139216 12.638882835439405 15.289051344598185
Cs 19.889720970202674 14.800840803327603 12.907135650727126
Cs 20.723831235917128 21.71360947509698 12.510081402972258
Cs 7.8137111723471735 18.54877669687091 15.51716297644361
Cs 10.837577751044654 19.066530380685208 20.291419308156115
Cs 6.076226893723874 16.14556477406973 20.0906409069752
Cs 19.72230250672011 13.975093992496756 23.052485849743857
Cs 17.833482503245406 18.79560386046588 15.527276046752581
Cs 15.300216346873615 21.619286793920676 19.515045513208687
Cs 19.611354690403317 18.67389579814875 20.857107898319104
Cs 6.0215495871784475 16.194808113356274 10.708818250260295
Cs 10.475372377142406 14.511132797547933 12.968936717928402
Cs 7.231155080389953 11.146323219019761 10.690723021717385
Cs 23.05423181473194 18.506721804874562 16.16813726691673
Cs 15.104187600118797 15.65390198625658 11.156588972504084
Cs 23.05706771032383 10.727379965506685 19.891264573285948
Cs 10.423039329380682 19.351453467474165 10.841314919465729
Cs 14.094223501445766 18.242952751043166 6.794405704802756
Cs 20.317629021084795 22.939927536106588 17.828208915034054
Cs 14.993460061383862 17.643243019639677 23.96876621678434
Cs 9.849307311643637 9.626617339912814 15.253772534998454
Cs 12.62718171005552 9.893169024942246 19.778050743867976
Cs 17.987569863110807 10.299507240597185 10.707222868545706
Cs 10.428836622554803 14.403870778765013 22.940500473283503
Cs 14.96638349146495 12.140348984114132 24.024776038178523
Cs 12.744490085357336 10.31569891258118 10.710294188225902
Cs 11.373159214917917 22.88922051018295 15.399272368572941
Cs 7.386633665588994 10.966594982720068 19.98874234570214
Cs 5.610196875905923 13.574779726081136 15.372929083215961
Cs 15.242754571749208 15.346332810668386 19.62771837211259
Cs 10.417154769779817 14.545692880617827 7.815811661635582
Cs 17.721435906752507 9.87696429656597 19.914315467711315
Cs 19.89156524347962 14.299967576296469 17.83279611300052
Cs 20.607959404416405 13.6066973761489 7.542571667820861
Cs 20.595264781042207 9.750388815955045 15.249723257264769
Cs 23.632589043874 11.365688554458304 10.999113623743954
