40
Energy = -28.64101279 eV
Cs 9.72106138973217 3.6902642932202436 0.38014869239314153
Cs 1.6198655137085525 9.601824107602619 7.125845742359197
Cs 3.791182485714147 4.642500576870638 8.365564606449016
Cs 7.682703501850491 3.081379868446875 5.304450020111153
Cs 0.5082042116620324 12.363027884987316 11.23781443054833
Cs 1.5796063068936386 15.510462808499113 7.267436237882821
Cs 4.509317198548924 13.017451915501598 3.796252501164228
Cs 6.025005470662124 3.40161241993493 13.045699208378839
Cs 3.7894021310849255 8.203376376605476 11.971497344447586
Cs 9.737947104119543 0.7559883799335584 10.023521599615352
Cs 11.669440852262776 7.099878560995327 3.381448158622055
Cs 6.855274604563027 8.62000211957836 5.337985509701712
Cs 6.024282858050794 12.507015191249812 9.165916392652141
Cs 3.5387795980736154 16.75487674325633 11.940699936968043
Cs 9.43571850834842 6.041354034015166 9.545139599396656
Cs 4.917098280677829 12.370238859820583 14.979561823912059
Cs 16.213884420134825 7.664397172630853 6.530183121309012
Cs 11.076349611569018 4.296778128047568 14.342477726115401
Cs 7.149868159168514 7.581275383704026 16.470052632284734
Cs 12.761866269732044 2.714387582457736 5.873508085177218
Cs 14.696207675946296 4.074398600868092 10.443232877884771
Cs 11.8077605659084 7.226825916237921 18.967739969813113
Cs 6.831938123347545 17.71804317574883 7.916633292662706
Cs 9.43631382167665 10.661372529455662 0.48485140848574576
Cs 9.298370292888789 10.389504125496412 12.367119504868086
Cs 11.818349416718151 10.389504125496408 7.403009850169128
Cs 13.900905400401681 8.896947563432722 12.093412586908155
Cs 10.148051742173745 11.939686926268376 17.32475028484675
Cs 9.629895558941785 13.984673990926074 4.524716882471415
Cs 14.683236364925154 10.833309946759705 1.8451030866170048
Cs 8.617811728885055 15.818311775133617 13.318450800864664
Cs 19.734767285391882 7.516507002628068 10.572277261263519
Cs 16.330451580580277 6.00823581698991 15.38876758114814
Cs 15.247879447226703 10.710853100318902 18.26883562873569
Cs 11.522089173768219 14.987550212349452 9.475566516820829
Cs 14.848831778927824 14.54261407140048 5.442185844004454
Cs 17.192545880875773 12.076581545690065 9.587081073030468
Cs 13.853051789507214 13.730452764503742 13.87516939917828
Cs 18.68501832860536 10.701853703954955 14.44834170194781
Cs 19.51719380081885 11.927231106623724 4.765343322906913
