40
Energy = -28.41795818 eV
Cs 5.139796493781072 4.722809305992244 13.391092326332256
Cs 8.20874623158097 9.068812423481017 15.901236771213098
Cs 10.747741042420028 4.443435857776761 14.580718473016892
Cs 3.1363673807367793 1.1270165363777775 10.455288329466423
Cs 4.201492856386069 10.038830009782565 12.159872167287045
Cs 13.129970197795839 8.156558119504068 17.894923394442657
Cs 8.624089010378608 2.046323353957918 10.192475773271934
Cs 5.278410229490534 0.6090615972311542 5.5349716726819675
Cs 0.740819817094735 6.057586394147073 10.627456509147306
Cs 8.472991695361323 7.51344899326397 10.833723254297146
Cs 0.3379775529220834 2.978656435349654 6.211790738830988
Cs 8.326551014761996 13.116976310513877 12.590808492956533
Cs 13.2765444493048 4.208622530529235 10.442145539748005
Cs 21.786507957144234 11.247125884289652 9.809454089470474
Cs 11.663560977508691 12.586542612883886 16.415985852973826
Cs 16.038415166541636 5.663896737849529 14.299219345208579
Cs 16.71154262971749 11.128859679088904 14.179597559407007
Cs 5.285192257485793 5.260434764805385 7.922102473359632
Cs 12.322690384678797 9.26461485836038 12.45720621319479
Cs 9.242060357156275 3.5304639895580823 3.371445290041648
Cs 4.060460582386394 9.91462361467919 6.874517473033274
Cs 10.867790993115992 6.590071599765184 6.864196865536504
Cs 4.327153598283834 14.180783288751616 9.385523103898032
Cs 21.242035531714304 8.054755144480325 5.532092664051309
Cs 4.0727967207480615 5.523357775075022 2.888201025148474
Cs 17.63195443580452 8.060243737035748 10.047979129736762
Cs 0.3688153900941151 13.289448562951275 5.161083354681047
Cs 8.760630416204592 11.247125884289652 8.164635171624463
Cs 12.796057396098414 14.43461315283199 11.344328758924293
Cs 16.07545797160368 5.426269670714098 5.784069430445934
Cs 13.39884619355386 10.691450668536163 8.031750935136362
Cs 9.531239607822974 16.247333701474012 7.918429618556161
Cs 17.526505241604053 13.265922080951803 10.01898909105811
Cs 2.9932129342975635 10.716692049461766 1.703006300336007
Cs 6.046753735399447 14.168363899746561 4.199935673392433
Cs 12.870107902733972 7.916068793154785 2.3318911310779282
Cs 8.050048444474825 9.245662160712895 2.9941287335907263
Cs 17.20185480315583 11.15725780965802 4.738420719634233
Cs 14.30718244071444 15.516817892717572 6.599669975800331
Cs 11.10567564422982 12.831288433088838 3.642124470395768
