40
Energy = -28.5945923 eV
Cs 15.805166804832503 2.7077897735664544 13.192645672215178
Cs 11.596323790982932 22.119513639000942 12.948544877106638
Cs 11.995797000471654 4.513855241363977 16.90915746975595
Cs 18.239423137121662 5.313139320721536 8.541801014862147
Cs 13.735747857829573 1.8683944292298966 8.111102786375
Cs 15.979125949376575 7.833460660134197 14.002046983871372
Cs 14.280453303332274 5.217275279086783 3.885321022303156
Cs 6.776671604873413 1.8503315949134973 14.269727458357716
Cs 10.801143388248413 5.179671070704698 12.120335469056043
Cs 17.997530496166345 9.441155588680575 4.9454201781563265
Cs 7.9928853252594205 1.0444394245026856 8.667908999923922
Cs 19.196946300068614 10.523780365834593 10.019581157920127
Cs 10.801143388248411 9.94506940356931 14.911989806010727
Cs 6.6613819808670005 6.632660371683075 16.250895434782905
Cs 9.989278723991246 1.1899052458834758 3.860881348011956
Cs 14.147209529319579 8.525970014446568 8.786614553140963
Cs 14.682293147063866 13.32249144209643 12.292171902977161
Cs 9.692262190668048 6.008195045498345 6.916203042507945
Cs 12.418076230671726 10.369933708927208 3.725680470990684
Cs 4.369586068889049 4.612785491679299 10.012053088113948
Cs 8.926072137137242 6.258559970015903 1.7463613904464461
Cs 5.728749008859477 8.921599435279068 5.582319467950319
Cs 10.380873445599407 12.807489580985447 8.394289229307374
Cs 15.486390840746399 14.12362630343016 6.6521833277107
Cs 5.203523797774958 3.5761269864137986 4.791629309306055
Cs 6.776665010122828 9.18969283272392 11.334721615047135
Cs 2.080257164793813 7.867697808575238 13.813540147791164
Cs 13.60498374391161 18.14293885885148 9.727090363915861
Cs 1.0598322719129147 8.502281255652909 8.118972815611018
Cs 5.451844678186367 12.243052402253886 15.602936158893245
Cs 9.364463129551575 15.183732757121078 13.472826198510417
Cs 7.458912193943981 13.478459721512703 3.474121322299707
Cs 5.684610764197851 14.089155418032297 8.983491251928971
Cs 1.8744073808507977 13.614603135941248 5.601224006999981
Cs 10.799498122716487 17.21032595428727 5.201957926833032
Cs 1.337090493148261 13.06764302674917 11.866367097570079
Cs 4.389971036391654 17.19572660833197 13.870401110619115
Cs 7.997927343686869 18.69030496490637 9.712111033109714
Cs 5.469541687731308 18.28277506226218 5.094471770276602
Cs 2.0136737811535372 17.994981179657664 8.934986446017504
