55
Energy = -39.47509702 eV
Cs 14.678200742964174 14.678197531882006 14.678197105330543
Cs 14.678642378369947 17.714699781490925 18.950160613307354
Cs 14.67838206739737 17.714496150562784 10.406028115879057
Cs 14.678014297653672 11.641906173510709 18.950368648338202
Cs 14.677719251629412 11.641706842831141 10.40623096786441
Cs 17.715104908962303 18.949903123557306 14.678337549154262
Cs 11.641556039774922 18.95044906037263 14.678508576782239
Cs 17.7147883998633 10.405970038746288 14.677944209464103
Cs 11.641258609759394 10.406509485708607 14.678066448173917
Cs 18.950058988897137 14.678796228969663 17.714478975863774
Cs 18.950284711596616 14.67872996164528 11.642117539897146
Cs 10.406091714795728 14.677747075250783 17.714263100946685
Cs 10.406338028436176 14.67757575562012 11.641935058150398
Cs 6.000816896940094 14.678183771342054 8.987300266533973
Cs 14.6789116371532 20.369255894906672 23.355443118111943
Cs 14.678436542665274 20.368887846619224 6.001351384066042
Cs 14.6779747122204 8.987517420537522 23.355009336438727
Cs 14.677488111681736 8.98714127147374 6.000907555521444
Cs 20.368385922157415 23.35651240422726 14.677967906401719
Cs 8.988203669630025 23.354949394472094 14.678706661223762
Cs 20.368181100892116 6.001423445710343 14.677752137554736
Cs 8.988012434457293 5.999893498673629 14.678424709056992
Cs 23.355588746535556 14.678181889102968 20.36910610785531
Cs 23.355307891326973 14.678385459850094 8.987524289121211
Cs 6.001115234986026 14.678039296806874 20.3688473494079
Cs 14.676189975283878 23.303591293052886 14.678821691299403
Cs 14.68022436704651 6.052803300922872 14.677575748523175
Cs 6.0529536750342325 14.674678145655406 14.678687678031011
Cs 23.303471949927022 14.68176090276338 14.67773740723394
Cs 14.677270003177739 14.678980982878084 6.052892742683809
Cs 14.679144252916144 14.677415346300519 23.303463593841997
Cs 17.642913467386602 7.264064164851616 19.20904455541371
Cs 11.711981114736611 7.263904793103878 19.21005004900812
Cs 17.64293161754466 7.26336615789547 10.14849850295513
Cs 11.711497387214038 7.264436441887545 10.146509715816261
Cs 22.093270650905517 10.147301302437642 11.71461922062778
Cs 22.09342221739018 10.147072761454893 17.641770443767268
Cs 7.26315706416063 10.148972712822143 11.714574539345435
Cs 7.262505092902331 10.149515604905924 17.641358432174158
Cs 17.644418638497726 22.092508718723153 10.146354070977486
Cs 17.644906626318562 22.091928137073126 19.209880560480304
Cs 11.713490977565948 22.092333061799103 10.147392950930815
Cs 11.713429885426386 22.09299781226527 19.2079169943029
Cs 10.14846543317377 17.64297295303294 7.263439456566752
Cs 19.208407948159756 17.643845022426472 7.263898501000544
Cs 10.148145567070845 11.71228200607928 7.263751669091119
Cs 19.209275861713788 11.713153944012598 7.264104415148129
Cs 7.263197888260899 19.20900260626302 17.64176017720558
Cs 7.262976848145985 19.209333279592975 11.714723724643392
Cs 10.147996176104016 11.712521883969451 22.092460056282746
Cs 19.20793651685036 11.71338501929593 22.092972335068072
Cs 19.208293456417053 17.644156589107624 22.092658485508196
Cs 10.147070452758989 17.64329243558461 22.092245374545556
Cs 22.0938885414705 19.206892628077807 11.715040947084669
Cs 22.09330330569286 19.207471187894296 17.641818229996108
