5
Energy = -1.94679208 eV
Cs 8.095530500070058 7.168094411912348 8.950907051908771
Cs 9.63939262416027 3.879037118031293 9.472045362798173
Cs 6.835268872697564 9.302675553831305 6.115780843342962
Cs 5.051366642195495 9.302675553831303 8.731819604450713
Cs 7.898603816101332 8.787413968015787 1.7664856182804674
