52
Energy = -37.11301164 eV
Cs 21.567637881702943 10.50232088931363 13.087383105668323
Cs 8.345932850722184 16.033547737185998 14.566640315956818
Cs 21.702148225661077 18.397412847432758 22.675404299786564
Cs 16.983797211032353 6.197935265651837 19.40908246860699
Cs 12.524354159047315 13.288107975874532 22.111417936208742
Cs 19.581066535732646 25.05346280815819 10.70900828934252
Cs 9.44429127875099 11.171010912981156 17.658069172545115
Cs 21.547525839205065 24.8816233734902 16.07182287801837
Cs 21.43210591362319 15.363358275970779 11.196557164182712
Cs 16.983641027459754 24.221933874183186 18.825004825011057
Cs 16.99101382516415 27.77012867998149 14.832810616448281
Cs 21.441050374554212 13.234934356653072 22.2345467420282
Cs 14.722320129675943 20.31907692596676 9.135299484924321
Cs 17.01010363662661 13.137135708255046 13.963780743139308
Cs 17.023235734915914 15.564501252904892 8.283846118398628
Cs 16.99217770539224 26.28989491892134 23.64519647699622
Cs 12.384031927392835 10.52141809887563 13.07807471870352
Cs 19.81108289478439 19.968166516843635 8.892271508952158
Cs 14.410718650664998 19.94273208669624 18.065041993978873
Cs 14.078820303051153 25.325300278228692 10.942420412640157
Cs 22.11608113706258 20.226407426426885 13.478378923805566
Cs 19.55151136662668 19.936068593917557 18.12496780072963
Cs 8.34778416002434 15.76046411072699 19.954605385917855
Cs 17.104314143302716 17.799653081668378 13.473843620869554
Cs 25.658758654907793 16.025807483702426 14.699532540574673
Cs 12.679401069654556 15.49387553516281 11.183131481191303
Cs 16.85127586871944 10.513254184985556 9.698154871948503
Cs 25.61422208123128 15.760916913721184 20.085840074910283
Cs 12.817835930636383 15.503402840052111 16.606352674506937
Cs 12.35295865710887 24.910607811608976 16.161362714511913
Cs 14.572395074445984 10.899755940802741 17.940451440312078
Cs 12.407399381936774 23.743058858378678 21.565981261504678
Cs 11.830493329123241 20.28250885015483 13.43381574188171
Cs 12.253946121061555 7.9334409114458095 21.573349128799126
Cs 12.139255455636931 6.472018304286211 16.572746614940648
Cs 16.949268069992478 20.8544980702051 22.984873680435726
Cs 12.20944458553208 18.397825208582656 22.63208357737094
Cs 16.986901646162234 7.625488838264056 14.179877749498125
Cs 21.72467273614437 7.8669246458106485 21.63747632101126
Cs 16.97787955802815 15.644719202128151 19.798459775666526
Cs 19.36741631592352 10.872181853592354 18.031411282841702
Cs 24.59367551092718 20.493205269390494 18.21468620871025
Cs 19.686150037868206 28.572376390819528 19.680769996181038
Cs 16.981252825678308 15.773654282063662 24.798625018907924
Cs 14.279298521432093 28.478854852508697 19.686679863083246
Cs 21.165964850815698 15.487474704132948 16.722466621132195
Cs 16.967789723155004 10.427622009679856 22.893131713465348
Cs 16.945764002063278 22.472971245878767 14.043022487901894
Cs 9.322559983948727 20.494050848212094 18.192816889113057
Cs 24.480704835872938 11.116191139723597 17.7152107415964
Cs 21.545174460042826 23.794889908221467 21.556180971979792
Cs 21.830657799775306 6.471091900175025 16.585297553162768
