5
Energy = -2.28879294 eV
Cs 4.8782379763140025 9.709587794041553 8.523519374342754
Cs 7.967273111161986 3.6859189216073407 4.7408263908211685
Cs 6.1098695524031355 8.059238319308763 12.093517734447692
Cs 7.967273111161986 7.475552877453346 1.9615228559053552
Cs 7.403632704125183 7.367249107681171 7.713647045777968
