52
Energy = -37.74356698 eV
Cs 10.036769312318741 7.891425826809131 22.043858276334788
Cs 14.484091188057821 7.196801981567987 0.7398456058295206
Cs 12.342674575080244 11.940674763388856 0.46543712793549247
Cs 11.010051998711194 3.326009339337233 1.3040076567846446
Cs 19.371939898569043 7.871773053352972 5.46583719551016
Cs 18.665542115015086 12.200097575923852 7.7742490048637265
Cs 7.1955538105809405 11.672491200776188 0.7463397042402995
Cs 14.215154685578296 10.452261442241468 5.201218063364762
Cs 5.382062604631254 6.539698003799202 0.18786054763250154
Cs 19.095577680922585 3.8511542193050343 8.695800326311648
Cs 10.304940859120547 7.9115406508536 3.7156742402743403
Cs 14.631096005642673 4.906138799605914 5.4913097167170255
Cs 20.012685511683486 8.683608120125195 11.015781339788704
Cs 10.707760464196936 1.6978476600834373 6.671123423036813
Cs 6.537019186497881 3.3376275367102 3.9826328236465622
Cs 9.956435480727938 13.385306630582498 4.601434291909711
Cs 13.52863632455371 13.94057620265062 8.57275474943584
Cs 15.20831563770978 8.416586329333715 9.797564018128337
Cs 14.117359165493852 2.6378077568522937 10.562613731453299
Cs 4.5314706880688185 13.536460476471165 5.204557490099156
Cs 17.05621560608779 13.417963773254659 12.203485522809324
Cs 5.840147191386891 5.077396771551083 8.849403677327322
Cs 2.0624785129100682 10.319305608792293 1.822759549489272
Cs 5.7547063507873 8.955189257303507 5.485591513240581
Cs 17.744086858965908 4.796861016912747 13.275246315118345
Cs 1.4054044534934012 5.88249903423654 4.918475345396652
Cs 9.783106753670696 10.881548817136983 8.650700958712518
Cs 10.994903830061626 6.283294665428459 8.794998286796174
Cs 12.25972390613008 11.32986494062575 12.405801376337529
Cs 0.19545061341058875 10.991864388445906 6.858451972685548
Cs 11.797497512066988 16.243021246394356 12.47456708939408
Cs 9.191727205658866 2.8890409928097003 12.070533996888743
Cs 12.49352113831894 6.250989458791548 13.706370239078339
Cs 7.633011721688326 14.893074793536416 9.662384502996947
Cs 16.659224246780813 9.642097150603004 15.159614601650038
Cs 4.133889624229885 3.9907558181261567 13.271686711857962
Cs 13.565325053379375 13.803857957521213 16.775887192615933
Cs 4.520990119397093 10.863776735206155 10.187601736744755
Cs 0.8936978376347812 6.806708474810533 10.186216084674838
Cs 2.226418136860389 15.440634139577435 9.532807286672213
Cs 7.917832316454397 8.189968922813101 12.609896771145037
Cs 8.418083233136082 12.73640419140608 14.650214319860721
Cs 11.403882824850584 9.527035152575898 17.32795311743319
Cs 7.759736804832281 5.596714573312422 17.19389234314821
Cs 6.562898902166961 17.85247145678509 13.437945876980406
Cs 23.116362711254283 11.94067476338886 12.06284527721385
Cs 10.184503911346335 17.595374183546415 17.337978799160766
Cs 3.439836241162797 13.704779220868442 14.076248280115953
Cs 2.8972491632654114 8.867312546349773 14.466780193817268
Cs 9.915583451367228 13.352954946983107 20.363707641902057
Cs 6.019841095074499 10.329059147368634 18.824109303300535
Cs 5.482458990327117 15.447934425197136 18.548255251956203
