5
Energy = -2.18447499 eV
Cs 3.6348782177383634 4.545468926342285 3.2769342584433514
Cs 4.42549576089414 7.07834603038475 7.351808450193965
Cs 8.004915261911698 4.410103395079957 5.414145572722975
Cs 6.5493861239384605 8.616848667374402 2.9387731249764646
Cs 4.123637658355117 2.0875470947228236 7.756651616501148
