5
Energy = -2.19814251 eV
Cs 8.003364287263139 8.125075513991844 6.963323169256003
Cs 4.491133594221213 4.20169123403936 8.442546755977585
Cs 8.003364287263137 3.5049985152040115 6.601051350490428
Cs 6.7810010782044605 8.255958224719398 2.374717739373729
Cs 2.7930696760928835 7.707480801210095 5.337594530201245
