5
Energy = -2.24131378 eV
Cs 3.3406056034117233 7.7508895758002065 4.185554951677745
Cs 7.717857178268365 5.1647234944383404 4.185554951677745
Cs 7.717857178268364 5.208077982592197 4.185554951677745
Cs 3.2842204363401564 2.6608993510442644 4.185554951677745
Cs 7.576500458744752 0.1431843545135934 4.185554951677745
