5
Energy = -2.20181588 eV
Cs 9.093112479084501 8.035799548214039 7.102795958854057
Cs 6.582730870810548 3.6876588749477452 7.593925151100633
Cs 5.142862378469479 8.03579954821404 8.804386730836582
Cs 5.226856772171449 7.774086137349215 4.034960039330614
Cs 4.261413957235319 2.988144056199139 3.2895875616480432
