53
Energy = -38.70572022 eV
Cs 8.299905192542658 9.710344648391796 18.849639107154445
Cs 10.532163973272173 1.0197503906758754 13.597466577363218
Cs 5.02935196014521 2.812961685231535 14.702211652659491
Cs 9.023308145787388 6.130430419777067 15.25200554294709
Cs 3.6377695153022414 8.664493441802449 16.815408524624004
Cs 12.51680437972689 9.299845186026767 17.331408444002314
Cs 12.671433112103198 6.65992837411941 12.528050212006741
Cs 10.546609377957669 13.755134027101924 17.618896504169975
Cs 16.790954487831648 10.124726964287948 12.526626497134295
Cs 5.873435247832433 21.346391106288216 11.798452335861636
Cs 5.27962454918847 13.455114572285044 17.609091612264113
Cs 15.269486080514955 13.055687349301936 16.817655710936002
Cs 10.255836314524126 21.88659656435088 9.007297674775636
Cs 7.925391457070017 3.883338398214614 10.546234636288142
Cs 12.639266914170461 3.4749177756101397 9.030663612758897
Cs 7.9037308637577235 11.252977070824079 13.767174847096829
Cs 4.732068991815731 7.4786892527833295 12.071117215669078
Cs 2.1547395183144658 3.0737649234840667 10.671677852091268
Cs 2.2461305199250274 12.096218496334398 13.516427367698595
Cs 17.066449415705566 14.84735443771088 11.969776535924003
Cs 17.76198455754587 5.448052143779089 9.421967382388884
Cs 18.56916061659783 10.931739936421085 8.347435667928833
Cs 12.656671950996747 17.33468723706342 14.715046401127207
Cs 12.032477541336197 12.007481090781388 12.4445556039455
Cs 9.419405858418134 8.767318174556133 10.093822813803108
Cs 5.290343300301484 1.0107631287891627 6.660653891992856
Cs 13.873469542105125 8.615912103134468 8.319913801355504
Cs 8.196632058915407 15.836233624792229 12.803878190165756
Cs 4.380204838439275 6.586586234227161 7.44992427092375
Cs 14.426095591309537 13.196377476978695 8.468078547132503
Cs 11.666101179024217 17.20672948076838 10.254098375620726
Cs 0.04978698828442618 8.734422701513202 10.691862907112919
Cs 9.854957550566933 6.406646441844036 5.586899902005516
Cs 18.29361008285162 7.50042548523527 4.466993675022761
Cs 13.89500922287939 4.614161487054723 4.171406276693343
Cs 4.739840608831944 11.252977070824077 9.69138179451264
Cs 9.850379939396653 1.4277351453221379 4.046361571628871
Cs 10.827443114757235 4.939588004356022 22.288538881753468
Cs 9.41378713961752 13.07846415611239 8.210109168525399
Cs 3.905770317021621 16.492939322205416 10.66721070913767
Cs 11.555928633246223 11.113483313685004 4.737663518804421
Cs 6.004217001139558 5.271133802337673 2.3805976250500147
Cs 22.16704882457815 13.62000999513774 9.72079336963126
Cs 16.486304478676075 11.938820352073577 3.511509898065221
Cs 0.6206712208635736 10.800170385315202 5.5725000655032595
Cs 12.20635961328768 16.072480176242077 4.747830232380864
Cs 7.638616079357281 18.005500441098583 6.952410705377549
Cs 14.180153758861145 8.454837165590128 0.4847075539420459
Cs 6.259535543052142 10.528169575095513 4.758979280412258
Cs 3.764647263344454 14.583100256341144 5.579209620587531
Cs 9.56012823909595 9.828533168672825 0.8845066418425555
Cs 12.65045829839961 12.93108616616875 22.19141237175693
Cs 8.458797997339031 14.285261229413575 2.540818868133645
