5
Energy = -2.30314789 eV
Cs 9.697658323362393 6.951029159104197 3.976042867225501
Cs 2.5492949284057396 3.769769860544234 6.785229679814037
Cs 7.280837088590949 5.291861425848185 5.5523047266778685
Cs 7.781023052652051 8.02586962638728 8.516179183465633
Cs 4.802371106931789 6.951029159104195 8.623645270947398
