5
Energy = -2.31327439 eV
Cs 5.081456788512044 6.652426079960732 8.482758342253337
Cs 8.668844580579382 7.301831760922163 3.4187149735232674
Cs 7.151966135887421 4.588417578669784 6.027089555522462
Cs 8.66884458057938 7.714391674443117 7.636489270161095
Cs 6.561956491370554 9.294842954043395 10.18207795842863
