51
Energy = -36.31537479 eV
Cs 12.366953066226316 10.878389288560035 20.96209596605006
Cs 25.643376839191827 15.71583501869587 19.345771913615994
Cs 12.360901682013575 18.387275786678025 11.552724351590973
Cs 16.933473977890937 6.302122976661923 14.790190574697165
Cs 21.485323145878777 13.285911215479834 11.810925867497765
Cs 13.368872693681212 25.244463879877053 22.619468433054394
Cs 24.46164217741094 11.143625310687664 16.12370542924209
Cs 12.09174255504511 24.9868916503552 17.57702066970399
Cs 12.62915118476936 15.702220768226885 22.82932690038381
Cs 16.942549753798577 24.303218566452838 15.316051941681598
Cs 16.783968239369948 27.93949196173958 19.059106962207153
Cs 12.48076661134164 13.185851280328869 11.689989708932584
Cs 19.604674769423273 20.279289039364592 24.97482271408713
Cs 16.938974872015987 13.43206781971247 20.015128163399964
Cs 16.887663564308056 15.900133876910864 25.94725412888067
Cs 17.065201733028402 26.076235040324054 10.352380747108246
Cs 21.753262742852563 10.86655436144405 20.804384286445867
Cs 14.380112093902412 20.42845150059043 24.984512357206782
Cs 19.607647620129924 20.15512751583163 16.106352610692284
Cs 11.688175640371194 20.415758134311837 20.5413392922765
Cs 14.436097708067571 20.176980670560997 16.160731882619977
Cs 25.659229633130366 15.836020703263202 13.96986379078395
Cs 16.936871549258 18.13792611334546 20.546969524294685
Cs 8.328929001537762 15.979775216399728 19.34405094558009
Cs 21.200816806987458 15.533871941105469 22.917978198731582
Cs 17.334605967392598 11.010676781331554 24.433021640668766
Cs 8.321874348664794 15.678360907148338 13.895226903524064
Cs 21.148927990936638 15.61738393482932 17.256042706928387
Cs 21.754512681638623 24.976932494424897 17.871820222859093
Cs 19.34217313502817 11.016416386552551 16.00181818482334
Cs 21.61634820503988 23.781446567267846 12.490445278079324
Cs 22.424544717976275 20.14606753006353 20.552329559610772
Cs 21.632658168123527 7.904864484499201 12.484363603194002
Cs 21.74840881363415 6.586956075452778 17.589391297692572
Cs 17.051453080581435 20.81991039220486 11.149294045223705
Cs 21.75161191966267 18.420467297493392 11.437032332600783
Cs 17.054134898309062 7.913165807202078 20.12681661450969
Cs 12.212820706430726 7.910598030958208 12.644607458931599
Cs 16.938052735231803 15.828372297725323 14.238208875795701
Cs 14.561793237400211 11.018040791298528 16.034422111954964
Cs 9.287574667501312 20.425435965736195 15.714639055896251
Cs 14.238877392551283 28.541150301101215 14.12803100516476
Cs 17.053271372156075 15.70562642713179 9.26748572218078
Cs 19.73712768982739 28.492967555835158 14.366948941016032
Cs 12.753569802588764 15.590061954020634 17.196098514975173
Cs 16.934942917315677 10.473892866809932 11.150778154345794
Cs 17.467460989188687 22.97420212153578 20.550826403647623
Cs 24.70926465459277 20.55264421750653 15.849394445240623
Cs 9.413413342414874 11.141914240040261 16.377169478476716
Cs 12.453187087645317 23.73705927840206 12.255482379209814
Cs 12.231378316536858 6.652264156520213 17.806526202685042
