5
Energy = -2.25298163 eV
Cs 6.263547487499155 5.779049408967555 9.116442427802726
Cs 6.880030454359584 3.162536208465378 7.047692139387273
Cs 4.769610076731295 8.820916679334099 7.299131856292743
Cs 7.739091375137924 7.252775258906263 6.425172508304633
Cs 7.739091375137924 8.999353860588123 3.8425607952652117
