6
Energy = -2.99412473 eV
Cs 9.134574126528275 9.612685440327983 7.0922367197840614
Cs 9.120351368743325 5.633106864075879 6.20462743995946
Cs 7.45079628149962 1.5717571195480398 5.10223128485189
Cs 5.898299097325392 7.93965699596069 4.889526938465404
Cs 4.691358282086694 4.58531775601144 7.998883229343752
Cs 2.996882545095386 8.276590295254545 7.998883229343752
