6
Energy = -3.01381129 eV
Cs 2.7931507516826075 8.382801030713562 6.194483659213534
Cs 3.9440021209833773 3.557429139084756 2.657355006499394
Cs 2.6588971248754993 3.5510880697953744 7.477610996656065
Cs 8.398779309428974 7.506564793837064 3.58001477809357
Cs 8.264544732695914 2.6748972813500305 4.863251157844539
Cs 7.113688300321866 7.500283116273788 8.400346741681123
