6
Energy = -3.02941181 eV
Cs 3.969297638882559 8.608534913851077 3.4298132125400516
Cs 7.938049504421553 6.837475985410438 4.823971800828038
Cs 4.307049841295453 8.508838585108824 8.403995920770196
Cs 9.050106657926733 5.739447550490946 9.086561363462039
Cs 8.206496836564156 9.67604131165561 9.704416268840403
Cs 9.050106657926733 2.5094263575259763 6.215564037291235
