6
Energy = -3.00375296 eV
Cs 10.388134943545182 4.026222091675056 5.512021990518419
Cs 5.883084269713877 3.7670675572505212 5.401842625423062
Cs 8.68720466350633 8.467569176974516 7.146526268665556
Cs 4.058479062448407 8.467569176974516 5.180726084579238
Cs 2.104676360556178 5.596582790389471 8.255084917487007
Cs 5.28842317409579 9.963037582808504 9.28157443446168
