6
Energy = -3.04021039 eV
Cs 4.728572867750593 8.031867439055734 4.483752249203683
Cs 7.197483261122258 5.008842607871002 2.116503921674062
Cs 5.908492072853733 8.30176726499488 8.302728762356177
Cs 6.378686217588506 4.044656646301167 6.983506072025484
Cs 8.058304787758715 5.41851336715765 9.603127308194537
Cs 8.074282995933647 8.031867439055734 6.187182349851138
