6
Energy = -3.04990285 eV
Cs 10.073300572403804 8.80001770150919 9.166581060792977
Cs 9.734112553448542 7.377574088865674 4.02571204174803
Cs 8.527379101369334 5.4794901802215765 10.952630681183994
Cs 5.998211671570939 8.144225232205477 0.9413107984387894
Cs 6.286468120718731 8.800017701509189 6.293049181853034
Cs 6.162888760229643 8.417136770304266 14.153033184042224
