6
Energy = -2.99740277 eV
Cs 9.300874934217852 5.560095033115489 8.92635456472913
Cs 11.55193412583133 7.309772950917365 5.145811846201968
Cs 5.90679006538849 2.6158949432138083 8.050221843211379
Cs 7.264779284882554 8.443303423583117 5.8718231010669735
Cs 3.399586377078152 6.8237068461544395 8.92635456472913
Cs 2.4654727185374363 9.816550473829574 5.203915343130297
