6
Energy = -3.02610326 eV
Cs 5.1491908603699255 5.949628286804095 4.192877486353501
Cs 8.518522930415706 9.059854948530253 3.081096948602348
Cs 8.79808293832723 7.336753679271299 7.057509282812699
Cs 8.518522930415706 3.888119099636039 9.62125120268407
Cs 4.070280478415622 8.956630944226003 6.628767919266978
Cs 4.800680858729329 5.558958097860904 8.505688728300319
