6
Energy = -3.06472584 eV
Cs 8.66380466869442 4.8676753119556775 9.885899905106402
Cs 4.349827503075871 6.558448573341987 8.646019287343213
Cs 8.663804668694418 8.148499069739168 0.568452417998673
Cs 7.884675866325186 8.437110128414282 6.048649805370641
Cs 4.6117757224802896 6.468437040367482 3.1994092747988327
Cs 8.794677939273882 7.888550955378511 13.78262645831098
