7
Energy = -3.69261915 eV
Cs 5.362830465304476 10.553636112217713 9.140254231448992
Cs 10.000733335118975 11.47109220733264 8.932085430156855
Cs 10.892184597574074 6.748519463262176 8.835012223899815
Cs 6.238892976617329 5.899711856919185 9.002830535864458
Cs 8.065349831380573 8.365916802341316 12.644447138898508
Cs 8.065349831380574 8.430716461669839 5.741669156419609
Cs 12.652803110086456 9.290655056870087 5.534417683527555
