7
Energy = -3.82317718 eV
Cs 7.991020519714166 3.858059220587116 6.925036589675596
Cs 6.98560847891766 7.0558701708622635 10.223459451793206
Cs 3.0532694615932954 4.5680214169375395 8.633318483340005
Cs 9.608211119704025 7.978406038309316 7.419699110680721
Cs 4.0412724506558275 4.683569428998689 3.504500234212769
Cs 7.991020519714165 6.939399123214057 2.8142493717182693
Cs 5.209807008788566 8.149761199304711 6.372912339121721
