7
Energy = -2.94879182 eV
Cs 6.905254853813723 2.9517258522949414 8.694492807149498
Cs 4.398809588198523 7.292950257230954 8.6945013
Cs 1.8923643225833242 2.9517258522949414 8.694492807149498
Cs 1.8923643225833242 5.845893324102104 0.10312636924754759
Cs 4.398809588198523 4.398809588198523 4.398809588198523
Cs 6.905254853813723 5.845893324102104 0.10312636924754759
Cs 4.398809588198523 1.5046689191660907 0.10311787639704413
