7
Energy = -3.87231853 eV
Cs 12.76746899999993 6.649477571428551 10.159614571428632
Cs 5.98616900000004 11.468418571428554 10.159201571428614
Cs 10.158192999999887 10.15959857142854 13.0957105714286
Cs 10.158249999999974 10.158799571428528 7.222858571428447
Cs 10.116268999999967 14.531691571428599 10.158870571428444
Cs 7.6243560000000405 6.594643571428538 10.159978571428608
Cs 14.30491899999988 11.552995571428548 10.159390571428514
