7
Energy = -3.69804165 eV
Cs 4.631040165911798 7.920111281822029 5.801715712331096
Cs 1.781800633226236 2.98677163038845 5.801493567538461
Cs 1.9096351842463763 6.201570174684321 1.7340681781405523
Cs 4.631040165911798 1.4895330108429565 1.7338106447584691
Cs 7.35244514757722 6.201570174684321 1.7340681781405523
Cs 7.480279698597357 2.98677163038845 5.801493567538461
Cs 4.631040165911798 4.630953258572556 9.810631312934872
