8
Energy = -4.52313086 eV
Cs 4.377611786157311 7.056320261192802 6.348914860607923
Cs 1.6989033111218204 4.377611786157311 2.4063087117066977
Cs 4.377611786157311 1.6989033111218204 6.348914860607923
Cs 7.056320261192802 4.377611786157311 2.4063087117066977
Cs 8.963484 4.377611786157311 7.158675136566856
Cs 8.963483999999998 4.377611786157311 7.158675136566856
Cs 4.377611786157311 8.963483999999998 1.5965484357477673
Cs 4.377611786157311 8.963484 1.5965484357477673
