8
Energy = -4.59249771 eV
Cs 2.437474560399239 8.756216303134307 7.74754949146793
Cs 10.321410565432155 7.724932826835063 5.002179128838134
Cs 3.999062766880354 4.236841806210631 6.973871606822917
Cs 8.785154894482405 2.9550789195102403 8.305946067323864
Cs 7.241989133954008 8.140194287158314 8.884027706901522
Cs 5.8373903200817425 8.756216303134307 3.723044979893099
Cs 7.636716294938074 3.8569777582467837 3.3228683060071615
Cs 11.49861980051118 6.707617744332634 9.648403280129529
