8
Energy = -4.67130268 eV
Cs 8.680303149615982 7.452451830595426 3.0242966521712904
Cs 9.061892710005 4.921580580431868 7.4520457400110525
Cs 5.959611271603253 4.2422789488347945 4.385279320588777
Cs 8.41772624870563 8.970055503340484 7.173602213178015
Cs 3.7039850242579067 7.731934906804294 8.118224545001887
Cs 4.890140711562133 8.029440351702654 3.424833773411976
Cs 5.65755640377922 3.0556752968637926 8.118224545001887
Cs 7.86187604829379 7.47005393138511 10.057300522511218
