8
Energy = -4.56898142 eV
Cs 6.095097284909441 10.296093712850565 13.120094842907788
Cs 6.853825677729777 7.86126131799526 8.560575071653991
Cs 8.182107702648423 10.076067670540063 3.839416117697759
Cs 8.08142938208871 7.754645326399336 17.22534886269317
Cs 7.9436664291302685 5.153334892278408 3.999686936562241
Cs 6.4898380488120315 2.9468817940722043 8.56057507165399
Cs 6.367413591439212 12.521050882371892 8.297231735459599
Cs 5.852116921144313 5.365169297699439 13.239721687978639
