9
Energy = -5.06372358 eV
Cs 8.21170745222307 3.8663608323844727 11.552260981121133
Cs 8.04498406689906 4.334057543031923 6.012564532565459
Cs 10.449131607061323 7.44388889892782 8.490276930694893
Cs 3.966873651594291 3.6470955286809237 8.084711068134654
Cs 9.18508216473912 8.460137106033464 3.8162664355665394
Cs 6.376464112320522 8.02276750828626 10.267006866530208
Cs 8.211707452223072 11.609039770589574 7.402778454503916
Cs 5.1214354225775995 6.806233756086417 1.8842198722527586
Cs 3.91773361446142 8.508072616578744 6.43094176084996
