9
Energy = -5.16992238 eV
Cs 4.388999563753791 12.596156732920335 10.142068156285479
Cs 6.196393306367722 7.909530932330216 11.170570649811978
Cs 8.659302680233584 8.650039707784124 4.929710589603251
Cs 6.30942955774929 4.5203249418758835 7.3679888049693325
Cs 9.226600481968632 11.40605944339577 9.164144922216325
Cs 3.6339366019147854 8.650039707784124 6.855749066727045
Cs 10.751167549113433 6.720174792727666 9.108136602626903
Cs 6.317694137067264 12.984926351282212 5.437893736829952
Cs 10.63649080085754 3.607764324175041 5.026318791978853
