9
Energy = -5.19177915 eV
Cs 10.932151682021384 5.24317317838733 8.53639641281785
Cs 5.778965601744728 4.547305771231684 7.289206724525079
Cs 9.340029161032795 5.461012308203737 3.5833212132477854
Cs 12.5787417919563 9.266158953930931 5.664417166545824
Cs 4.0073640467950655 9.231088816731122 9.520259924138793
Cs 1.4985249810172236 7.169863917314846 5.48838326218582
Cs 6.712759143045423 9.55693344994083 5.06989771716097
Cs 7.308614017410583 6.0567482807610125 12.142051081241412
Cs 9.218465457510911 10.359814037109093 9.520259924138793
