9
Energy = -5.07581032 eV
Cs 10.274932637071696 6.846783895561112 2.5586647224156325
Cs 7.70583229244004 3.327597789444027 3.933893523251629
Cs 9.697614821890001 9.790763183658118 5.830814166192001
Cs 8.809913955878722 5.822365660682686 8.138508412797595
Cs 5.816872537779044 8.279484273738294 4.716274527715188
Cs 7.086459373296881 9.457455394761832 8.667548627997958
Cs 4.565201511049936 3.9823090868298254 7.7464198418519175
Cs 6.272109103025155 5.952129109982695 11.339658168482678
Cs 2.339266286289548 8.402263065888922 8.667548627997958
