9
Energy = -5.20008166 eV
Cs 9.40224633819111 10.439904512384443 11.593787730592659
Cs 8.108766426085046 8.58326671255773 6.685885573998427
Cs 7.623379867639906 9.304077926069477 16.300514728855923
Cs 10.161325060016138 5.592403188455561 10.340637150998747
Cs 4.697380737431691 8.583266712557732 11.07583464985318
Cs 6.412791145162784 6.21709743592965 2.11978369330568
Cs 8.755400883920545 3.5302759353735174 5.777994675909826
Cs 3.3185397339337928 6.9109754008932285 6.316181242159321
Cs 5.2874630983131 3.601311578450326 9.705364580341419
