9
Energy = -5.13159896 eV
Cs 7.522552840982799 6.1945122603874925 10.47398354323216
Cs 3.785046365561644 9.105907489222488 9.035709502792939
Cs 3.5457832806748932 3.744048436153105 8.637040230675597
Cs 8.809403637324781 9.70862725099888 7.993822910508945
Cs 9.240836979740347 6.57081227596517 4.196261635162508
Cs 5.91560850162169 11.871587473024178 4.7003556025730475
Cs 5.5565822434785686 1.5507653291800148 3.9225512153139133
Cs 8.809403637324781 2.612364009346301 7.5182310893896425
Cs 4.57355092578656 6.841302710700667 4.770373466147838
