12
Energy = -30.25245164 eV
Cu 7.168136731283114 5.090983950381321 3.795658117878943
Cu 7.229734539975259 4.222118819829853 6.034445289608166
Cu 4.164479433870583 7.159811245880714 5.389180343356949
Cu 6.635618675739135 6.623430120848812 5.908901816013983
Cu 5.907925111064556 7.193856155170476 3.7315660900430943
Cu 5.773476262816791 8.885708437522345 5.556836321547767
Cu 5.124453654502629 3.2341169503820875 6.5961282351871535
Cu 3.864746794257127 5.36858730777352 6.92701018503658
Cu 6.2549287441477075 2.840813374021087 4.378624494264672
Cu 6.050128329534791 5.236612383140587 7.836168601998993
Cu 5.05023542520422 4.9167659460889475 4.835392315044796
Cu 5.077114311589257 7.516775643662201 7.5623330484329045
