15
Energy = -38.73454636 eV
Cu 7.523353906611868 5.905949912537721 5.738264423516558
Cu 6.0755175787515 5.102634528851772 7.54671509217857
Cu 5.650213785854735 6.209475337231322 4.102032412184864
Cu 7.514586511174562 3.509057363724789 6.145276852445337
Cu 6.521186070241182 5.577794242685773 1.9530256596207891
Cu 7.26720196244874 4.350562563243145 3.8739587302423653
Cu 7.947325267356229 6.704341424057188 3.507733427970272
Cu 5.665962735402491 2.7159002147197397 7.4719879569331615
Cu 5.690935050184555 7.301646333676878 6.448575108542325
Cu 5.3178940578205065 4.1382820297385745 5.406158312461828
Cu 4.425810837950904 8.205832063225934 4.579849287774726
Cu 4.1138174870362185 6.4413199308838465 8.136504311096497
Cu 3.773512789506925 4.199548016304873 7.3032923194151405
Cu 3.761296285200799 6.048180193785851 5.6918207367831135
Cu 3.404381193367398 8.24247136424137 6.747800887742912
