12
Energy = -29.18263738 eV
Cu 7.192972327022907 6.470629307384946 4.706297467429924
Cu 5.854518215141964 4.457750425487601 4.835724771996804
Cu 7.881606349523175 7.90646353831122 6.4735853365307
Cu 5.542784373684647 7.575711327782755 6.0835331927593
Cu 7.0809630044573355 4.052102470813451 8.704124470961231
Cu 3.784765691190142 3.2588725378595615 5.438006067004354
Cu 3.293575349656654 7.721180168387662 5.253315612955558
Cu 6.491350696646374 5.416982392711993 2.6638333698003867
Cu 5.407989827744368 3.6853861368823795 7.1169204564574
Cu 4.186146493099231 5.577642890173509 6.125681113118252
Cu 6.749008958747437 5.667589076260345 6.966622067930372
Cu 4.842991328508435 6.512210884662909 3.9523509710635962
