16
Energy = -42.50058863 eV
Cu 8.813857288496113 8.828507411065265 8.840640026146596
Cu 8.83362226345127 8.903398223461897 11.43280674261515
Cu 10.99215625234378 8.833716288424606 7.929711091782742
Cu 10.619521221298674 7.62045106904664 10.04997522984927
Cu 10.582208820530827 10.034775684242687 10.0206820339652
Cu 8.222368226144868 10.790147479320694 9.95385722088121
Cu 6.793509277104266 8.716849143113976 10.165396807733847
Cu 7.190349661350857 7.204928413864297 11.9989503416837
Cu 7.238906938343723 7.3027881896650895 8.004043514667359
Cu 6.026804648311491 6.462235465815306 9.909484118417097
Cu 8.431200049833324 6.575038408466478 10.02567878675217
Cu 8.902113462766462 8.718296298944397 6.556554712608059
Cu 9.645652894502103 6.848581536128959 7.988462500801807
Cu 9.587513211271759 6.815699455062783 12.14804328029418
Cu 11.08923939585467 8.828507411065265 12.094509321678041
Cu 9.554595388395942 10.85690644563545 7.944006885137614
