12
Energy = -29.63894845 eV
Cu 5.679807363685076 4.29929300298478 6.486893511046202
Cu 7.942757717351418 7.378479771876273 7.6066826149309605
Cu 4.070609771417786 5.415403627604891 4.879047795886785
Cu 6.1294594642224025 4.481213895792194 4.108338309124841
Cu 5.925847318507505 6.8695725533488465 3.991779361200028
Cu 7.582084739525652 5.793041522902958 5.561606206158598
Cu 7.212684764301356 8.169294933260348 5.461907860981108
Cu 4.586589737593778 5.5364477348393395 2.5481901831342118
Cu 7.509492948991653 5.077894215093521 7.876920486133179
Cu 5.690453173911961 6.710317757977421 6.769181267526547
Cu 3.647274313644994 5.3796714057926005 7.185769613999948
Cu 5.379174217155959 5.3516501284240645 8.843964626346784
