14
Energy = -36.09282858 eV
Cu 10.470466999999998 7.1188026986003425 7.1188026986003425
Cu 5.884756435337196 7.1188026986003425 8.320738523561378
Cu 8.35284896186349 7.1188026986003425 8.320738523561378
Cu 7.1188026986003425 9.226530835585857 8.297702913743823
Cu 9.223095350617069 9.19115639825788 7.1188026986003425
Cu 7.1188026986003425 5.011074561614827 8.297702913743823
Cu 8.35284896186349 7.1188026986003425 5.9168668736393135
Cu 5.884756435337196 7.1188026986003425 5.9168668736393135
Cu 7.1188026986003425 9.226530835585857 5.939902483456866
Cu 7.1188026986003425 5.011074561614827 5.939902483456866
Cu 9.223095350617069 5.046448998942809 7.1188026986003425
Cu 5.014510046583621 5.046448998942809 7.1188026986003425
Cu 5.014510046583621 9.19115639825788 7.1188026986003425
Cu 3.7671383972006893 7.1188026986003425 7.1188026986003425
