10
Energy = -24.13061944 eV
Cu 6.524659977152338 7.879335193002108 3.433283195326986
Cu 6.036597928056321 5.623274339242094 4.114469908036512
Cu 5.314161964294002 7.511236206815152 5.467873066917532
Cu 5.372255664407054 3.4531151428312934 4.8115458984262265
Cu 7.639705756154661 6.8539655694922 5.448570971942482
Cu 7.051259451334199 4.57067371567273 6.156432240049062
Cu 4.67277153160307 5.198972350421878 6.236986020185162
Cu 6.3756615496247075 6.396127328820031 7.512170931940518
Cu 4.069363471321338 7.150079552701312 7.447651831437538
Cu 5.695259244736535 4.114917139684896 8.122712474422075
