14
Energy = -36.14454559 eV
Cu 5.972909452023825 4.9492307206551995 6.5158450293660115
Cu 6.239164580879534 4.5529108217980845 8.89110172660597
Cu 4.046824732734545 4.380921948898425 7.762950631163788
Cu 7.49986671594705 6.328388333091712 7.665237612633262
Cu 5.122000290577724 6.5928888694311 8.292594860397376
Cu 5.921693147123815 7.584478353895436 6.203690494611072
Cu 5.092993468286489 6.241505906100337 4.310690066018659
Cu 4.061101506489125 4.198887109401608 5.163488761557542
Cu 7.5556781872138945 6.116889809394134 5.041322008934754
Cu 3.7616173382678526 6.362537074196118 6.381129332927193
Cu 6.444732719110726 4.085264230666455 4.272900217400912
Cu 6.610504768668291 8.030436381470846 3.8383034772137834
Cu 6.823429941674767 5.827165038671435 2.6858577604387373
Cu 4.623107650431435 4.524119901757882 2.75051252015971
