11
Energy = -26.53965504 eV
Cu 5.617062665281452 3.591769960453862 4.8666549576382625
Cu 7.5297378337735115 5.074493098235362 4.711355305549939
Cu 5.386392291173806 5.457277213582739 3.312055902355817
Cu 7.385326027219411 6.673425503084296 2.929092303810129
Cu 6.33973364793178 4.832512855966589 6.807266276188695
Cu 6.246545687316634 5.450277627774352 9.176452299701003
Cu 6.197006024340189 7.006761336679833 5.043076946520719
Cu 4.243464872303796 5.439233416804651 5.460391883545203
Cu 6.390135423824901 7.108706978496933 7.44674311984
Cu 4.286009398106729 5.709977602004257 7.870036109698628
Cu 4.281950310503952 7.6341107846490885 6.375801762582965
