12
Energy = -27.69017226 eV
Cu 8.350927529999998 6.653785914457305 8.350927529999998
Cu 8.350927529999998 8.350927529999998 6.653785914457305
Cu 6.653785914457305 8.350927529999998 4.956644298914609
Cu 4.956644298914609 6.653785914457305 4.956644298914609
Cu 6.653785914457305 4.956644298914609 8.350927529999998
Cu 4.956644298914609 4.956644298914609 6.653785914457305
Cu 4.956644298914609 8.350927529999998 6.653785914457305
Cu 6.653785914457305 8.350927529999998 8.350927529999998
Cu 4.956644298914609 6.653785914457305 8.350927529999998
Cu 6.653785914457305 4.956644298914609 4.956644298914609
Cu 8.350927529999998 4.956644298914609 6.653785914457305
Cu 8.350927529999998 6.653785914457305 4.956644298914609
