14
Energy = -35.34765192 eV
Cu 7.862563900742403 7.863337623431144 7.0030235970539385
Cu 5.887138509313136 5.993205697934359 8.272399997456835
Cu 6.582510234475247 8.235072287850898 8.933310036439455
Cu 4.998458436740739 7.867991875899326 7.0030235970539385
Cu 9.298850417582813 3.999051496109998 7.0030235970539385
Cu 6.969659916565102 4.185975692472297 7.0030235970539385
Cu 8.274159835320702 5.834387134739384 5.73819544415594
Cu 8.263990698508296 9.886231302002123 5.720724284847615
Cu 6.268311259454726 9.836578453126409 7.0030235970539385
Cu 5.887138509313136 5.993205697934359 5.733647196651039
Cu 6.582510234475247 8.235072287850898 5.0727371576684215
Cu 8.274159835320702 5.834387134739384 8.267851749951943
Cu 8.263990698508296 9.886231302002123 8.285322909260257
Cu 4.628887744583341 4.391602500513387 7.0030235970539385
