17
Energy = -44.85108384 eV
Cu 6.386689757249106 2.754121521203501 5.362046940947493
Cu 5.322130119479343 7.531939458483435 8.342194732291402
Cu 6.487729315163222 5.766006059082006 6.658610406349748
Cu 6.91246240166347 4.784897956839393 4.233199396808688
Cu 5.439653552652674 3.596274426566055 7.390918333949518
Cu 9.18744509483195 5.491436111225124 4.368134659703519
Cu 5.893124094703791 5.279993207111846 9.032828311539971
Cu 8.803453865623927 6.678919842017737 6.417251343915545
Cu 4.746445875049589 4.519186487529957 5.244795712891885
Cu 7.414325176873106 7.106016344663757 4.4891645068293835
Cu 5.114587368108728 6.5532625048066375 3.956813837754166
Cu 7.666524690626506 6.874590976842677 8.529648789718387
Cu 4.070055138508786 5.652562636074931 7.353839643154023
Cu 6.888612625108313 8.260291617722253 6.5991497729378
Cu 4.566508792499535 7.682259901336089 6.0723398366531605
Cu 2.9845238003510413 6.135882960899737 5.159363457837235
Cu 5.822195554511246 8.894310304271405 4.427553741404631
