16
Energy = -41.64822005 eV
Cu 7.156036448798287 7.758707637427936 6.1548105764659065
Cu 9.005607067457616 7.186110715509345 4.740423318019994
Cu 5.447156797611139 9.439469878507154 6.0333617501064944
Cu 7.353791019068882 6.77964576653969 8.312551444709438
Cu 8.394729677654162 5.595737717363249 6.44583401526601
Cu 4.934858350079311 7.226102084408085 5.114389491426693
Cu 4.876682566118664 4.6793216890074305 5.163279054023597
Cu 8.986460821177204 4.869118430208098 4.043302646903499
Cu 3.2143510654524086 8.50676659641101 6.23629356310874
Cu 3.791835317014237 3.977470843409326 7.391254907945476
Cu 6.887132276026688 5.99359738381514 4.415324042273611
Cu 5.712117049451463 2.8255287060387726 6.734044141124215
Cu 5.164942284570064 7.650312589872698 7.6302570538213335
Cu 7.250195855039217 3.782923809655636 5.2588367942122165
Cu 3.464007706155865 6.170631807552139 6.666428573346552
Cu 5.948808284615208 5.2770602303384875 7.152749920071526
