15
Energy = -38.83717914 eV
Cu 4.734486294671617 5.627897479248217 8.209064483771812
Cu 6.875619637681821 7.736848038405596 5.4904517970973625
Cu 6.86364349006747 6.269348201229326 9.360481302264258
Cu 9.107491320553896 8.656347992571892 5.7079154792717075
Cu 9.002884539929028 6.167463467386771 5.871374394464111
Cu 6.995124003846358 5.520946220718397 4.53657000819703
Cu 8.898731884828953 5.343190071581688 8.214802295064116
Cu 6.84324413409772 8.760537362033071 9.397626866383343
Cu 8.29311465521135 7.575638256723732 7.79187666750241
Cu 6.8869535997802815 5.486506378150418 7.001466190372291
Cu 7.284141925147572 9.588438347719674 7.102183760644643
Cu 4.970160046302977 6.144714477891592 5.805827963187965
Cu 5.611812600412461 7.791344179028525 7.560352579521537
Cu 8.430205486297716 7.338277669162185 3.7533703690774622
Cu 4.744690413061813 7.534806156141339 9.738940141171927
