13
Energy = -33.33710575
Cu 8.208912499999947 6.579200500000035 7.6121245000000455
Cu 6.27975450000002 8.82123550000003 9.711344499999965
Cu 8.926692499999945 8.23172150000008 6.119410500000021
Cu 9.554507499999918 10.558035499999997 11.102116500000086
Cu 9.73775249999994 8.580601500000096 10.494131499999963
Cu 7.967614499999929 8.944658500000013 11.495115499999924
Cu 11.085213499999924 8.940482500000016 6.947053500000101
Cu 8.97892549999991 9.992063499999968 7.35000850000004
Cu 10.598242499999971 9.930000500000027 8.891910500000026
Cu 9.574003500000055 8.131522500000049 8.429013500000128
Cu 8.476032499999985 9.796130499999977 9.308970500000028
Cu 8.049897499999993 7.565749500000059 9.59205649999993
Cu 7.455091500000059 8.821235500000027 7.83938449999997
