18
Energy = -48.98910512 eV
Cu 7.253339923655128 7.253339923655128 9.627033723437581
Cu 7.253339923655128 8.563939003198481 4.7463335954401265
Cu 10.180419999999996 7.253339923655128 7.199498314207398
Cu 7.253339923655128 4.968824112774165 8.585154583627613
Cu 9.304813399115083 8.477564762380213 9.033627975938254
Cu 8.691156111429363 9.191687534330521 6.65722828273112
Cu 8.691156111429363 5.3149923129797365 6.65722828273112
Cu 5.296719379181514 7.253339923655128 5.073699046569637
Cu 5.81552373588089 5.3149923129797365 6.65722828273112
Cu 5.201866448195167 8.477564762380213 9.033627975938254
Cu 5.201866448195167 6.029115084930047 9.033627975938254
Cu 7.253339923655128 9.537855734536093 8.585154583627613
Cu 4.3262598473102525 7.253339923655128 7.199498314207398
Cu 7.253339923655128 5.942740844111772 4.7463335954401265
Cu 9.304813399115083 6.029115084930047 9.033627975938254
Cu 5.81552373588089 9.191687534330521 6.65722828273112
Cu 9.20996046812874 7.253339923655128 5.073699046569637
Cu 7.253339923655128 7.253339923655128 6.9602889158379355
