16
Energy = -41.4537458 eV
Cu 5.013989635279039 8.182008584677972 9.63222850348396
Cu 4.098443464175513 4.38144000116284 5.474011952043065
Cu 6.119982291868515 4.679317437175069 6.691245031368219
Cu 6.174972253384642 8.350616389295075 7.513499429870411
Cu 4.801061840496566 6.722205493563198 6.145172847304066
Cu 7.357285157517022 7.480527556505854 9.437402420870548
Cu 7.203780519213868 7.247223344554855 5.570113088418099
Cu 9.57807284822003 6.83029568764388 5.766577590590961
Cu 8.086371321236058 4.987970549672356 5.211824768569145
Cu 8.675834777029966 8.254834700381487 7.5304911251289335
Cu 5.531329160546487 6.196497756822407 8.414876180217519
Cu 7.987244385015425 5.989179569066285 7.569151654463203
Cu 7.5390971572745125 9.577341677288508 5.92427297329708
Cu 5.9230426711049775 5.578832802085038 4.272841593189726
Cu 3.669252415179213 6.279637421472682 4.068189090137935
Cu 6.251627572518833 3.2734584986928956 4.789489221107934
