16
Energy = -41.45654967 eV
Cu 5.012265240506359 3.4194712507099525 4.546435948579884
Cu 8.33194736127017 6.233911456158087 8.758169008727245
Cu 6.704465610297596 5.073994392484574 4.4452879791927735
Cu 7.714030750229556 5.378361200006729 6.6277072472873515
Cu 6.531667920994038 4.363653484742455 8.485430272314899
Cu 9.635246907516295 8.757912046753798 5.67326729700895
Cu 3.235181472545743 8.89747240855817 7.940166756580189
Cu 3.879541314392872 7.033566625151079 6.629888338327237
Cu 4.232221640766566 5.716525393677216 4.601806641772578
Cu 5.495051800639542 8.863357090168167 7.311670013490136
Cu 7.795508259620894 8.040520673071432 7.081800353522633
Cu 6.035448495479509 7.150205665940616 5.554901153204672
Cu 5.244124126905892 4.834207226543706 6.525276616730438
Cu 8.380385666051724 6.882378179030208 4.872235554192789
Cu 9.79799919831093 6.697197380234437 6.9065778354208325
Cu 5.973370117418949 6.655721409715733 8.037834866594304
