13
Energy = -31.42821893 eV
Cu 4.980046919966292 5.392096374086242 3.8497926879641713
Cu 5.272049900608 5.372472276420676 6.227994670808369
Cu 5.631330736674493 5.4051127527172005 8.626064402457395
Cu 7.163334732125843 5.407917076527471 4.692944039025398
Cu 7.54605327714103 5.383260064941998 7.152583489380974
Cu 7.827310044754658 5.412666582517839 9.501915227677944
Cu 4.9658464794214545 7.79366756411983 3.8561781098242682
Cu 5.2586842700924725 7.810652755755402 6.234010534123134
Cu 5.61876183704019 7.773577086364692 8.631093611188238
Cu 7.149508886638473 7.798455675236345 4.69718835650316
Cu 7.533278642080208 7.8206182548706 7.156620557695493
Cu 7.814296276139357 7.785290478922663 9.506442702678903
Cu 9.006373860924013 6.61108888037779 5.634047596522196
