16
Energy = -41.76177352 eV
Cu 9.206903819949698 6.872666832990244 6.559406922841676
Cu 6.113767908203186 8.517092583313067 6.156166712511977
Cu 8.39324252238172 8.759188549662996 5.248019097591749
Cu 7.299837548423793 6.643241358363271 5.005112142087758
Cu 5.270642603934282 4.414626049069404 7.218452269532284
Cu 7.5792422577564755 5.093935383682496 7.007034521144392
Cu 6.391413142936756 4.357994095798308 5.039942257028216
Cu 7.41270960087954 10.499886565787325 6.55610315029201
Cu 5.3646998889575155 5.977035357205865 3.527191281490462
Cu 3.993932666270989 4.469487166005478 4.973486894951346
Cu 4.981143225315735 6.452213331400724 5.820036082158682
Cu 6.047720306473334 6.78375662843479 7.973619408257955
Cu 6.592668961747247 4.753615763418849 9.248512915291156
Cu 7.893193371383335 8.490832157091775 7.747554593548017
Cu 3.1478845156863753 5.46183443999016 7.0094386070444665
Cu 8.301437121661271 6.443033199746239 8.900362606189121
