11
Energy = -25.5324289 eV
Cu 7.25007374011741 5.7079747458623045 4.994160511026466
Cu 7.123027321216379 8.158623262315226 4.9361564200974515
Cu 5.817687860870375 6.9619514058279615 6.603289095915426
Cu 9.138006075327898 7.089958444879639 5.699171240968667
Cu 8.443375559131956 9.220238477471932 6.775231594802504
Cu 9.529265898968859 7.475506011760695 8.03508025873982
Cu 6.050841374253422 9.361408061105328 6.7132417350329066
Cu 7.8309950838611675 5.892202684873445 7.3750863003153055
Cu 5.893130185232561 6.009984246424919 8.863352105061448
Cu 7.161883090513555 8.043290761494726 8.438802936064441
Cu 4.692579240368272 5.009727327845956 10.497293231837705
