16
Energy = -41.64060411 eV
Cu 5.168287910985965 5.559978737892556 7.837649359091092
Cu 5.810642768908378 5.2431874263870615 3.9411413217354663
Cu 5.775601699191563 6.97519976678624 5.804950394751452
Cu 4.200439144318148 7.02370749034868 3.9707401153494
Cu 6.262434465885151 4.303001890117396 6.075501581155341
Cu 7.587807059490826 5.750599982380844 7.54992483989054
Cu 4.012659600351131 5.245169124937721 5.643188956489423
Cu 7.318154355694411 9.065998989128884 9.72900026976341
Cu 6.396509553432097 6.86141919358336 9.408023508310897
Cu 9.252484968466526 7.293816243913516 6.709194954133036
Cu 6.574654640364875 7.432371739750081 3.358913461865907
Cu 7.727622301647633 8.43495050230371 5.186957978081683
Cu 7.077553908691357 8.207109460616946 7.509293475529842
Cu 4.268588682454573 3.4426219772346798 7.206191749429861
Cu 7.852009545569416 5.969473041085987 5.0749690493730455
Cu 8.775417288646564 7.252262327630554 9.055226879147408
