16
Energy = -40.3645085 eV
Cu 7.082985870667409 9.218318236707367 7.219068929437334
Cu 7.082985870667409 4.947653504627448 7.219068929437334
Cu 7.082985870667409 7.082985870667409 8.25255560387773
Cu 5.3499926321568 5.802067042946127 9.075332807426998
Cu 5.3499926321568 8.363904698388687 9.075332807426998
Cu 8.815979109178018 5.802067042946127 9.075332807426998
Cu 8.815979109178018 8.363904698388687 9.075332807426998
Cu 5.802067042946127 8.815979109178018 5.09063893390782
Cu 8.363904698388687 5.3499926321568 5.09063893390782
Cu 7.082985870667409 7.082985870667409 5.91341613745739
Cu 5.802067042946127 5.3499926321568 5.09063893390782
Cu 4.947653504627448 7.082985870667409 6.946902811897482
Cu 9.218318236707367 7.082985870667409 6.946902811897482
Cu 8.363904698388687 8.815979109178018 5.09063893390782
Cu 7.082985870667409 7.082985870667409 10.531439999999998
Cu 7.082985870667409 7.082985870667409 3.6345317413348175
