16
Energy = -41.77236996 eV
Cu 6.181031785899735 9.073101713902211 8.421633917524517
Cu 8.303718550723836 7.800635029925084 8.416372929214553
Cu 10.121469536528657 8.88365795599087 7.221781563288832
Cu 4.322093590049005 5.559905170586795 7.221781563288832
Cu 4.3652554053051436 7.973989902758925 7.221781563288832
Cu 6.139844575853824 6.642928096652579 6.02719019736311
Cu 8.262531340677926 5.370461412675456 6.021929209053145
Cu 10.078307721272513 6.46957322381874 7.221781563288832
Cu 6.181031785899735 9.073101713902211 6.021929209053145
Cu 8.303718550723836 7.800635029925084 6.02719019736311
Cu 6.139844575853824 6.642928096652579 8.416372929214553
Cu 8.262531340677926 5.370461412675456 8.421633917524517
Cu 5.837578494135142 11.143652999999997 7.221781563288832
Cu 8.605984632442523 3.2999101265776605 7.221781563288832
Cu 6.398347796770185 4.376153541164728 7.221781563288832
Cu 8.045215329807478 10.06740958541293 7.221781563288832
