18
Energy = -47.29947341 eV
Cu 6.087569564562147 9.090384649161386 3.932898924550248
Cu 6.9764198064648495 3.5270500914672107 6.997397520681853
Cu 7.316158043290378 3.3211183098498855 4.632041394053902
Cu 6.5375275728884334 7.251893939353242 5.477063179703017
Cu 4.2780199163670725 6.665380718513487 6.446418907149771
Cu 7.045654348775508 9.455723169095924 6.161551633675167
Cu 4.49699044206098 8.6145126170257 2.2776538871458802
Cu 8.098693798769947 5.316377109132734 5.809260018636069
Cu 5.802281003038957 8.123144188288183 7.851195980265024
Cu 6.209064198774457 5.724472894523469 7.516032539655895
Cu 8.572021350597126 5.255790910365695 10.582714141718341
Cu 4.613802261109028 8.950876199977838 5.8557655602104415
Cu 8.15064768738957 7.38013381621223 7.250838487568538
Cu 4.597049594095213 7.098774121085149 4.086466863586923
Cu 5.687267994910462 4.986799200942612 5.16464180282748
Cu 7.170363342560014 6.809921028562483 9.454041899847175
Cu 8.62973602579946 5.158916828862567 8.161368580108858
Cu 6.736640108696407 4.274637267729911 9.348555738764967
