14
Energy = -34.89507466 eV
Cu 4.599436718246963 5.423638996282686 3.900530595850081
Cu 4.611658417813636 7.807362288197967 3.8897047205388775
Cu 5.065080626962613 5.414898841752123 6.206689113632828
Cu 5.076090272585534 7.822053507258369 6.197001521887582
Cu 5.5639066597607245 5.426241177687633 8.585407107236563
Cu 5.5751733292889325 7.814553109672648 8.57706202499375
Cu 6.869600645083342 5.42238259958876 4.519224464864356
Cu 6.8804844669278165 7.791025639349514 4.510212161780834
Cu 7.387715477935693 5.3219985488541965 7.013970757370521
Cu 7.398487137438688 7.902600632971797 7.006180304013792
Cu 7.762420292528713 5.4249358920384925 9.424262819431025
Cu 7.771511051636811 7.807646193921113 9.419209024321473
Cu 9.272795973837537 6.6083080347117065 7.878692127233217
Cu 8.757522237707839 6.6042378454681 5.463736483104833
