12
Energy = -28.25602505 eV
Cu 6.974190846164296 5.877190642287098 4.471990825225974
Cu 6.901126580469467 5.856064504314941 6.862196410867917
Cu 6.851758983634488 5.798385132649037 9.218710824657101
Cu 7.008748559954504 7.951523515650264 3.383548900802725
Cu 6.921543612858198 7.976260363142117 5.746179177473205
Cu 6.882365310144006 7.942129982325624 8.17720420394271
Cu 6.813760561321266 10.01570282384493 9.334685188766166
Cu 6.897536106829911 10.057107539389488 7.012960139397067
Cu 6.967049578589511 10.071243715657188 4.642670245021762
Cu 6.908939135522554 3.7822637850519563 5.62065872891082
Cu 6.884501639826683 3.7335370722175916 7.988645438217403
Cu 6.792860151370036 3.742972120345501 10.34493072302188
