14
Energy = -34.70267811 eV
Cu 5.761950030830697 7.772269557902981 8.971983710196037
Cu 5.146971291948347 8.133287234321664 6.555997953160908
Cu 7.03716567135267 9.221999527612429 7.527775327220198
Cu 7.03716567135267 4.852331815092911 6.5465560154851445
Cu 7.03716567135267 5.562475571379242 8.972640692405403
Cu 8.927360050756992 5.941044108383672 7.518333389544431
Cu 8.312381311874645 6.302061784802361 5.102347632509302
Cu 7.03716567135267 8.511855771326097 5.101690650299936
Cu 8.312381311874645 7.772269557902981 8.971983710196037
Cu 8.927360050756992 8.133287234321664 6.555997953160908
Cu 5.146971291948347 5.941044108383672 7.518333389544431
Cu 5.761950030830697 6.302061784802361 5.102347632509302
Cu 7.03716567135267 7.0364778382758955 10.82408
Cu 7.03716567135267 7.037853504429446 3.250251342705341
