13
Energy = -31.99273727 eV
Cu 7.6144750721438 5.619386699572084 6.875245132702892
Cu 7.595230975787719 6.293555489738589 4.616326744663302
Cu 7.516485013828596 3.869415075754006 5.184845655787207
Cu 6.370210878220675 7.640870633272932 6.2989639287302115
Cu 6.236370372873589 3.6831629336195837 7.276499426990071
Cu 5.531393827069585 6.024384739219975 7.982952485083978
Cu 5.210386949760498 3.178365597158423 5.126551667067446
Cu 4.026794358796603 4.554430588639146 6.7718419542273685
Cu 4.012998002568938 6.936010216278568 6.2443333607775
Cu 6.0393665938127175 4.8154420472305 3.486113481329975
Cu 4.682455126761107 9.054840439051162 5.353438187812257
Cu 5.3335727781116855 7.103793704313851 4.110773173709363
Cu 3.8957605459481863 5.177055956218788 4.493984312193973
