11
Energy = -26.17030704 eV
Cu 5.894883163413142 8.445228119697736 6.5636196681985455
Cu 3.9353572620723196 6.941227396884795 6.298320059376331
Cu 7.9423564260651505 7.075038474545079 6.750533057532898
Cu 4.795061456458254 4.579739109010777 6.3135776674311925
Cu 7.258116661451439 4.709088604020012 6.59178479344703
Cu 6.038915192425699 6.369385764858539 5.234264904615614
Cu 5.744979622132683 6.284231615416911 7.753247117753354
Cu 7.0176195614804655 8.090237882750772 8.74617204788652
Cu 7.877730593785272 5.725868914698448 8.763313686386844
Cu 7.494518239068672 8.232298478350044 4.668352844476194
Cu 8.34277218567903 5.869561777651765 4.681288173462958
