18
Energy = -47.6198027 eV
Cu 4.956008242101238 7.199256975930096 8.381430158778228
Cu 7.199256975930096 8.4084116717727 8.387450257398243
Cu 7.199256975930096 10.602696223825134 7.199256975930096
Cu 7.199256975930096 3.7958177280350602 7.199256975930096
Cu 5.201442119293926 5.037597824103233 7.199256975930096
Cu 7.199256975930096 5.990102280087493 6.011063694461953
Cu 9.442505709758953 7.199256975930096 6.017083793081967
Cu 9.19707183256627 9.360916127756962 7.199256975930096
Cu 4.956008242101238 7.199256975930096 6.017083793081967
Cu 7.199256975930096 8.4084116717727 6.011063694461953
Cu 7.199256975930096 5.990102280087493 8.387450257398243
Cu 9.442505709758953 7.199256975930096 8.381430158778228
Cu 3.063501951860196 6.015574962627668 7.199256975930096
Cu 11.335012000000004 8.382938989232525 7.199256975930096
Cu 11.335012000000004 6.015574962627668 7.199256975930096
Cu 3.063501951860196 8.382938989232525 7.199256975930096
Cu 9.19707183256627 5.037597824103233 7.199256975930096
Cu 5.201442119293926 9.360916127756962 7.199256975930096
