15
Energy = -38.97258895 eV
Cu 6.959427511167422 6.548663034560067 8.660457632645683
Cu 4.981264685508713 5.286947549517277 9.227401122570233
Cu 4.990158237674287 7.787202390992798 9.313557961792563
Cu 6.1873826046762215 4.539065213212138 7.253227761927993
Cu 4.640111976111135 6.606179127889428 7.23485944220202
Cu 6.193781689359917 8.661889665097448 7.395240177483344
Cu 8.60919242974184 7.866637835551446 7.316036856018719
Cu 8.605559362052666 5.3235370795820245 7.2197455615166195
Cu 6.883096698018176 6.637539335242694 6.192846427405558
Cu 6.868742296891694 6.718693208640334 3.8018290583679137
Cu 5.146168245409647 5.397677775902091 5.093253504022999
Cu 7.526059237126365 4.607601757716317 5.064934665614643
Cu 5.148562678880767 7.943164986102132 5.180988190330686
Cu 7.5366710339218494 8.730957726505316 5.215055363127182
Cu 9.017437662859646 6.664841335457899 5.117327029829662
