19
Energy = -50.97352751 eV
Cu 9.683899754609385 7.165670012797273 6.789213628393161
Cu 9.105870024768832 5.020811893426774 5.817608515716923
Cu 7.662118739709829 7.012699587993572 5.3788928240514355
Cu 7.724879710034105 8.279721870956884 7.617844322807436
Cu 7.161545125282598 6.51407768313097 3.019647919966729
Cu 7.166000707243859 4.622992276944483 4.481435154040342
Cu 5.486530000605648 7.573702062846013 4.363413752821378
Cu 7.711931376951563 5.887019292561352 7.633474060776251
Cu 7.190071420493502 3.736090995619726 6.705991578840013
Cu 6.063994845841916 6.992314959435122 9.060314920299119
Cu 5.090131065427691 5.282621889646526 3.530961734700618
Cu 5.437281604898682 4.951028143347685 7.818224304866852
Cu 3.3065759525083287 6.8347423752686085 3.4345776792276532
Cu 5.054238797403152 3.9479302490253882 5.583386076286232
Cu 5.622941744390064 7.561767554229199 6.782562112916814
Cu 3.7981798850484436 6.66115744305855 8.14132567082111
Cu 3.858948841380979 6.360062052289346 5.7162891574293875
Cu 2.92280512242655 4.539927641789039 4.496874704204454
Cu 3.162384066508119 4.480466537913688 7.0240869476272065
