17
Energy = -44.92826569 eV
Cu 7.462369687066391 5.263436041604928 9.194673991550594
Cu 8.049063250334497 5.217329894951063 6.859611051408699
Cu 6.929114332331349 3.2701066097229847 7.728482898730668
Cu 8.494741141686612 7.46991157429614 5.916317829531618
Cu 6.94919222873155 7.296767568224765 7.9351844871454125
Cu 5.576019957710933 5.2284549222762235 7.620287911889214
Cu 10.036366359305267 5.66498136134033 5.5641328308808164
Cu 5.518497403604457 9.261345769652937 8.278667815108015
Cu 4.183627131753809 9.54359415611596 6.209563422339139
Cu 7.962975307051061 5.221715351998617 4.384109834270847
Cu 4.552223436105727 7.370537751322917 7.111577847682771
Cu 6.47024633389059 8.850955642224342 6.075951272240627
Cu 6.142497217491443 4.012456413496419 5.536145116575623
Cu 6.3205145251370585 6.519088343786327 5.530527550657741
Cu 5.5397152724051 5.429648913496193 3.575272203010476
Cu 4.123351699200759 5.4388686970249704 5.619634723791894
Cu 4.469988102779929 7.689011464227594 4.618062711765671
