13
Energy = -32.71098069 eV
Cu 4.4844216921703755 5.704830080367898 3.9197373786003737
Cu 5.182974683623705 4.660649588062823 5.951471015204679
Cu 5.784243509984701 5.886162209146434 7.929552504080171
Cu 6.555126003689926 4.386625731453716 3.986471146978878
Cu 7.534640884371361 5.24634484091745 6.17312381788656
Cu 7.8200817843597905 4.883858856731314 8.609881400471119
Cu 4.746108460703151 8.07919298009354 3.8696410356980606
Cu 4.753952455170062 7.081382076655891 6.055955605226857
Cu 5.3817187316631765 8.22809645405546 8.260346768663595
Cu 6.621224184205178 6.720266572372384 4.4811775048311135
Cu 7.101781171725362 7.691335383931974 6.669155028917019
Cu 7.4255023752124885 7.268236502694241 9.10176028317192
Cu 9.085162343044153 6.639957059188938 7.468664901689941
