12
Energy = -30.11656278 eV
Cu 5.802646834081387 8.271230751121015 6.425108332209284
Cu 5.802646834081387 5.712285644731525 6.425108332209284
Cu 5.603396877367008 6.99175819792627 8.413939406928268
Cu 6.99175819792627 5.084378450608948 8.63797427303256
Cu 8.180869561771148 5.712285644731525 6.425108332209284
Cu 8.180869561771148 8.271230751121015 6.425108332209284
Cu 8.380119518485527 6.99175819792627 8.413939406928268
Cu 6.99175819792627 8.899137945243591 8.63797427303256
Cu 6.99175819792627 9.323359554304385 4.54752856214612
Cu 6.99175819792627 6.99175819792627 10.336937166293579
Cu 6.99175819792627 6.99175819792627 4.664843267919829
Cu 6.99175819792627 4.6601568415481545 4.54752856214612
