10
Energy = -24.56030954
Cu 8.146206999999935 9.000713999999991 10.269977999999988
Cu 8.146163000000127 9.000607000000084 7.733114000000085
Cu 7.502111000000062 10.929631999999954 9.001529999999986
Cu 9.85866199999986 7.734442000000057 9.001641999999896
Cu 9.855381999999894 10.270684999999997 9.001325000000076
Cu 6.00004699999992 8.997703000000016 9.001554000000029
Cu 7.5077729999999825 7.069547000000102 9.001554000000029
Cu 10.497983999999938 9.003790999999866 10.931912000000002
Cu 10.498085999999972 9.00345799999993 7.071186000000174
Cu 12.003058999999933 9.00489699999984 9.001676999999923
