14
Energy = -34.57188867 eV
Cu 9.21000483348818 8.494139205644508 6.557658745995154
Cu 7.094213691439241 5.772727756273827 7.984852497775269
Cu 9.188050975778179 7.094213691439241 8.614416518998551
Cu 4.978422549390301 5.694288177233969 6.557658745995154
Cu 7.094213691439241 8.415699626604653 7.984852497775269
Cu 5.000376407100303 7.094213691439241 8.614416518998551
Cu 7.094213691439241 7.094213691439241 5.8312570170109765
Cu 4.978422549390301 8.494139205644508 6.557658745995154
Cu 7.094213691439241 9.570580156275518 5.870601559933798
Cu 7.094213691439241 4.617847226602962 5.870601559933798
Cu 9.21000483348818 5.694288177233969 6.557658745995154
Cu 11.083921 7.094213691439241 6.1638089642651925
Cu 3.104506382878481 7.094213691439241 6.1638089642651925
Cu 7.094213691439241 7.094213691439241 9.989740725063045
