13
Energy = -33.31672552 eV
Cu 5.695967000000025 4.066255230769277 5.09917899999991
Cu 3.766809000000052 6.6333832307692004 7.5234919999999015
Cu 6.738840000000041 5.718776230769278 3.606464999999941
Cu 7.366655 8.370183230769232 8.914264000000019
Cu 7.549900000000079 6.067656230769161 8.306279000000046
Cu 5.454668999999876 6.756806230769178 9.307262999999942
Cu 8.897360999999895 6.752630230769179 4.434108000000106
Cu 6.791072999999948 7.804211230769355 4.837063000000021
Cu 8.410389999999998 7.742148230769225 6.704057999999915
Cu 7.38615099999991 5.61857723076937 5.9160679999998855
Cu 5.963087000000065 7.6082782307692804 7.121117999999967
Cu 5.536951999999982 5.052804230769227 7.404203999999989
Cu 4.942145999999979 6.308290230769292 5.3264389999999455
