11
Energy = -26.63826029 eV
Cu 8.61186207148586 7.349586321775734 7.113900698266388
Cu 4.47352608404646 6.087690407409911 5.191229921147635
Cu 4.6307648244100195 8.490761174295018 5.920384772505018
Cu 5.564481526125146 4.776102277396639 6.927603538527174
Cu 6.562980079269043 4.839226694992005 4.704118108738773
Cu 8.012064591587388 4.889783949321819 6.810010212825231
Cu 8.77796825073937 6.035585156145117 4.965531064789737
Cu 6.82999721276749 6.313705296907558 8.409918766727234
Cu 6.519690968281211 8.587227018518016 7.598215076290084
Cu 4.592832618540971 6.917803221048562 7.607375933819626
Cu 6.597856689247419 6.886553065312683 5.925736822863484
