18
Energy = -48.35326389 eV
Cu 9.490266247073347 8.341266649425512 8.268952665946555
Cu 8.321937109385438 7.095036308808404 10.038268540452755
Cu 9.490266247073347 5.848805968191294 8.268952665946555
Cu 7.095036308808404 5.815215069754388 8.316755981813076
Cu 7.095036308808404 8.374857547862417 8.316755981813076
Cu 8.503356002102487 7.095036308808404 6.395708429979257
Cu 8.36260116521005 9.536348861056839 6.483000120793328
Cu 5.868135508231378 7.095036308808404 10.038268540452755
Cu 8.36260116521005 4.653723756559963 6.483000120793328
Cu 5.686716615514474 7.095036308808404 6.395708429979257
Cu 7.095036308808404 8.298789532961404 4.77539612981674
Cu 5.8274714524067575 9.536348861056839 6.483000120793328
Cu 7.095036308808404 5.891283084655398 4.77539612981674
Cu 4.699806370543457 8.341266649425512 8.268952665946555
Cu 5.8274714524067575 4.653723756559963 6.483000120793328
Cu 4.699806370543457 5.848805968191294 8.268952665946555
Cu 7.095036308808404 10.700883999999997 4.8252921237338695
Cu 7.095036308808404 3.4891886176168048 4.8252921237338695
