18
Energy = -48.99425595 eV
Cu 7.006175773492081 7.006175773492081 5.686977610411931
Cu 7.006175773492081 8.955915392855466 9.331168678385227
Cu 4.192289884521361 7.006175773492081 6.976878318229928
Cu 7.006175773492081 4.6072205259388035 5.1636042897939
Cu 4.9037503054138 8.220296197689128 5.012608948664438
Cu 5.773712003361251 8.841047511592276 7.210583149071771
Cu 5.773712003361251 5.17130403539189 7.210583149071771
Cu 8.36130007878149 7.006175773492081 8.871082537426453
Cu 8.238639543622918 5.17130403539189 7.210583149071771
Cu 9.108601241570362 8.220296197689128 5.012608948664438
Cu 9.108601241570362 5.792055349295031 5.012608948664438
Cu 7.006175773492081 9.405131021045358 5.1636042897939
Cu 9.820061662462797 7.006175773492081 6.976878318229928
Cu 7.006175773492081 5.056436154128697 9.331168678385227
Cu 7.006175773492081 7.006175773492081 10.84595040168028
Cu 4.9037503054138 5.792055349295031 5.012608948664438
Cu 8.238639543622918 8.841047511592276 7.210583149071771
Cu 5.651051468202678 7.006175773492081 8.871082537426453
