15
Energy = -37.90063391 eV
Cu 9.63414309366012 6.7702727618009835 7.62789039945615
Cu 7.975443657431606 5.047900535475555 7.397821944495065
Cu 7.894904549066861 7.22687035751157 6.110875701105042
Cu 8.224501365397163 3.093797212350956 6.076043487911089
Cu 6.087393380526512 7.1360916539033115 4.537076020809495
Cu 7.312179167750631 7.1722253143979415 8.431540576803796
Cu 7.427924362053229 5.1287510604213615 5.019031432593528
Cu 5.949681548472281 3.6490780070529025 6.357902887498994
Cu 5.7126903737046435 5.9543418231371605 6.9969932175543645
Cu 4.958009854575304 4.968525605353495 4.551698269331176
Cu 5.755893218120712 8.310721562233974 6.834127997082862
Cu 3.886281695274357 6.9329326969528156 5.585726986877637
Cu 4.122854368669313 6.75113954498026 3.1815472336848867
Cu 3.7045891769153796 4.6567827615963715 6.563973723677614
Cu 3.4924839353834676 8.952801511607458 6.681183156107596
