18
Energy = -49.15075358 eV
Cu 8.800532901174094 8.796607706716141 8.726585285925516
Cu 8.801016764894154 8.793232723335615 11.075655606466704
Cu 10.95654011052921 8.782699310182302 9.712560158870044
Cu 9.441585370235572 6.736282891631969 9.702370855554705
Cu 10.578770262348279 7.489600227127716 7.614571308232899
Cu 9.481516948934223 10.84435415917975 9.724368248902763
Cu 11.045627914968815 8.796607706716141 5.594315197253327
Cu 9.471894843508961 6.662446921540984 5.590666738161941
Cu 8.136718992598901 10.92532404535802 7.634086637094132
Cu 6.574639536510513 8.824227616943254 7.623949969300281
Cu 6.949005151345184 7.511022443282665 5.59496078114928
Cu 6.978846898066433 10.166094841107931 5.6145561688908305
Cu 10.599712780892343 10.09091580324734 7.623076736015925
Cu 9.505707033755113 10.952085857086287 5.604921830665214
Cu 8.793878628123531 8.806859417201343 6.263715235121445
Cu 8.092251567587894 6.7033576490581845 7.608846873891828
Cu 7.037590296171954 7.542064184660443 9.705413080634951
Cu 7.061704420448792 10.0779864956237 9.721167554149561
