17
Energy = -45.29102937 eV
Cu 4.957795790440299 8.088963816909885 7.827032638318768
Cu 3.5242190937909377 6.006005158656949 8.393444161509588
Cu 5.969831441994974 5.989774581370096 8.617551057042304
Cu 7.04645587062717 7.195721778526847 6.768266282234633
Cu 5.453775413644344 8.401828280097519 5.436682182229875
Cu 2.908668654728905 4.587943567940566 6.2833683385394945
Cu 4.807434924050367 4.009839685640599 7.748393914132494
Cu 4.612464684032661 6.240635423010868 6.35969793137571
Cu 7.666660806073982 7.947395017854938 4.461133822245273
Cu 6.909792334418189 4.7259562943360995 6.7674214671014905
Cu 6.103894480968371 6.159358068504703 4.523337504996984
Cu 3.7588467704736983 5.454678722613211 4.137761745695031
Cu 8.576388037840175 5.849941056097778 5.403971524174435
Cu 5.094827867232683 3.843998350149901 5.321988761505415
Cu 7.8575352380668795 5.777907996155386 3.0532338996647046
Cu 7.422958857123094 3.864136572106775 4.552951590716318
Cu 5.651575553043706 4.429543211090501 2.9410046549621356
