10
Energy = -24.14605097 eV
Cu 6.576898785378739 6.508489775884864 5.254841689201267
Cu 7.566292336768781 7.372549748909687 7.321779840049848
Cu 5.970989547452429 8.643180469968033 5.984812561913132
Cu 5.148980951884796 6.779722107303614 7.346912823323064
Cu 5.192134761474668 5.449896547286186 3.598194381077309
Cu 8.429010161791693 5.9475670345831055 8.955314085833722
Cu 4.171763383953721 7.01875975205306 5.107878613302949
Cu 4.845887490969594 4.848374136266572 5.979174014461785
Cu 6.911928947778422 5.040246943421465 7.318271202253466
Cu 6.9149037731208365 4.1941512939171846 4.954815388682503
