11
Energy = -26.00200262 eV
Cu 7.832787900375888 3.6373744964628676 4.4786343302798235
Cu 6.936196019766833 5.780933126070746 4.197006632113783
Cu 6.277318626533048 4.429865026684384 6.070445690989549
Cu 5.878688494156054 4.158970218527855 8.453383826236871
Cu 5.931344270046345 7.816190693845736 3.475759433479402
Cu 6.292549658461703 6.350231068135288 7.479480008639416
Cu 6.918319132266043 7.746192091494339 5.633094301974941
Cu 4.184750570216522 5.1348784296990715 7.132724301050719
Cu 4.867997942679461 6.482666895023921 5.2641690433673665
Cu 2.5677629583689696 6.050969724647451 5.726143205055003
Cu 7.853265775001433 8.11107942225052 7.741230713892453
