12
Energy = -29.37501729 eV
Cu 8.576637361541977 8.488112022552542 6.0271359414320775
Cu 4.287039100298567 7.530927995107751 6.729587114126579
Cu 5.059106030388441 5.413213398776446 7.5166728819693045
Cu 7.775406117388617 6.674522298227552 4.699501403324885
Cu 9.038357155701535 6.305010725232554 6.874101209137565
Cu 7.119049442777274 4.824404516763294 6.228297854409585
Cu 5.315261986794054 6.12239780869097 5.092039388646036
Cu 7.351151427408639 5.513983822325513 8.614131392055326
Cu 6.696553650985735 7.206527112494546 6.893253015146674
Cu 5.644623195359776 7.120512304000703 9.078140181573806
Cu 6.096214915710063 8.36759930521674 4.8472584987918745
Cu 8.304671283227256 7.696860230407632 8.66395259529009
