16
Energy = -41.96081214 eV
Cu 7.093837836176751 8.221961698459092 4.998885512180081
Cu 5.93208579233585 8.535811990627488 7.247024854978818
Cu 7.938172665954184 5.1369859303079 10.083062825001846
Cu 6.8174873356120775 7.09927478277918 9.058331004942165
Cu 5.142163637035935 4.85241611947687 6.04818551591589
Cu 4.838046273686135 7.342688841517389 5.402509869100024
Cu 2.9783741436607665 5.993461554030698 6.0892655915571785
Cu 8.45177229062451 7.146444526747942 3.2669688202960843
Cu 4.648068145152873 6.480513200695417 7.832046804102763
Cu 4.203934954979492 5.47003942256132 3.957275741643509
Cu 6.856888628367648 6.401401571210862 6.6124551082716865
Cu 8.345583839989928 8.149078361577573 7.417734618851586
Cu 8.97475973664161 6.663020155276352 5.540278484029037
Cu 6.42844080918192 4.7648876911702605 8.277343868036665
Cu 8.750739430511825 5.797606371643722 7.949348830030693
Cu 6.5830191170989325 5.927782418928651 4.202657188072264
