11
Energy = -27.13520598 eV
Cu 5.690237473232307 7.510601263722891 3.4129506173185398
Cu 6.357308737998655 7.380723850326818 5.8308522491792365
Cu 4.112582426648374 6.746018258573814 5.027454724326877
Cu 4.536607416754521 6.668205595303122 7.410351365397434
Cu 7.904438879576466 6.876716532263635 3.8895297648566194
Cu 8.124315123630439 5.6614458958782565 5.929063400004137
Cu 4.2810029091297865 4.628281888341026 6.17844865856237
Cu 4.9771819607157015 4.522319434395451 8.515176201363747
Cu 6.083809051282578 5.314249809578447 4.587781784027741
Cu 6.78275084804124 6.05598597765338 7.910002203560373
Cu 6.523830390920125 4.009516711893491 6.68245424933325
