18
Energy = -48.47505109 eV
Cu 6.739518650133122 7.020341975251213 3.8962690852427535
Cu 8.344469431785138 7.483474798579033 5.883455672161719
Cu 7.9968882361306735 5.188429323469373 5.373583626641049
Cu 6.449912664752191 8.89811223467552 5.547953704213505
Cu 6.9969509214088506 2.9999471223036713 5.271153765445475
Cu 4.456185836548855 8.056145130478544 4.506566224768612
Cu 6.541331889929469 4.623575924609289 3.5319145137159094
Cu 4.454973416024696 5.70259566169 4.123849574719337
Cu 5.913465208610156 6.517501722828389 6.054707491208069
Cu 6.792710273785986 7.943771429551279 7.849716815095447
Cu 4.69955047326655 3.3159781930835335 4.423700936993086
Cu 6.440890306297156 4.2863156757273515 7.27822597573073
Cu 3.194093404706678 6.6780987353320125 6.0676903969195175
Cu 4.5441677220227845 8.36869749276283 7.027892312156702
Cu 8.053519880483073 5.933931654082965 7.740022780097358
Cu 5.097988836530603 2.390583878263228 6.652720104131116
Cu 4.162704527594987 4.57400015666293 6.433079269248066
Cu 4.991304110570378 6.144889729524843 8.179234602265785
