16
Energy = -41.82859055 eV
Cu 7.341195755738855 8.133726519413571 4.490239974891621
Cu 7.2891786357014094 7.013792025869453 6.6556095035575
Cu 5.30075985499641 7.470051657526974 8.159950113141408
Cu 5.111968040597834 7.919616400813406 5.733447946778234
Cu 8.607428883802312 6.004181591886576 4.89938073857007
Cu 7.708573694647264 6.448925636394582 2.6724128867436923
Cu 6.088501192011792 6.111805902579497 4.331271851242057
Cu 3.218239033542902 6.785420670254007 7.004259972718073
Cu 7.364366002314521 4.193810574252015 3.6777080447607813
Cu 5.326757971661956 5.607060416850648 6.634571845844957
Cu 3.7120819642765515 5.982765155080307 4.774491001108388
Cu 7.3290949745800145 4.369600823970356 6.105126357531375
Cu 3.249068186041204 4.3103126709926896 6.460987691176045
Cu 4.260220684473435 5.158382866690798 8.628221480793345
Cu 5.36204279617363 3.272617917007111 7.244721728995441
Cu 5.1621013669267475 3.8714265580223284 4.849012178675762
