18
Energy = -48.52709688 eV
Cu 7.020559710697406 3.6578320312693724 6.136649140395155
Cu 7.654267758244632 6.206195003377768 9.238777175104172
Cu 7.990405957813507 5.597938549688561 6.915968990837739
Cu 5.694055232574219 5.266277318345627 8.186451863144535
Cu 4.697137310156961 3.4528424147956116 6.517752626174311
Cu 9.147441448489555 7.505002728769835 7.72904188378007
Cu 7.553339980553054 5.506248490546096 4.404012009142243
Cu 5.718814766236645 3.9032686069450104 4.113623534151484
Cu 3.570263820378594 4.7590887549566565 4.757921816085117
Cu 8.139725223881557 7.632453385482296 5.520536654386029
Cu 5.537349641250933 5.7166538656427495 5.88173886655103
Cu 3.5338068341093947 7.1289292277429075 5.192193266563105
Cu 6.755977421333763 7.678561343437729 7.550106975803902
Cu 3.3517237338857204 5.387572817607358 7.131706025239562
Cu 5.248329670439519 6.301888349245375 3.572070772764958
Cu 7.167537725565723 7.707156156764213 3.344840190420286
Cu 5.741494025188996 8.1716523310774 5.293645631736935
Cu 4.453462804950653 7.466943756571031 7.419177985480713
