18
Energy = -47.45005208 eV
Cu 9.359245517286615 6.736581571995139 4.691258610188224
Cu 9.17772699604698 8.985055775832809 6.038334163897463
Cu 8.733786802577796 8.801543731701207 8.382672034605298
Cu 8.469291381905373 6.881835864904712 6.933240903641974
Cu 7.194515546337713 5.538509576127087 5.182657416929307
Cu 7.376323319256874 7.953141395176854 4.831650381992172
Cu 6.741303456582356 5.367313236302435 7.565113683060936
Cu 6.613914679750267 8.53646601346232 7.200949924655918
Cu 7.1923008909938035 7.091708312265807 9.215244916171159
Cu 4.960983834695517 7.016715134889462 8.333703390464393
Cu 6.177170722538333 3.4564100993010025 6.297820922870095
Cu 5.603550447524986 5.087897651346918 9.588341832705245
Cu 5.4240774997353025 9.153527356128851 5.08244966333303
Cu 5.576329718476359 6.848096993041808 3.644649074041054
Cu 5.177056930032927 6.931343888505505 5.987216034768373
Cu 4.412297769475961 4.837838760397543 7.282281914828374
Cu 4.7894902099289824 4.8500145920570095 4.832712285679949
Cu 3.935425715856125 2.8407914855652594 5.824494285169445
