15
Energy = -38.69166092 eV
Cu 5.018130368415218 3.3988364447845867 5.364957415769473
Cu 8.842217078140044 4.867284487510803 4.291262968042571
Cu 2.93967485710384 5.670030261513594 7.914606786805365
Cu 4.959408972194436 7.028178659068931 8.570156890400881
Cu 7.099641492030013 6.358036704413082 7.570408965688254
Cu 6.8601650692967455 3.399600206289054 3.7486705132121743
Cu 7.01234543113533 4.699292979482691 5.749332133077305
Cu 5.074562306902923 5.155227002018292 7.091385444619992
Cu 4.771444947986857 4.728814692499583 3.398057876088276
Cu 7.756847070256707 6.962020193319665 5.276749234935564
Cu 3.3194773172503402 5.197700039013484 5.431026062233791
Cu 5.979235729796019 8.224883902871548 6.587948704322831
Cu 6.898456200955543 5.7964585052900635 3.2534045259876443
Cu 3.73569789599513 7.421373272774209 6.487579686867777
Cu 5.29707184540765 6.656639232017653 4.8288293748153395
