15
Energy = -39.33572817
Cu 8.516649999999942 9.055467999999918 10.465558999999976
Cu 10.877753999999998 9.356150999999961 10.957604000000119
Cu 7.479462999999951 6.860883000000061 10.702550999999936
Cu 9.778428000000005 7.293006000000075 10.697219000000091
Cu 6.448885000000078 8.587799000000052 9.317272999999966
Cu 8.537616000000053 7.332504000000009 8.747966000000046
Cu 10.324924000000033 8.763105000000103 8.747966000000044
Cu 8.072497000000011 9.87270000000009 8.332541000000008
Cu 11.892854000000021 10.376712999999908 8.86509200000001
Cu 9.646763000000044 10.933633999999975 9.558654999999938
Cu 10.05127199999994 10.553344999999934 7.2905680000000626
Cu 8.041154999999934 10.15239400000004 5.947528999999925
Cu 6.9209829999999695 8.260693000000067 7.053665000000053
Cu 9.194447999999912 8.469220999999889 6.778701000000026
Cu 6.413903999999999 6.329981000000043 8.596523000000046
