18
Energy = -47.84735584 eV
Cu 6.871988417308917 5.62984370375235 1.7670185053079663
Cu 5.539092031733169 6.876823868639268 3.3892960433639248
Cu 4.094340836658741 5.410142114166273 4.748220974669603
Cu 6.1162410224789525 4.410296932647973 3.736303671929616
Cu 4.6863941066792 7.816073065315315 5.641587201815838
Cu 7.998078259271035 6.19928129214317 3.77473322007935
Cu 7.024553185024424 8.275345383497141 4.873317406080794
Cu 6.323869489899786 6.036370709608627 5.529647553740873
Cu 4.439202556541404 5.799156264844047 7.12683106550787
Cu 7.9969632623523355 4.270314677884697 5.421293653381069
Cu 4.342920092268064 7.985527841304686 8.099312187034144
Cu 5.65216576961793 3.8006120474705942 6.177093708375345
Cu 5.27819233290276 4.107116434971724 8.597096105879361
Cu 8.585616191874117 6.662630391261279 6.121771578232405
Cu 3.6303090863238796 5.892768087097594 9.372495385650161
Cu 5.929902959562298 6.432598777455663 9.195130472375071
Cu 7.262387352741049 5.181568048483949 7.620384044374181
Cu 6.652895232304026 7.720639948970225 7.275097600077991
