16
Energy = -42.43171154 eV
Cu 5.798226428195404 6.563618863057817 9.395853813342853
Cu 4.764272152130314 8.271927964135248 7.817004565696042
Cu 5.4818127053039 7.696299352682239 5.499703392587041
Cu 6.513830965811638 9.524816489431062 6.567076051980086
Cu 3.16689947718716 7.336366235988792 6.1659473125340485
Cu 8.671411523987418 5.417963262592006 4.444247438295971
Cu 4.378762254169936 5.817401501598928 4.660153002500588
Cu 6.598458181702091 5.339727246872494 5.63746796422599
Cu 7.0364417091244595 7.380440797469342 7.5272924069561125
Cu 6.94086900771098 4.878608297121177 7.9595911570464875
Cu 4.8025407985705595 5.908334178110199 7.215512895422077
Cu 7.914900095057877 7.567999869045678 5.283676458300256
Cu 8.322811258216635 6.320966205936146 9.278343645912566
Cu 8.88688196202911 5.930288058122352 6.848805690627529
Cu 8.224434670976423 3.6715035655843984 6.203400109478048
Cu 6.528876235503782 6.405167537929551 3.5273535207723965
