11
Energy = -26.66667132 eV
Cu 9.049408417314327 6.176845952399862 7.096849244613734
Cu 5.953233321164068 7.692699263714301 7.152602755889744
Cu 6.97055943080845 5.102739299085812 6.514054575735342
Cu 7.4535247983797435 9.371891329999935 6.147503048024991
Cu 5.3710549494336615 6.312408887847514 5.2565066538545615
Cu 4.773454083978383 5.491936221433441 7.4723742104333315
Cu 9.697686906020104 8.318949117997253 6.050581210714221
Cu 7.686242795239187 7.140885837917771 5.370523040923337
Cu 4.834160557245853 7.0353179698081 9.247794050145963
Cu 8.209741199740277 8.194339119650632 8.03046137460642
Cu 7.018364571251562 6.179418582526042 8.678180037926346
