15
Energy = -38.49271042 eV
Cu 3.754898911402144 5.359917758775515 3.7246191303418215
Cu 1.7547256374296434 6.416581242602 4.435072693808828
Cu 7.35581305958096 4.324730388504456 5.907854803082561
Cu 4.133294864930776 3.1744286381615634 4.728369452564481
Cu 5.171110881582051 3.7947782196150914 6.831067946216612
Cu 3.24186751666421 5.126165080541697 6.055141794796569
Cu 5.556487642229071 5.937842553369391 5.775732359832073
Cu 4.858338482358644 5.849834099024796 1.698731545100328
Cu 6.985151023713726 2.276457903410964 7.203213587702386
Cu 6.04410789076498 4.5592270007772076 3.700554373327679
Cu 5.57107979247046 7.077387330241677 3.618846292788119
Cu 6.4102424178307995 2.420915633730932 4.825491401056243
Cu 3.765514943562546 7.472126197898364 5.157762370279288
Cu 3.2771659695426574 7.4824496124098525 2.728138203139435
Cu 4.837176003167365 1.4441333781668395 6.326379083193933
