15
Energy = -38.17807228 eV
Cu 6.796448211128886 5.316880372141563 3.236106649884893
Cu 4.886888843820218 4.728240083287546 1.7695044276262666
Cu 6.923064106130273 3.3815040373946412 1.818552791532604
Cu 4.56515338787923 5.9045627299663375 3.796396066769501
Cu 4.823712043522481 2.5336492113713214 2.7080989789202397
Cu 6.71683874647952 3.1257485801169085 4.188811038251329
Cu 2.912107883071041 4.1545392207632 3.322164507340181
Cu 2.440144046264016 6.1149303165133135 4.875402629860155
Cu 2.348842261696585 3.9355114062992693 5.803720024587405
Cu 4.474430081768717 3.2268999794378757 4.949614828171761
Cu 6.018704494473274 5.079353309256172 5.667326745356664
Cu 4.504663430530058 7.090419063562361 5.873421033818973
Cu 4.416335480672419 3.890877111656675 7.238068132344361
Cu 3.038480260350384 5.798920784124673 7.207677457653089
Cu 5.432487763933649 6.016264835828888 7.843435729603331
