18
Energy = -48.72574255 eV
Cu 9.460742431689413 4.352004469867239 7.132334860568919
Cu 8.657088584320848 4.490035207069404 4.8551826005194405
Cu 6.052029822880413 9.66352750090925 7.619378757065694
Cu 4.844139929125417 5.4998270223215115 3.31304679125533
Cu 5.278238939765133 9.826970789045744 5.332968960526196
Cu 5.062126441233271 7.661154654633099 4.325787197813405
Cu 5.004666492929312 5.536405808411602 5.710660121669797
Cu 7.1857207823302565 7.607119359577019 8.186888446859927
Cu 8.429771585434112 6.404141217025241 6.43947141297658
Cu 5.523268972783116 5.776924609280486 8.067202441657379
Cu 6.405852293053139 6.347505300338393 10.235909690298387
Cu 7.006954950924664 6.20514683147323 4.414427889389153
Cu 7.920928517162521 5.332070437701463 8.683517227094457
Cu 6.293153995743547 3.880793703987252 4.367534945100183
Cu 6.998305579174053 4.3869436242767135 6.633819730123487
Cu 7.0452006349202945 8.271912353991016 5.786169650992062
Cu 4.996258000042672 7.976510698947711 9.142762060609769
Cu 4.8245412398917615 7.769995604547017 6.741926408883234
