12
Energy = -30.45295328
Cu 8.277064000000014 8.644515999999975 6.948430999999963
Cu 9.596703000000007 7.967510999999878 8.919921999999982
Cu 8.299759000000073 8.644202999999862 10.897031000000121
Cu 6.025804999999991 9.385379000000043 7.671676000000098
Cu 10.78701999999993 8.03288299999999 6.849597000000106
Cu 6.040246000000098 9.385127999999913 10.19958700000004
Cu 10.100424999999943 10.13054700000004 10.107779000000054
Cu 7.18226099999997 7.746078999999904 8.924236000000015
Cu 10.810863000000142 8.03257499999992 10.96684899999997
Cu 10.086669999999947 10.130763000000119 7.717138999999894
Cu 11.854455000000026 8.830860000000026 8.906967000000101
Cu 7.967869 10.108235000000064 8.91992199999998
