18
Energy = -47.7904835 eV
Cu 7.558741914905126 6.60978881368631 3.4348647765176032
Cu 6.507476871200937 8.625198510005495 4.493747425423978
Cu 7.530271563124573 7.080616923790209 6.011448059483299
Cu 5.5642364685737356 6.221698687770094 4.645817830869054
Cu 6.95047018757604 9.25515793573633 6.935234073995996
Cu 8.044437293853292 4.939451531780049 5.02084627431343
Cu 4.1324396949584985 8.133769704095442 4.235052404957655
Cu 6.284156928711001 4.218738323907095 3.54500360014819
Cu 5.0882344980197765 7.9293755783779725 6.411422698076551
Cu 6.48547505239201 7.17587914554435 8.252323943457313
Cu 4.217947856615809 4.221357678452053 5.112403997756451
Cu 3.2611341656611703 6.432623012430857 5.799559918466624
Cu 6.312262956779735 3.496452257286213 5.913823668724514
Cu 8.622354991494678 3.121072782037455 6.398054309466043
Cu 7.491418199795556 5.013920687578903 7.446626092979333
Cu 5.139420944907593 5.463719884900952 7.0404753002480565
Cu 5.8070710961771 5.085153594508123 9.257199960006721
Cu 2.985860784257292 4.50855601819542 7.2039612252354335
