14
Energy = -35.67084158 eV
Cu 6.91502488773671 7.744666159664379 6.84129768015679
Cu 8.167871816643224 9.388274499621424 8.087688812161598
Cu 8.134891898181806 7.006369226697759 8.777926913861121
Cu 9.399753139122817 7.719079134036052 6.84129768015679
Cu 4.420578942666329 4.996318246646661 6.84129768015679
Cu 4.537963049528953 7.438553774206472 6.84129768015679
Cu 5.878143888968931 6.107304156202225 5.264086262324881
Cu 6.209069308497613 3.7938649790022363 5.633347733629895
Cu 7.658941860631422 5.382842121606973 6.84129768015679
Cu 8.167871816643224 9.388274499621424 5.5949065481519735
Cu 8.134891898181806 7.006369226697759 4.904668446452459
Cu 5.878143888968931 6.107304156202225 8.418509097988693
Cu 6.209069308497613 3.7938649790022363 8.049247626683686
Cu 6.0659518179252645 9.905082618688656 6.84129768015679
