12
Energy = -29.93696219 eV
Cu 6.328813024316162 7.209329691220453 4.005866204834184
Cu 7.016223921930762 8.925912637935616 5.552314727558115
Cu 7.754811853060655 5.278984697936421 4.30793765145477
Cu 5.200333035629992 7.5333348222191585 6.270644142001006
Cu 7.381617223575594 6.662369926074848 6.253431606258469
Cu 3.973983666004293 6.748124076463354 4.347144650907725
Cu 4.696317237178921 2.9805307599748603 5.644181472021459
Cu 5.413898176275591 4.844296335165602 4.219082026777101
Cu 4.232158683894111 5.252737971751898 6.323002872209714
Cu 6.561242061406846 4.346170740349024 6.3193156400885115
Cu 5.821140871666394 5.895555827167454 8.040291199439837
Cu 4.94020841381061 3.643400682491667 8.037535975199207
