18
Energy = -48.12750659 eV
Cu 6.852239441966614 7.964609019698285 7.402732045468799
Cu 4.041557126262117 5.685214863759091 5.32258365857854
Cu 4.781841121505681 8.99723993204487 6.854581539418873
Cu 9.023606225606997 7.260434374419768 7.97080642063416
Cu 6.935572382037542 5.897127840727724 8.604707694631507
Cu 5.023705858868459 4.4784177385500925 8.786808803343476
Cu 7.537130923925958 3.5130635800984367 5.419126896221313
Cu 6.747945931469809 8.924946071356612 5.207360225411355
Cu 8.589293421383267 9.488929695493738 6.812438066830641
Cu 8.68431090391506 7.486881962534711 5.5184756820727126
Cu 4.783170018498213 6.6265649906699196 7.501337182593949
Cu 5.746436105829098 4.589077355714779 6.533969799231661
Cu 2.869977512300505 7.564063794278961 6.347304646882666
Cu 8.26639011838683 5.367716026159 6.688004336007182
Cu 8.68550353787266 5.4023206097933185 4.325779002333197
Cu 6.513334855215464 6.328915988121008 4.9775169917512
Cu 7.269244063490243 3.535577844822288 8.001248412761885
Cu 4.651976733716349 7.892134594008133 4.728454878077086
