13
Energy = -32.47920506 eV
Cu 4.946063181513315 8.131498610958134 6.96666183976245
Cu 6.920771580313366 5.711241425654039 5.54883504948145
Cu 4.851742595126108 6.920771580313366 4.862176392336539
Cu 8.895479979113416 5.710044549668604 6.96666183976245
Cu 6.920771580313366 8.130301734972692 5.54883504948145
Cu 8.989800565500623 6.920771580313366 4.862176392336539
Cu 6.920771580313366 6.920771580313366 8.043316325399376
Cu 8.895479979113416 8.131498610958134 6.96666183976245
Cu 6.920771580313366 9.351834999999998 7.636555576309736
Cu 6.920771580313366 4.489708160626732 7.636555576309736
Cu 4.946063181513318 5.710044549668604 6.96666183976245
Cu 4.592366786612921 6.920771580313366 8.982466411684763
Cu 9.249176374013812 6.920771580313366 8.982466411684763
