14
Energy = -35.38975667 eV
Cu 6.250723669462536 3.031821696946278 4.015535814578806
Cu 6.3153595789200265 5.422003722697378 4.477715244551455
Cu 6.180196131286418 7.643370210453672 5.414754248642257
Cu 7.792672826200668 6.0245917690083886 6.401102198652535
Cu 6.838349720497061 3.6946922566679006 6.2672385996208595
Cu 5.277260204695601 7.364172506186273 3.2262296190649695
Cu 8.643831063657698 6.707009265865549 8.654820216781154
Cu 7.250051397148416 4.777943026271497 8.372153889731084
Cu 4.499050352783055 3.979251447606159 5.263323691093632
Cu 5.688086989991533 9.580171258021682 6.811152554248066
Cu 6.630221174513244 7.588252801005985 7.818959579462102
Cu 5.402568810595199 5.558548585583494 6.8768227886718485
Cu 4.267986619156327 7.725813225396788 6.893513373773196
Cu 4.033356928975229 6.315902941838307 4.9351466108093875
