17
Energy = -44.86780375 eV
Cu 7.004291230032697 10.538633000000004 6.982713181360282
Cu 8.64541397838145 5.178143993380211 6.78868531712625
Cu 8.64541397838145 8.830438466685179 6.78868531712625
Cu 8.62373815437482 7.004291230032697 8.441237099238862
Cu 7.004291230032697 8.85503596875072 8.671325145882804
Cu 8.23286588944627 7.004291230032697 5.155334493322304
Cu 5.363168481683944 8.830438466685179 6.78868531712625
Cu 5.363168481683944 5.178143993380211 6.78868531712625
Cu 5.384844305690577 7.004291230032697 8.441237099238862
Cu 5.775716570619126 7.004291230032697 5.155334493322304
Cu 7.004291230032697 9.100821466489057 4.993732838738947
Cu 7.004291230032697 4.907760993576339 4.993732838738947
Cu 7.004291230032697 5.153546491314668 8.671325145882804
Cu 7.004291230032697 7.004291230032697 10.21671938244826
Cu 7.004291230032697 3.4699494600653935 6.982713181360282
Cu 3.8315734460787496 7.004291230032697 6.606402307332522
Cu 10.177009013986643 7.004291230032697 6.606402307332522
