16
Energy = -42.10199164 eV
Cu 7.283373122365106 8.773456173009818 4.586223887510046
Cu 4.573910816101069 4.545162956308876 7.688936164692971
Cu 5.27778179359613 7.662884760078241 5.27851578641471
Cu 7.032592152713695 5.127010664551001 7.796349850846857
Cu 3.4235633146559414 6.365000318357819 6.431635890115459
Cu 6.895001957395959 6.247598925953664 3.9887485734130426
Cu 8.019085029786778 4.6402701751389674 5.649454058337099
Cu 6.376989953141482 3.783828367380648 4.054293662025666
Cu 7.588081821087501 7.021033893939755 6.169008570156086
Cu 5.499300715831909 5.2688963194580385 5.680919122042425
Cu 6.253147399362673 3.1515717030443398 6.486700397979149
Cu 3.990325524254927 8.74338421852886 6.933030714208622
Cu 5.44187626267102 6.954359796821546 7.712540377499998
Cu 7.785501839689763 7.529010615809952 8.447172801717885
Cu 9.32762607454509 5.912254988837414 7.3668727816241475
Cu 6.475648438787532 9.049539888647157 6.948937909075406
