18
Energy = -47.55131946 eV
Cu 6.638370284761474 5.131398607485237 7.309380404184053
Cu 7.821044704816029 6.38533188916676 9.20832657247814
Cu 8.036234363712627 7.620021640540301 7.148666662441232
Cu 7.5970611115962265 4.498000550444805 3.4594833538626446
Cu 7.043517645961346 8.74794573765366 9.298332209369894
Cu 5.878297900644621 6.26989903399373 3.698195518200849
Cu 5.850797546911288 4.2431712782300615 5.127374170897489
Cu 4.665057903967321 9.31004389721418 8.638032241305602
Cu 5.756310982330155 7.292472193881508 7.968381081302219
Cu 7.042742018375097 2.3068280432154866 4.1605297291361945
Cu 6.489733768327158 9.599888691110431 7.087754283325187
Cu 4.381046469580517 8.7347185758279 6.184191845821007
Cu 8.072257734657509 3.6813834124857436 5.8559405304500425
Cu 7.774404911540187 6.043811953109673 5.290695070473117
Cu 6.49923670942178 8.064284880730536 5.23908963629569
Cu 9.011272167552475 5.33710205728809 7.388136578102129
Cu 3.4151359820740925 7.283969777677367 7.83613416147538
Cu 4.875816172572788 6.298066158746619 5.949694329681682
