10
Energy = -22.50060702 eV
Cu 7.681217869844952 5.590880988301436 6.679551285701518
Cu 5.168961261966401 3.362296067812702 5.419639268437961
Cu 7.135467438067185 4.730413269188587 4.199506400463634
Cu 5.371589576329105 4.751567252077723 7.687452405986232
Cu 5.630037414129827 5.621826268749129 5.623384781894846
Cu 3.393414265045763 5.114420048456318 5.928093897712739
Cu 5.867282797380508 7.3273394396583935 7.17841232156952
Cu 7.064099311286053 7.300408156472953 4.916589283927782
Cu 4.534507564461355 5.057548171416183 3.6515601565551288
Cu 4.393279939278101 7.383157775655561 4.955667635540011
