12
Energy = -29.31617069 eV
Cu 7.717757941803045 7.5862031329372535 6.250523780436736
Cu 5.314206488919875 7.503894256813015 6.439116863496151
Cu 8.730309112274636 5.829838112360484 4.867059428921015
Cu 6.438951704369877 5.390049835321705 6.4762409357212425
Cu 6.5736173630031995 6.635193016563248 4.382360713828301
Cu 4.4618375906217 5.855300750625068 8.045708329165718
Cu 4.246750609049988 7.263605269827618 4.1634011614172
Cu 7.112190788336825 4.12629330541751 4.506310071422225
Cu 3.2415458947584663 3.8541941258086587 7.290372980901765
Cu 4.954404220202116 4.9191450092280515 3.807973565801548
Cu 3.8589654802156104 5.587158607711178 5.822678419619076
Cu 5.004841633258752 3.4431524355342016 5.703332090792667
