18
Energy = -47.39314777 eV
Cu 7.713622658626102 3.98598974194001 2.259398150878863
Cu 3.731239944024049 5.512367225880226 7.360236299559442
Cu 4.303383027826985 5.476491681951195 4.959450323857506
Cu 4.669373590574463 7.493743314835071 6.380233031094591
Cu 6.505869262995311 6.765226931693233 4.866091754588721
Cu 10.179211060972165 5.869669423082949 6.907200108814781
Cu 8.262621723420823 5.924468888096631 3.465958102411276
Cu 7.9510278485306305 6.28025277558285 7.629974391675921
Cu 5.283216697239554 9.146767158106309 8.09487890860163
Cu 8.844603951747235 7.243902655633135 5.449086619544868
Cu 5.251546690584725 8.224764705676709 10.303747315712156
Cu 6.980335038913945 8.321038640531695 6.634799858656801
Cu 6.026213134877041 5.088351229639522 6.611176312392933
Cu 5.695620691592803 6.604292047544272 8.525282009102092
Cu 7.396245390906608 8.211782557698877 9.079183758063657
Cu 3.5225210619616774 7.598159269362092 8.613563780984661
Cu 8.310294319498517 4.8622519023855535 5.6974047152162015
Cu 6.4115319227895515 4.428957867441852 4.200812575926679
