11
Energy = -25.81039825 eV
Cu 4.687480904741037 5.192672639380661 7.004514215382832
Cu 5.312070975740226 7.534730691247922 6.917665325369663
Cu 5.99712447622791 9.816179317796188 6.829286417536269
Cu 7.6635324797348 8.114785182383764 6.901816938480634
Cu 7.007428756066727 5.78696150077594 6.988020533709255
Cu 9.345904721449406 6.412338913603274 6.964590507616628
Cu 9.992662247076348 8.705616094987992 6.875977394088625
Cu 8.317784395397384 10.39132776635823 6.804913491617549
Cu 6.363240427437211 3.4985320077021274 7.1232694617408825
Cu 8.694446234713634 4.120631692708753 7.101865877372472
Cu 3.050562941752275 6.858462883582267 6.920318918183157
