13
Energy = -32.1277514 eV
Cu 5.084674190729274 8.508361857454192 7.645978206300581
Cu 7.157756662629992 5.9033388528145965 6.119968276642724
Cu 5.106478033775862 7.157756662629992 5.674920453441737
Cu 9.23083913453071 5.807151467805792 7.645978206300581
Cu 7.157756662629992 8.412174472445392 6.119968276642724
Cu 9.209035291484124 7.157756662629992 5.674920453441737
Cu 7.157756662629992 7.157756662629992 8.231067196544732
Cu 9.23083913453071 8.508361857454192 7.645978206300581
Cu 7.157756662629992 9.580896733868483 8.213941872222037
Cu 7.157756662629992 4.73461659139149 8.213941872222037
Cu 5.084674190729274 5.807151467805792 7.645978206300581
Cu 3.1693383252599827 7.157756662629992 7.109097693914601
Cu 11.146174999999998 7.157756662629992 7.109097693914601
