13
Energy = -32.96517479 eV
Cu 6.755172606286278 4.592866579028453 4.68450686168549
Cu 4.749807196862078 5.995301437391521 5.028729052928815
Cu 7.826732980759451 4.077365360544166 6.814717537422571
Cu 6.60224176391134 6.121806993734979 6.692901974759678
Cu 5.084645931733561 5.0902326493297485 2.8796722227956626
Cu 6.625082030892648 2.354667074147995 5.550493914230794
Cu 4.618751304560261 3.3531548308660954 4.568789067064348
Cu 2.5106591842612667 6.707679410329267 5.4580208229240705
Cu 3.507842832134193 7.000489151257893 3.1921832611021843
Cu 2.7770461295030238 4.813833319947387 3.791643157438407
Cu 4.166125341700905 6.2283276226690445 7.29338503245008
Cu 5.399442455114039 4.065864638412734 6.830002008140417
Cu 3.040053641229973 4.399625596508138 6.121426393060256
