18
Energy = -48.53736841 eV
Cu 6.171703274881378 8.583666014207205 5.419971670905761
Cu 8.787522584467345 5.368936161189165 4.505764865880306
Cu 7.981453603807512 9.576305983069707 6.831479521902903
Cu 6.577916554775427 6.243736165176247 4.894602288222808
Cu 8.472792717027497 7.648019489855845 5.378729110954556
Cu 7.764059053585076 3.4932341209229616 7.9232948268140815
Cu 6.2657393342682886 5.325032215822826 7.837857186958654
Cu 4.3242776113192685 7.093030491105448 4.643714671260889
Cu 8.519147823896818 5.645886114611149 6.867638203459896
Cu 9.580823677563506 7.790203409172518 7.525309196143145
Cu 7.180814482235558 7.535009652604882 7.664633440813283
Cu 3.8931788595327608 5.001502906791325 8.029019609875345
Cu 4.729445175091185 4.927474120850206 5.749764833285222
Cu 5.389451366800056 3.171055878913848 7.3429670710624935
Cu 7.047656809774701 4.009234162290704 5.668836303822853
Cu 4.837120910186396 7.098581602529904 7.01623922111822
Cu 5.611390284984687 9.409774938957648 7.633957848364649
Cu 3.8157004795195837 9.029511175645588 6.016414732872384
