17
Energy = -45.07824995 eV
Cu 9.838898730193401 7.559861538378411 7.1122393820169965
Cu 9.33113657179825 5.523537680740251 5.863064627499017
Cu 9.33113657179825 5.523537680740251 8.361414136534973
Cu 7.231451076958163 5.311346147747623 7.1122393820169965
Cu 7.964022321729505 7.519301160367517 5.558947843372048
Cu 7.964022321729505 7.519301160367517 8.665530920661944
Cu 8.348652269943074 9.420369388920625 7.1122393820169965
Cu 7.2296396364749995 5.326199643495911 4.677038267111578
Cu 7.2296396364749995 5.326199643495911 9.547440496922416
Cu 5.51755346679954 7.266242277125353 7.1122393820169965
Cu 6.253566008554824 9.279914205782438 8.375709500131142
Cu 6.253566008554824 9.279914205782438 5.848769263902851
Cu 5.70697353234967 7.236130102616756 9.528902718375763
Cu 5.70697353234967 7.236130102616756 4.69557604565823
Cu 5.102751282193949 5.1725677307649525 8.33897756559923
Cu 5.102751282193949 5.1725677307649525 5.885501198434761
Cu 6.7953353720431044 11.234948966730961 7.1122393820169965
