12
Energy = -29.23513196 eV
Cu 7.030318590735826 7.030318590735826 8.317653330115668
Cu 5.085909299177228 10.419117 7.030318590735826
Cu 8.974727882294427 3.6415201814716514 7.030318590735826
Cu 7.030318590735826 7.030318590735826 5.742983851355984
Cu 7.058750427173324 4.5342374167899475 5.849062643657283
Cu 5.334423184892479 5.697430437589447 7.030318590735826
Cu 8.810867093225813 5.966231009881359 7.030318590735826
Cu 7.058750427173324 4.5342374167899475 8.21157453781437
Cu 7.001886754298326 9.526399764681702 5.849062643657283
Cu 5.2497700882458345 8.094406171590286 7.030318590735826
Cu 8.726213996579174 8.363206743882206 7.030318590735826
Cu 7.001886754298326 9.526399764681702 8.21157453781437
