16
Energy = -41.7983283 eV
Cu 7.6572173785544635 8.08928478921153 5.163351573187146
Cu 6.1941322269383985 3.5268967471270423 4.896091356960507
Cu 4.668289484482626 3.95916799838497 6.6619198868177625
Cu 5.869744870055362 7.296527436018966 3.6834817446792067
Cu 7.229673818899235 5.693951256523848 5.123925916200646
Cu 6.414452021798488 5.023230045676047 2.9377696901719776
Cu 3.452329994437662 4.702156716308094 8.578492644490785
Cu 5.6147937491465445 3.585844375750271 8.868550065620797
Cu 7.110894807879688 4.273187934037129 7.111978361033666
Cu 7.520354996754669 6.760782926553743 7.2490691197263715
Cu 8.256567425826228 6.660864734768035 3.231216949442566
Cu 5.478941866694875 7.418528038860364 6.116397646386105
Cu 4.648134643264869 5.375787273698789 4.627287302873599
Cu 3.3927955128629326 6.155650164257195 6.637754604332413
Cu 5.47154652838252 5.883682810800726 8.079683049847327
Cu 3.559112819293324 7.5365351827288745 4.655224538780371
