15
Energy = -38.31915878 eV
Cu 3.978010566011047 4.161796954836852 1.9808943601869593
Cu 4.918181450789975 6.479866445658527 2.131764875951826
Cu 2.9162273748410517 5.814357578477311 3.334753818160982
Cu 5.8134577385424615 4.574511225629175 3.456587195270291
Cu 4.457405120127833 2.5385463795248246 3.7148443042572827
Cu 2.298985389574063 3.530688106681936 3.7889431763279457
Cu 4.872737636697798 6.498413854901446 4.571366664051707
Cu 6.978324008502121 5.355426581496003 5.460670074834248
Cu 3.211427150339622 2.351412454830887 5.802236178967305
Cu 5.347322780013141 3.5532419817699408 5.718498116767734
Cu 3.295195432389394 4.810982339604398 5.559201766120766
Cu 6.413368755260823 7.708040709192557 5.930033208227677
Cu 6.712194014079964 4.07931542468165 7.6106674592439205
Cu 7.341537209004427 6.36853180084234 7.656884980381137
Cu 5.0786981928174315 5.8079409808632985 6.915726640240924
