10
Energy = -24.02278579 eV
Cu 3.8271008216901516 3.0317548623534183 3.2159300765197982
Cu 5.0946685198383035 4.682995716874109 1.9436118542168228
Cu 2.578875660285072 4.781073586752772 2.3465985496368744
Cu 6.137590974444545 2.824154914318476 3.32535619646472
Cu 3.9879943035676253 5.954926810594585 3.7908510719641977
Cu 6.016727311199086 4.965076845359555 4.296695189179201
Cu 2.6334405883492322 4.226506053448553 4.916214799796874
Cu 4.758862234826106 3.0989012363870314 5.429891913222126
Cu 4.421639765346614 5.391539616577036 6.123617886166614
Cu 3.1913218992062404 3.691292436087441 7.259454541585737
