15
Energy = -39.10005584 eV
Cu 5.258111975343361 3.1168407789931045 6.739611633752194
Cu 4.138786719708677 5.331980569441925 6.587578281492702
Cu 7.7112599606997305 3.356113524149302 6.527676052515164
Cu 6.217581358136451 4.421795763784911 4.958287011790926
Cu 6.460587051934577 5.219218652096771 7.392167788566924
Cu 5.194299036697613 7.243177408594826 7.693727929589158
Cu 8.216265985870354 5.661803025666587 5.770965190318374
Cu 2.3718589753826693 5.702633710376274 4.976802998603093
Cu 8.391986270157885 7.9599294364773625 5.039838884286855
Cu 7.617428400373525 7.406812265646745 7.346769822147505
Cu 3.8699320324298316 3.7756657976055457 4.7795066423024535
Cu 3.6183664876663455 7.6108391597392995 5.7970565722536715
Cu 7.053457116163016 6.3779221726063495 3.723135925735856
Cu 6.058398443384877 7.58593552413632 5.506101007925374
Cu 4.624519927259733 6.049634067211627 4.161458493137674
