16
Energy = -42.06876841 eV
Cu 7.078257172036848 10.302237081860298 7.078257172036848
Cu 7.078257172036848 5.862474415398749 8.429558188102783
Cu 7.078257172036848 8.294039928674943 8.429558188102783
Cu 5.016627598505266 7.078257172036848 8.858573189210315
Cu 5.103471821653187 8.817180296635298 7.078257172036848
Cu 9.139886745568429 7.078257172036848 8.858573189210315
Cu 7.078257172036848 8.294039928674943 5.726956155970909
Cu 7.078257172036848 5.862474415398749 5.726956155970909
Cu 5.016627598505266 7.078257172036848 5.297941154863381
Cu 9.139886745568429 7.078257172036848 5.297941154863381
Cu 9.053042522420503 8.817180296635298 7.078257172036848
Cu 9.053042522420503 5.339334047438401 7.078257172036848
Cu 5.103471821653187 5.339334047438401 7.078257172036848
Cu 3.4321983440736936 7.078257172036848 7.078257172036848
Cu 7.078257172036848 3.8542772622133934 7.078257172036848
Cu 10.724316000000002 7.078257172036848 7.078257172036848
