10
Energy = -23.74838034 eV
Cu 7.32096183488563 4.119161221922629 5.561960437755732
Cu 5.380336812806196 4.2073527709620375 6.904142945607103
Cu 5.237252359023587 3.76958457464006 4.377973707425477
Cu 7.205273765457968 4.884868792195682 3.2473084744561698
Cu 3.405921572960817 4.60265810226177 8.131572026963157
Cu 3.504883478341858 5.099562395066357 5.824366801146162
Cu 5.86420201711911 5.999954674426365 5.12410624677696
Cu 5.081424290851463 5.695023828068939 2.8062575405480232
Cu 3.1383633175151573 4.501963656336842 3.532973481264707
Cu 3.822362577203493 6.98606623942654 4.38799889067824
