16
Energy = -41.79240903 eV
Cu 9.064066035786292 7.713235925243284 10.286669307202363
Cu 8.03108059401269 5.85110773186373 6.768704862021322
Cu 5.738005780916313 6.040242888648089 5.865069648403392
Cu 8.470218910222119 5.7407890457539414 9.178175992067453
Cu 4.230336499035498 7.899304061791815 5.895359343589334
Cu 3.8607640641206507 5.987643633765066 7.430595790157364
Cu 6.775899113273025 8.385267971130846 6.017128939917234
Cu 7.913079874455021 3.7835067578377157 8.04441711063104
Cu 5.505500108505001 7.679010360092797 7.941278382678721
Cu 5.722739327657276 7.810086737718696 3.9742492431369136
Cu 9.155241412163297 7.950011353454355 5.936414587997658
Cu 7.999302344325883 7.945709994962816 8.115789886702409
Cu 6.683531331820494 7.171223887566104 9.99678197914532
Cu 7.998209481774971 8.884657886731507 3.977348947323943
Cu 7.7011604207188835 6.55892841848125 4.505376234591617
Cu 6.118128562128407 5.395391172490706 8.316591699108772
