15
Energy = -38.64534281 eV
Cu 6.750042531761428 4.805971838764965 2.63776840629463
Cu 4.414598336542372 5.59378079045241 2.615086192269182
Cu 5.820833367567767 6.0855834416684305 4.5200205910361015
Cu 3.904036750912161 7.530893044237827 4.225697731441209
Cu 5.206390660416592 3.6843502176761564 4.094645266888814
Cu 3.3188211873552462 5.190463050817603 4.685058961056938
Cu 7.528787454742438 4.349604057693916 4.884903838877881
Cu 2.430836019125652 4.837666420551409 6.86122424916998
Cu 6.329979797872187 2.517867631825899 5.893339080029687
Cu 7.60963971394894 6.39551710221317 6.145334873775823
Cu 5.694568502840024 8.009394055879568 5.995996325877032
Cu 4.841844098858465 4.37275115791773 6.498192800450442
Cu 3.807313218705533 6.705521989184429 6.530686545196593
Cu 7.180995093297781 4.30858853109251 7.3040935799511715
Cu 5.8321113190847775 6.282844723055775 7.778749610715577
