10
Energy = -24.17676191 eV
Cu 6.613732183901708 4.956016285642252 4.474346581297958
Cu 5.708163997667199 7.219212300834217 4.482137395739511
Cu 4.290063778801452 5.409461978257446 5.022852815060409
Cu 7.976782938586936 6.7434120280986685 5.3709533990682194
Cu 7.195659065392696 8.944932207925325 5.387158114691287
Cu 5.505898259535472 3.4958733309278545 6.048981619461231
Cu 3.2222351352159695 3.7261824863597135 6.4708388984571945
Cu 6.063896800582424 7.318377240729075 6.847660410907631
Cu 7.084049390235241 5.110439002681542 6.901705691549714
Cu 4.715318419501214 5.451893107964492 7.369165043187843
