19
Energy = -50.50561622 eV
Cu 7.774567228461202 8.70527071918304 5.764208078491062
Cu 5.423528672139412 5.155450930166597 5.108762695760563
Cu 5.71406027793958 4.319938896139021 7.769924664097191
Cu 7.609895832387233 5.250477619769727 3.9142363693317264
Cu 4.0701989244465775 5.786943231594054 8.876155184912616
Cu 8.01727755710298 4.97827029885689 7.937277687653992
Cu 4.942840952738539 2.964688694620249 5.977659099049176
Cu 7.254692386103813 3.749940020951617 5.933832567053728
Cu 3.3756648261460875 6.56259946870697 4.8780187334390845
Cu 7.2675647031249415 7.682352632362226 3.666799740896428
Cu 5.1919663017693 6.644459412695546 3.253509835979713
Cu 3.5682286537660195 4.943230734098119 6.679309756262977
Cu 9.400899409426536 4.85883044232758 5.7621644395373
Cu 5.984783400829419 6.71525821100464 7.717349030348206
Cu 5.543047464461846 7.7103909164140365 5.4427258923884105
Cu 3.7649198355559395 7.450770674848895 7.127939520368485
Cu 1.6747403042409015 6.4406595429971105 6.6592450839519195
Cu 7.576604793442335 6.362091013628762 6.026212064239527
Cu 9.402857967404605 7.021257778203042 4.6701534013424055
