17
Energy = -45.09858774 eV
Cu 8.520612247961859 6.726981218473884 6.9255299076965615
Cu 9.242097674281526 5.082108094891058 5.30898512348089
Cu 7.817895606899666 3.276099706544637 4.719490407075661
Cu 6.922962982597669 4.983983434404422 6.234451349047441
Cu 6.4745813464782795 7.781426435465586 6.283297561473657
Cu 7.557365944715753 6.530821342022259 4.472746349374011
Cu 6.474276443112151 6.31212207663092 8.279747370588282
Cu 5.691790940127177 2.873183732627125 5.777717107288365
Cu 5.153536331707335 6.87076520889357 4.452351478935102
Cu 5.245705551116684 8.417337857091749 8.244899007789876
Cu 5.117455746796262 4.3228128333032565 7.703559440599747
Cu 4.197696377750363 8.5881897371909 5.9599117921503275
Cu 6.0168193943410895 4.636313312693197 3.9029954503888726
Cu 4.134983768457107 4.670163814233667 5.514925576589408
Cu 4.306603326395014 6.5047654822475245 7.142823210108581
Cu 2.8613777949869847 6.7131635578655855 5.09431843482584
Cu 3.7319402427165635 5.29776021125448 3.2543674891006136
