17
Energy = -45.43247726 eV
Cu 5.805466438074532 9.122660785488295 8.69206260320753
Cu 7.015470500696679 4.167812001393358 6.7179431910462695
Cu 4.981573176103259 7.015470500696679 4.4824412785852825
Cu 4.634734204452681 7.015470500696679 8.550514826263266
Cu 7.015470500696679 8.25948624980129 4.9084334822168545
Cu 8.225474563318826 4.908280215905062 8.69206260320753
Cu 7.015470500696679 7.015470500696679 9.064218528189212
Cu 7.015470500696679 9.863129 6.7179431910462695
Cu 9.396206796940675 7.015470500696679 8.550514826263266
Cu 8.225474563318826 9.122660785488295 8.69206260320753
Cu 9.049367825290101 7.015470500696679 4.4824412785852825
Cu 5.805466438074532 4.908280215905062 8.69206260320753
Cu 7.015470500696679 5.7714547515920644 4.9084334822168545
Cu 8.852578562973136 8.271809725719937 6.5279660995380295
Cu 8.852578562973136 5.75913127567342 6.5279660995380295
Cu 5.17836243842023 8.271809725719937 6.5279660995380295
Cu 5.17836243842023 5.75913127567342 6.5279660995380295
