14
Energy = -35.25843403 eV
Cu 7.211086937029047 7.594143479711896 9.624847999999998
Cu 7.333424478455975 4.424305469180233 6.972531776282262
Cu 6.560512645460161 5.384578759728697 9.027594116022604
Cu 7.211086937029047 7.594143479711896 4.320215552564523
Cu 5.130565224976139 5.483409548300342 6.972531776282262
Cu 6.560512645460161 5.384578759728697 4.917469436541917
Cu 6.97459897486989 7.051128678790823 6.972531776282262
Cu 5.133404921767173 7.580406869121486 5.658745817448651
Cu 5.133404921767173 7.580406869121486 8.286317735115867
Cu 8.77865650462078 6.161408249208896 5.722658768287072
Cu 8.77865650462078 6.161408249208896 8.222404784277447
Cu 6.956216915984818 9.431087675160011 8.155247857088492
Cu 6.956216915984818 9.431087675160011 5.789815695476035
Cu 8.897100212075275 8.353350850116753 6.972531776282262
