14
Energy = -35.4887722 eV
Cu 7.0960852585877845 8.461479813190355 4.737561513730234
Cu 8.436398846265982 5.1333940970056515 6.792093021461987
Cu 7.0960852585877845 5.730690703985218 4.737561513730234
Cu 7.0960852585877845 7.0960852585877845 10.428312996554668
Cu 5.755771670909582 5.1333940970056515 6.792093021461987
Cu 7.0960852585877845 5.288112180012604 8.842786665299654
Cu 7.0960852585877845 7.0960852585877845 6.787371641309521
Cu 5.478004347663278 7.0960852585877845 8.560473498184722
Cu 5.167199467540845 7.0960852585877845 5.339746643193245
Cu 8.714166169512293 7.0960852585877845 8.560473498184722
Cu 9.024971049634729 7.0960852585877845 5.339746643193245
Cu 5.755771670909582 9.058776420169911 6.792093021461987
Cu 7.0960852585877845 8.904058337162963 8.842786665299654
Cu 8.436398846265982 9.058776420169911 6.792093021461987
