15
Energy = -38.41353946 eV
Cu 7.936106397809688 5.327890977512721 4.555088346571572
Cu 5.113861000817857 5.3395594350670645 6.525982056640707
Cu 7.812169246275968 5.321270734335729 8.638885349794313
Cu 5.827752993667055 6.574048775971156 4.523738356545913
Cu 7.449108152384374 6.563746122861936 6.585108960678287
Cu 5.703772813862702 6.568931664418592 8.579563569437015
Cu 7.839746176034974 7.791769327657311 8.637082891115867
Cu 5.126672715543107 7.807122395568253 6.537052451408048
Cu 7.956018091394436 7.80114956596676 4.560644814767669
Cu 5.880587917546449 9.05252433963488 4.614648098317629
Cu 7.267751920437108 9.062943706226434 6.588063246066236
Cu 5.775071528232939 9.05073358548691 8.493229671545999
Cu 5.726118052058812 4.086997608092292 8.483224009630383
Cu 7.237420260347843 4.067004346573875 6.581567697359057
Cu 5.852060036192483 4.088524717231742 4.600337782727228
