12
Energy = -29.79541861 eV
Cu 6.943058960866379 8.240003618976413 6.921494115555059
Cu 9.28947379441979 7.657011092797156 6.921494115555059
Cu 7.894072157027247 7.2548860376668145 8.933407271423999
Cu 5.85533861258634 6.192748501230414 8.174471022616776
Cu 5.85533861258634 6.192748501230414 5.668517208493339
Cu 7.919787460705582 5.661592955642689 6.921494115555059
Cu 7.606350207453044 4.939660496071072 4.577369231110119
Cu 7.894072157027247 7.2548860376668145 4.909580959686124
Cu 7.606350207453044 4.939660496071072 9.265618999999996
Cu 5.790373817318477 8.44577899301223 4.727464201772845
Cu 4.613339709749603 7.833173663283518 6.921494115555059
Cu 5.790373817318477 8.44577899301223 9.115524029337276
