13
Energy = -32.44910473 eV
Cu 5.31724208082002 3.6160687469571506 4.425580914551802
Cu 4.735740495587143 5.782141902411413 3.467028343774738
Cu 7.537360090971286 3.1002323672524077 5.166609734995928
Cu 4.0370933006338765 5.3072008061071765 5.653009773872238
Cu 3.142740325058145 7.255608559428088 4.622939924185253
Cu 4.185697540219274 4.594699821736371 7.914178064072787
Cu 6.230126225925067 4.601443193423473 6.625576324904725
Cu 8.616783406413052 4.90719835322145 6.320249685702459
Cu 6.971356802312085 5.453928342139839 4.515423188292782
Cu 5.490998069383237 7.426452778886403 5.07964078971098
Cu 7.367371428330232 6.919613506072776 6.55622522938461
Cu 5.043764426258597 6.750531910525395 7.362392428386034
Cu 5.984962348856916 8.868993901473864 6.962575385897074
