10
Energy = -24.08566042 eV
Cu 6.150685932481562 6.54699573182591 2.9146581005010233
Cu 4.3568194875367166 6.260488353200935 4.399029691655818
Cu 6.608927450364164 6.714675740593752 5.281586252838492
Cu 2.8113614504696853 5.942136681257663 6.1321833483000825
Cu 6.190776591439714 4.5358666054662296 4.346444755011743
Cu 6.785735381479466 6.526474565240005 7.652071758559884
Cu 5.044911679745838 5.023337095221323 6.412583375469995
Cu 7.393789465581452 4.539291540768928 6.466813363455076
Cu 4.739174829178106 7.397028136830031 6.63447440413553
Cu 8.57676016670996 5.172647984581747 8.419097385059013
