15
Energy = -38.93971192 eV
Cu 6.40563174954936 5.466037147118689 7.5281092867026596
Cu 8.900736708818641 5.4549167113865815 7.346909360024351
Cu 3.910545815673308 5.454986156669125 7.346966265034882
Cu 7.616889048236741 7.59526425240711 7.298980215431399
Cu 5.194440460492165 7.595308148595589 7.29894074511954
Cu 6.4056653938862524 9.707789961281078 7.2308553915426375
Cu 7.621729311998035 3.3758078408365244 7.407264124655958
Cu 5.189458567760271 3.375818530840663 7.40726356697669
Cu 6.405671775747357 6.862911896158764 5.11386873868993
Cu 8.89739197211429 6.879372790971277 5.379694333638543
Cu 3.9139388355245806 6.879394476360234 5.3797143984572555
Cu 7.638224797258403 8.963544105865878 5.2517852680063255
Cu 5.17313361229526 8.963549792987907 5.251711556172363
Cu 7.601008512069006 4.755019803907715 5.421333002637165
Cu 5.210290007162251 4.755035009359079 5.421360371656111
