16
Energy = -41.329485 eV
Cu 6.993364855536228 9.830001000000001 7.479909347980166
Cu 4.983203100976532 9.003526610095925 6.505605097853882
Cu 4.156728711072457 6.993364855536228 7.479909347980166
Cu 4.983203100976532 4.983203100976532 6.505605097853882
Cu 6.993364855536228 4.156728711072457 7.479909347980166
Cu 9.003526610095925 4.983203100976532 6.505605097853882
Cu 8.749698928088133 6.993364855536228 5.221994850566469
Cu 6.993364855536228 5.237030782984318 5.221994850566469
Cu 5.237030782984318 6.993364855536228 5.221994850566469
Cu 9.830001000000001 6.993364855536228 7.479909347980166
Cu 6.993364855536228 8.749698928088133 5.221994850566469
Cu 9.003526610095925 9.003526610095925 6.505605097853882
Cu 8.234734606649088 8.234734606649088 8.7659501257444
Cu 8.234734606649088 5.751995104423369 8.7659501257444
Cu 5.751995104423369 5.751995104423369 8.7659501257444
Cu 5.751995104423369 8.234734606649088 8.7659501257444
