11
Energy = -26.91321592 eV
Cu 6.718735300248791 4.417419107691127 7.984738869237716
Cu 7.161309924815859 6.7594788096550875 7.519095339044319
Cu 8.878319855578733 5.071211290101104 6.923457135845218
Cu 5.093652879635191 8.101559192368313 7.728780818237938
Cu 4.879271637555966 5.7856089848452825 7.154265160692
Cu 8.294084792508649 6.833427880952439 5.375513370987312
Cu 6.736878058523362 5.01608429754802 5.686037748331077
Cu 3.464831095788287 7.426150312245867 6.0154150075422
Cu 4.547399455555583 5.657573479286335 4.7375225940038845
Cu 5.905411161738978 7.456524177669282 5.533733826675705
Cu 6.763841717920578 6.137509330030222 3.5786480545183155
