17
Energy = -44.35580917 eV
Cu 6.487079774640203 2.8662830391417264 5.735781515809434
Cu 7.457949267563438 6.574854827487691 4.307338112618138
Cu 5.670303119056634 4.853701542028028 4.578556282824345
Cu 7.812845473170454 4.845708998680786 6.1717698120243165
Cu 5.040744014178796 2.6525986112852094 3.797467558835027
Cu 5.007807526011535 7.228785123882948 4.303280246214384
Cu 8.460357285095858 7.2918624459741865 6.507633127990281
Cu 6.696790703441876 8.761196412254117 5.362392117911422
Cu 4.064159446094657 3.481435852207221 5.802149108129525
Cu 8.291286568436574 9.67358895016622 6.935549025969768
Cu 6.128535881523871 6.564153472343713 6.306991566553865
Cu 4.453891779575142 8.317773921155176 6.48261209780553
Cu 7.318558534677857 6.032079956068644 8.356882931435498
Cu 3.8264500381818194 5.859475883715826 6.143747730474764
Cu 5.619499920415126 4.422881358435791 7.416877301727503
Cu 6.560465466749002 8.363308101890965 7.905436309912569
Cu 4.845527829945955 6.633892520989547 8.33255617208943
