18
Energy = -48.09528115 eV
Cu 5.739332636073828 3.4755603744421437 6.173242131920251
Cu 3.3306358629961883 3.690793348711736 5.645005277003027
Cu 8.024248126577715 4.034114436973611 6.696332787515429
Cu 5.018840779795637 3.8877185862425145 3.882714228485654
Cu 4.150186857632651 4.241897045018766 7.848081232016972
Cu 8.54354869806565 5.475390569094041 8.564277502012251
Cu 7.031365690919895 5.0190704988686035 4.689015605115269
Cu 6.267686349821421 5.438825508903492 7.706253991654043
Cu 4.681946165331712 5.680364360530104 5.558323404333533
Cu 7.316096504416399 7.56033551076055 8.370612707582215
Cu 4.146878452364926 6.62698624791002 7.72186449437284
Cu 5.51875060768736 6.11459115432511 3.1025414198855703
Cu 5.777067528162557 7.8052221206565475 6.526763124993521
Cu 4.499439235173296 7.838501949837187 4.4962837030174425
Cu 8.195735099297945 6.423188595189777 6.333874678266516
Cu 7.024567553705774 7.452494236828177 4.405455894697987
Cu 7.928782976516914 8.812552896964204 6.2736490142227
Cu 6.047461804157461 9.623937257329398 4.954489599824997
