16
Energy = -41.85434795 eV
Cu 6.4719516453759995 6.474403491806889 6.719197688149068
Cu 5.201827935868086 7.280751670643037 8.569255746056552
Cu 6.396898637066517 4.981860870078678 8.575297767329904
Cu 7.809797629052897 7.165385649481344 8.56672722596357
Cu 6.514012155637859 8.870434994881998 7.170310852379773
Cu 4.41153900156007 7.727254812158086 6.245000018981607
Cu 4.372765655222219 5.318533591498373 7.173785814489119
Cu 6.415750506330929 4.067357241902587 6.252460716359543
Cu 8.52168666909218 5.229449057573487 7.175844098896698
Cu 8.58485980451345 7.619343122179494 6.245685521620335
Cu 6.540678490807473 7.943374952762779 4.8029684764330955
Cu 5.166235194815982 5.798102413648413 4.8041055133071024
Cu 7.7096690932676 5.674287023677408 4.80467174472659
Cu 7.9279998087802195 9.797949362195375 5.475901673194104
Cu 8.638449811923246 3.5495826351443056 5.482179028209325
Cu 2.8575917442772707 6.0436428931280535 5.4783218966638065
