15
Energy = -38.97548814 eV
Cu 8.846456618241788 4.9638100341977704 6.443293100430382
Cu 7.223324807116925 3.0682220034812606 6.334953174265091
Cu 7.1597133077540756 4.974866285736759 4.720296437372466
Cu 6.5710533086014555 5.220274219524558 7.17601186067578
Cu 7.632397304089493 7.086185457090563 5.970246161485086
Cu 5.158506585767077 3.696729144572367 5.262896734110066
Cu 6.871150374357631 7.157290988079858 3.6056360981026936
Cu 5.086895848969109 3.398994883756675 7.65115500370237
Cu 4.104926720234463 5.441638135526054 6.587442157549936
Cu 4.64591078773571 8.100982343908239 3.311430672901259
Cu 4.923202342300914 5.926628370047859 4.313257974442239
Cu 4.892692578735904 5.566160939733481 8.868183042459883
Cu 5.934186470433473 8.631109636202956 5.300559474837724
Cu 5.451905119235282 7.412558340934946 7.293489982095916
Cu 3.7227214788915863 7.6348851142291005 5.519435791039791
