14
Energy = -35.65035701 eV
Cu 7.108896149571736 8.876751721120078 7.108896149571736
Cu 5.341040578023397 7.108896149571736 7.108896149571736
Cu 5.887841012212228 8.329951286931243 9.164191962667653
Cu 5.887841012212228 5.887841012212228 9.164191962667653
Cu 5.887841012212228 8.329951286931243 5.053600336475821
Cu 7.108896149571736 5.341040578023397 7.108896149571736
Cu 8.876751721120078 7.108896149571736 7.108896149571736
Cu 8.329951286931243 5.887841012212228 9.164191962667653
Cu 8.329951286931243 5.887841012212228 5.053600336475821
Cu 5.887841012212228 5.887841012212228 5.053600336475821
Cu 8.329951286931243 8.329951286931243 5.053600336475821
Cu 8.329951286931243 8.329951286931243 9.164191962667653
Cu 7.108896149571736 7.108896149571736 10.831734
Cu 7.108896149571736 7.108896149571736 3.386058299143474
