13
Energy = -30.56296226 eV
Cu 7.155536379893113 6.612060135109514 4.834679950742664
Cu 7.046333805508395 5.45681511902978 6.9297524928465215
Cu 6.87799960137798 6.7301701487663035 8.959901682905347
Cu 7.15754713045196 9.012913662835322 4.773887086813656
Cu 7.034362711518725 7.882132418232954 6.87319246769057
Cu 6.869864930804783 9.171514816052088 8.874992756126028
Cu 6.873745400543455 11.524997249933543 8.836169875812228
Cu 7.039515820681327 10.364162678783169 6.789281027467448
Cu 7.203801260392566 11.361435508427446 4.68682336948183
Cu 7.11993953892001 4.17223752371102 4.9213528370544575
Cu 7.106444138203763 3.047194268806009 7.007883213516622
Cu 7.103173138714736 1.9529212452893632 9.067638537176652
Cu 7.024238003372821 4.323946694836647 9.056946172178622
