18
Energy = -48.18629814 eV
Cu 6.227810925005966 7.437520242176026 4.2869165013775214
Cu 5.699937443444194 5.994542571075718 6.136546253944837
Cu 5.480513996277696 3.4747068490867132 4.941008163549889
Cu 5.7811740610378965 7.515403397677832 8.294495298512244
Cu 3.433689327428184 4.792911097188487 5.451575439935486
Cu 9.430814904811822 7.8197567761913 7.032087675617445
Cu 7.850341666551574 6.223075165723155 7.836685236004088
Cu 4.790127604719559 8.465073748002416 6.391683440656882
Cu 4.6955527901414955 3.808461894745511 7.164923768918705
Cu 3.6442904042244453 7.072644800304026 4.930863918537825
Cu 4.8226480330651835 5.528255578016212 3.5344566726859474
Cu 5.917159826337616 3.6121470083951657 2.587232093848751
Cu 5.854442427115608 5.191638464400805 8.626273219545013
Cu 7.269105719253587 4.20500052631007 6.512548696520781
Cu 8.307159656566892 6.399231687978595 5.481007008778647
Cu 7.126017542294933 5.014138994657736 4.064850558373348
Cu 7.1720542392142095 8.307766353639645 6.413592582552453
Cu 3.744632563445248 6.276329202849627 7.454990327896442
