14
Energy = -35.1971009 eV
Cu 6.821597287295632 6.821597287295632 8.638481999999998
Cu 6.821597287295632 8.638481999999998 6.821597287295632
Cu 5.004712574591262 6.821597287295632 6.821597287295632
Cu 6.821597287295632 6.821597287295632 5.004712574591262
Cu 8.638481999999998 6.821597287295632 6.821597287295632
Cu 6.821597287295632 5.004712574591262 6.821597287295632
Cu 5.12975330734455 5.12975330734455 8.513441267246714
Cu 8.513441267246714 8.513441267246714 5.12975330734455
Cu 8.513441267246714 5.12975330734455 5.12975330734455
Cu 8.513441267246714 8.513441267246714 8.513441267246714
Cu 5.12975330734455 8.513441267246714 8.513441267246714
Cu 5.12975330734455 8.513441267246714 5.12975330734455
Cu 5.12975330734455 5.12975330734455 5.12975330734455
Cu 8.513441267246714 5.12975330734455 8.513441267246714
