18
Energy = -48.44415573 eV
Cu 2.757800599277957 5.379580209849348 6.39045273165128
Cu 3.6475240309978387 7.649243447965952 7.208168992671
Cu 5.763104843882124 7.200850946139306 8.618833733334158
Cu 4.246896627691141 3.535606927280132 7.325038744655981
Cu 5.889899982494149 7.937752262972747 6.229451198860715
Cu 6.090357954258836 4.659908491571779 8.731177644166511
Cu 5.031167518073029 5.743949164784648 6.924376047126665
Cu 4.50160357554042 4.328898160762501 4.945581049860125
Cu 4.097761894421203 6.772149952211854 4.879928232510862
Cu 6.479528082269944 3.8381320736893514 6.3848592841187735
Cu 7.480194700791585 6.042134811442067 7.20685787449231
Cu 6.818799239619639 6.052113253066342 4.8293229583581345
Cu 5.239671089962287 5.61782202295328 3.010830774358949
Cu 5.766203499512367 7.94399516807697 3.6505380116881847
Cu 6.638003408268337 3.7764609331389183 3.9179067245328194
Cu 7.78109891928279 8.385644363329511 4.860329496522916
Cu 8.542104032251725 4.37200985456577 5.375432095371125
Cu 9.170583881629824 6.643771748853521 5.615315040861458
