10
Energy = -23.53940413 eV
Cu 5.934077824395082 8.262460804178854 3.1902883118029743
Cu 4.0750431568793335 8.193408466225291 4.68325822871881
Cu 5.844702918562935 6.627847963836857 4.910148132606729
Cu 7.566819563898902 4.973639673449074 5.137980917666609
Cu 7.668323639948094 6.632142518194461 3.3942552641739874
Cu 5.885179980407962 5.07387620678415 6.841626206003882
Cu 7.667628114351413 3.5045195974088053 7.050572063717918
Cu 4.155698654163077 6.737426604219226 6.608130228780128
Cu 4.359414479713512 5.43445154100477 8.625143834955155
Cu 6.142270817817302 3.8593857748362717 8.857755961711284
