23
Energy = -62.92339257 eV
Cu 2.8272652501399875 6.456173745687811 5.83811190631285
Cu 6.3656854667633755 7.325486053531258 3.476336750936823
Cu 4.4686837884106145 5.519758675322908 4.202565291060982
Cu 3.170372689614365 3.922743941799331 5.745733871681974
Cu 4.976462543408808 7.634570805057161 5.4265356337978545
Cu 7.5718145655046465 3.5085619250886775 4.026871704180521
Cu 2.8949696940678598 5.23004758959911 7.993818282437346
Cu 6.368627247033699 5.083547565033909 2.766211042634851
Cu 6.105599707825261 9.566579720934422 4.517804327020135
Cu 4.844730465095474 5.423756102279751 6.638520302801078
Cu 5.983072517766592 9.112731868181468 7.038776456611622
Cu 8.38467579822436 8.51732344841695 7.6634814160947355
Cu 4.219250330658904 7.469322481072348 7.785174688617767
Cu 8.684113040596644 5.938212323436757 4.00950104611828
Cu 6.804274349303766 5.532328719713782 5.2404865186575735
Cu 5.570623293872147 3.404481644100429 5.388258800702871
Cu 4.627805882008639 3.2592553915097366 7.694764601131585
Cu 5.156738469421651 5.372500104565196 9.016842133785495
Cu 7.602571432932779 7.953006548842939 5.460147607866103
Cu 6.61989082295303 6.876094296445919 7.675042462342869
Cu 6.910294449333626 4.396076629267975 7.500689126168355
Cu 8.773169190352895 4.023392815297443 5.981412199238594
Cu 8.75018374124401 6.244693900639913 6.727519244126837
