23
Energy = -61.36369722 eV
Cu 6.89260713043877 9.157099826006949 6.32894049524344
Cu 6.140201787580056 4.844037913606723 6.40864432249704
Cu 8.589436606560763 7.915616674252274 4.892840225728506
Cu 6.5479253221689495 6.387332671095167 4.610043491000026
Cu 5.370808754727653 8.540215186471501 4.507706951713353
Cu 9.915603963572455 6.3274075893577 6.810468944741762
Cu 7.014749336458778 7.932702486364031 2.844331647965405
Cu 7.405847310530346 9.92859098218156 4.034298003331315
Cu 4.841941064714777 4.88056793506171 10.293821071484496
Cu 4.517993007476227 3.0628347070543844 6.798055559020034
Cu 3.6964454862709695 3.148320512940102 9.079340959296344
Cu 6.245153197870457 6.149023507909095 8.727203450750078
Cu 8.907128154521187 10.471393836975151 5.781033457095621
Cu 5.178021749055005 7.2092684846673265 6.707078477470973
Cu 6.027055547354205 3.6143613130515604 8.559336032118603
Cu 7.302422371162753 4.601155487360423 10.275533786264404
Cu 7.591232009899207 6.8603176369502235 6.875888398742048
Cu 4.15823995320232 5.2569856300061835 7.9017225615057685
Cu 4.451720927075199 9.497376188370389 6.442546705941405
Cu 4.860921294951371 6.7716144438547925 2.971880641810253
Cu 8.414874778872601 5.102482289753401 5.416402171268863
Cu 9.179928344630781 8.616475118860714 7.213744402087134
Cu 8.221093191396614 4.783156418915553 7.919111396946095
