29
Energy = -81.35169524 eV
Cu 8.007981797130052 5.264076883026666 5.29239895917651
Cu 4.265823236596535 2.3611434366818194 4.017334436772817
Cu 6.413151226203989 7.969127325881789 8.934965865493087
Cu 6.007006353243367 1.8458317713449663 5.77902145379318
Cu 7.223290075480511 6.471790950929849 7.277147682182832
Cu 6.518187886894382 8.34903031984988 2.8610478657964467
Cu 6.387747620213037 5.307362608973217 9.197121729247227
Cu 4.292436689611723 4.829739763554524 3.6786581537970475
Cu 3.2865145055759344 7.642584623513434 6.308633052627894
Cu 6.446479806452221 6.047964581011706 3.511011231034438
Cu 6.531355837261237 4.007114683454853 7.079616328773409
Cu 5.643009984486087 8.230472871066112 6.52859776181495
Cu 2.5439335066713324 6.232940510976578 4.492192037391729
Cu 9.609382494281308 9.035097210467018 5.435155978658332
Cu 8.883584077821666 4.69420193018387 7.4797281650937375
Cu 2.7810568594242557 5.284717139305777 6.786685679214338
Cu 5.32330944744041 5.845263628790823 5.747826022113032
Cu 4.377174688951936 4.2215745873370505 8.337502555860748
Cu 9.483641080713525 6.878650130592632 6.515761025056498
Cu 6.329796140039662 3.7648151727302555 4.467167604672105
Cu 4.6189685965975205 6.567655844210457 8.058623044055715
Cu 8.014333697024753 8.753529935221485 7.254050742174237
Cu 8.809901302125185 8.881722280686814 3.2093783401148817
Cu 4.660928856851503 7.566020307648341 4.205673404897193
Cu 7.591091540544974 7.729971842646492 4.97335667298316
Cu 8.28889862188611 2.894046538442112 5.839426242564933
Cu 1.0051931982661146 6.80172356671555 6.183970573390809
Cu 2.2963911957696266 3.833820239998401 4.709867041389371
Cu 4.2808471747217105 3.542849018960851 6.0413995630783095
