27
Energy = -76.11761263 eV
Cu 7.669200532754867 6.8775982627021035 7.175296642149001
Cu 9.001603770793208 4.982694038885197 6.226854422591344
Cu 4.038854464938783 8.112404933809538 5.926878344919241
Cu 6.6193927446138 6.628570137035103 3.0817255222643367
Cu 4.955779039633071 8.57934157320596 3.6626338563111593
Cu 9.283518020055219 6.00721999914689 8.686883474036698
Cu 5.888048670752687 6.148686008835429 9.047042961754467
Cu 9.379072879512183 8.649071090364203 8.072877707407
Cu 8.39690160742668 8.925815931568216 5.874798543182412
Cu 8.202458396701257 8.321388616427404 11.76257801836206
Cu 6.598641807811002 6.512360842913066 11.332028648476667
Cu 7.47698300337815 7.958294479563403 9.507756932710144
Cu 6.321724690394579 7.551625170347934 5.308954137871848
Cu 8.70080081519751 10.009513972025696 9.998597394312068
Cu 6.790982177415953 5.1534316501654045 5.14097742045313
Cu 7.350582969224812 9.95274677880278 7.880970358091471
Cu 10.078398349976718 7.934383004074845 10.214174000422744
Cu 4.564319166712288 6.187140408892832 4.375723131213279
Cu 5.11344022172976 5.982590019405856 6.786810044666964
Cu 8.59247273560208 6.817076221571343 4.5343301489126375
Cu 5.636207949640925 8.238559638138065 7.750879310938726
Cu 6.027998607127645 9.851848443622256 5.778918122976644
Cu 10.090605238484699 7.1133409077938055 6.427102817924317
Cu 7.386931535301224 8.928290124292458 3.6576534889198773
Cu 7.004976868773867 4.53756997409742 7.558829005695451
Cu 8.941173142299721 6.0669450123331705 11.108702848766992
Cu 7.521713652082402 4.586091529143662 9.933240212473311
