26
Energy = -73.00037966 eV
Cu 6.455015096026503 7.822080172704838 12.183477597946554
Cu 7.348620389102667 10.19848992984799 6.110668426993046
Cu 7.970878211161339 9.03677042061124 10.769088295267759
Cu 9.72450772628465 9.562308225563422 6.993316808598651
Cu 6.30188320584463 6.249298391673313 4.0559954284046125
Cu 5.7066427741959815 8.689004819314379 9.951748169211738
Cu 8.009360261989325 8.018131190858105 3.832891829515581
Cu 8.034089049170879 7.908800330482853 6.739416246823819
Cu 6.098079956518232 6.352773123690148 6.518375079939906
Cu 5.821663378166239 6.091515638429161 10.62898829286277
Cu 10.03722283268256 7.928267685286033 5.133276460893514
Cu 9.811225703889377 5.6590323848467605 9.357499128097041
Cu 8.312707238761915 6.686375367428384 11.025220630053813
Cu 7.132485864026246 7.037733584020831 8.838156213009038
Cu 5.977084031950055 8.39710955978195 5.082503444178026
Cu 9.198140593427082 10.070904392948897 4.558877201578644
Cu 7.668263020955308 9.692195136688275 8.495236718016699
Cu 7.722504843180006 4.617071621416716 9.936506145474935
Cu 6.911438471737111 10.15559432621552 3.6767822029347683
Cu 4.639497623839302 6.915848277256604 8.545377280627443
Cu 5.7283714441838915 8.746591802362577 7.460316197987346
Cu 10.119009183623222 6.644163747176167 7.16222433923192
Cu 5.881750474835013 4.859599128819355 8.428255579410077
Cu 8.384985343501777 6.0270454178538255 5.279392518246266
Cu 9.434064458679392 8.06875229487906 9.019733393008218
Cu 8.173345515303659 5.207038429835349 7.551490756529414
