21
Energy = -56.65595013 eV
Cu 8.303288837984317 9.243208456553031 4.275274625389241
Cu 8.988357379003979 5.349812888885913 6.8106111874899184
Cu 9.014295483568333 7.5774804316898665 5.900672870639994
Cu 8.402053945600576 5.342656096415797 9.128949833278062
Cu 5.328072431495411 6.643664596489578 7.042035525545669
Cu 3.1218662698059796 7.62738520374212 7.483075346252712
Cu 4.69359513139152 7.6696934112027995 9.27934481735269
Cu 4.372891087818528 4.631600330390609 7.831188435187969
Cu 6.678562931876059 8.198783477487563 5.654281918892781
Cu 3.467898882582195 5.8026565395207035 5.7949901862820905
Cu 5.234408796903344 4.0748314973915765 5.589221604889812
Cu 5.550570801902643 6.233564104938791 4.518457507473357
Cu 7.4577074541595385 4.794764477680204 5.012819853133204
Cu 4.226518461763361 8.14512175068267 5.360902891113213
Cu 7.429550837914119 7.301233514792871 7.9048919003097184
Cu 7.813391369576438 6.926887632337737 3.856807065846742
Cu 6.052642281784897 5.716465282038459 9.31685548816806
Cu 9.78588167902522 7.157646737936015 8.2257249697345
Cu 6.811453077265371 4.462037440956546 7.394432491349652
Cu 5.236606792797734 9.064222802725457 7.41372572720328
Cu 9.735126329218293 5.607910077469622 4.545575978289239
