29
Energy = -82.56561379 eV
Cu 4.103072250837984 8.34645404253721 8.027401791375395
Cu 2.6273925577365937 6.157203956220986 8.013188759780034
Cu 2.4620025107565757 7.870937531753998 6.21683743078509
Cu 5.0097855903645865 6.1577593595998055 8.975418747513983
Cu 6.477399688298705 7.700281216885446 7.532905577277949
Cu 4.859499035220172 8.636794472868946 5.608591096295317
Cu 4.1475938083432995 4.218612073603524 7.531194079988103
Cu 2.6641809091797697 5.3713324012249295 5.592300628419204
Cu 4.479625475338442 6.508603809914753 6.590758604885172
Cu 7.061221395924376 7.4331830015626235 5.147122557850488
Cu 7.558178726065314 6.036465897551588 9.067807370485134
Cu 3.0950472407118017 7.507737607557657 3.8755480426906432
Cu 6.402226591175067 5.2326836227603435 7.155729882119459
Cu 6.108018373669943 3.8537730362242333 9.056022640834438
Cu 8.350519772393389 3.935457159188827 7.993818054055097
Cu 3.277555188147918 4.889229983837233 3.29591373223512
Cu 5.019107769658933 6.229498266228548 4.316935438693285
Cu 5.58164490561668 8.353166772672404 3.3070615137092387
Cu 6.960345432279524 4.926947876994668 4.891357807518478
Cu 6.404017980855237 2.897615985867689 6.71752947127094
Cu 4.683514010983773 3.8829304772105124 5.141479374765482
Cu 4.59110225388505 6.509654088369355 2.0112252609526986
Cu 8.556662630927251 6.151389102163381 6.73284885676562
Cu 8.79932278507521 3.6537736652126003 5.593978758680268
Cu 9.029375591422134 6.048952776301082 4.351844529908023
Cu 5.67074315576669 4.289308150673582 2.815108132635198
Cu 7.06724406911392 6.38856546416971 2.825953810019401
Cu 6.717307062969527 2.5875390345083806 4.328430673892881
Cu 8.240032042574555 4.084500815942613 3.096192186290178
