20
Energy = -54.50531167 eV
Cu 5.713940635507865 6.313612908047233 9.14626401096588
Cu 5.8732182851398935 9.118500086428718 6.06905540577377
Cu 6.038505786523204 5.968492006854941 4.664691596025403
Cu 4.604110628866651 8.177936410791169 7.961382537739698
Cu 6.533156647036238 6.946799585580884 6.930613228726189
Cu 5.557650545054132 8.201841383748276 3.8514516374829313
Cu 3.345371386673572 6.246445667381865 8.459823938567155
Cu 9.25605675126421 8.877298953217615 8.796563082725326
Cu 6.88693784031508 8.726944299608649 8.515208407588595
Cu 7.9259190205496495 4.536180696453888 4.032512737910671
Cu 7.060875898055673 4.569099165555152 7.98263150027297
Cu 8.135281379429022 9.672547291051957 6.622885980499926
Cu 9.264705586699362 7.608974753774041 6.78874738111997
Cu 4.2389429689015135 7.249087863395311 5.759517857670901
Cu 4.8467826940633785 5.193785485410937 6.978383513335059
Cu 8.194505082349714 6.622276216082107 8.723877834428906
Cu 6.400915356125318 3.851379413468463 5.753224121800636
Cu 7.72667557908284 7.794832414825679 4.890457196538655
Cu 8.577075840853256 3.2588851797901817 6.478405212927684
Cu 8.325968640560207 5.571676771584386 6.100899370951107
