28
Energy = -77.8170327 eV
Cu 5.330166712358022 8.2827345939006 9.24534511399919
Cu 6.848654979346771 6.725450318807052 5.450432750699044
Cu 6.632604491486842 4.555145439142467 4.5869848506278945
Cu 8.058084177980888 4.688626215431167 6.828079785127127
Cu 5.430770003505845 6.396572667973422 3.2386211928269866
Cu 11.467981878443943 9.533020915753287 12.255592740629467
Cu 7.764991866689462 6.288643136301803 2.940142269551795
Cu 4.432878984206173 5.703765137805421 5.271973237965024
Cu 9.24869111880773 9.329010746173966 6.555905916973217
Cu 8.806546264019476 7.982085216797857 4.435879163003349
Cu 9.007368972735298 5.452333075586128 4.7686807251607926
Cu 8.554587272782722 6.429475857483695 10.590411839437673
Cu 5.746542030900964 4.812355796072461 7.055570656617548
Cu 4.861265485551805 5.796522385296196 9.046703234030671
Cu 6.204216963757105 6.5789588715 10.82945660699805
Cu 9.813298918464355 8.443233132632974 11.13914915071837
Cu 7.478961290453953 8.613715746814117 10.389228114110189
Cu 9.050452325834545 6.964446312706885 6.649085268430023
Cu 5.013810681189694 9.575870537958407 7.036158088576324
Cu 5.005099223869239 7.204431312304954 7.081851034211725
Cu 4.857505928791328 8.187229549597513 4.863227159806936
Cu 7.1482915625517505 4.6800521732452225 9.365366504216917
Cu 7.155785722475466 6.753439243438374 8.278758496063316
Cu 9.30199721476746 8.077401165616598 8.80985058297827
Cu 6.987889305933024 9.20671852050841 5.602206269626006
Cu 7.243998165744948 9.192481026656012 7.966202984032359
Cu 6.703598303678329 8.467748107287564 3.264573755387314
Cu 9.446917364969329 5.541877597844532 8.573376817243739
