20
Energy = -55.08241374 eV
Cu 6.945317044608676 5.774272351788581 3.5565559799221753
Cu 8.836539156929094 5.7455083634770965 5.072708814758665
Cu 8.550949154444035 8.150940367967896 4.966201761769004
Cu 5.210170400352877 7.511940382991277 3.680420326740006
Cu 6.223350467833071 9.174075194749172 5.207829500936066
Cu 4.864476385946154 3.3186169634986213 6.268341566342533
Cu 4.803150591286024 5.348853238176587 4.76866139814871
Cu 4.297517693866497 7.565832346232667 5.960382535854328
Cu 6.92031851252525 4.409207578843509 5.690850566389815
Cu 9.522147013206768 6.991992931961005 6.981700877646337
Cu 5.063951747807139 5.541301696320271 7.162317458026136
Cu 6.631913560700948 6.867028950676155 5.652420559027222
Cu 8.923548865444303 4.5488887983890125 7.177850016388439
Cu 7.651954769978697 8.576487459776729 7.2100477353985575
Cu 6.619820549550046 3.8987491107800705 8.044383039354893
Cu 4.1714575216291845 7.377262665659593 8.430921229594503
Cu 7.426736038561752 6.224967747767347 7.9734656613665775
Cu 5.320033966610917 9.238552895938133 7.446668375597208
Cu 5.614195998478457 5.702966576422407 9.50730919610049
Cu 6.394433452400448 8.024537270744485 9.232946292798275
