27
Energy = -75.97592201 eV
Cu 8.480820395339524 4.527653156294538 3.4614579441044135
Cu 6.480012882972023 5.0786708636185045 2.1915739215345478
Cu 7.735730046687654 3.1268599731927593 5.368468038029707
Cu 5.250760755474767 6.922088178339326 3.367073489765548
Cu 6.501645406016918 2.9650909733921145 3.31493844884474
Cu 7.745279232321994 6.883465997449606 3.102518629365088
Cu 6.534854167784307 3.0982194408245882 7.5643289201024615
Cu 4.512811664085522 4.4748826188208355 3.5116040756244193
Cu 9.855797005497994 4.275708636328163 5.482435787019129
Cu 3.298503436792294 6.244607131334097 4.633097185203651
Cu 6.485500144783019 5.328901609439325 4.806229345830776
Cu 5.296933010492606 3.1830705894972238 5.4419148925524725
Cu 4.300054919590763 8.353579385413479 5.187607531940748
Cu 8.692953540961296 6.424690942335649 5.289610407862353
Cu 5.758325675602738 9.051465681380936 6.9982447091800255
Cu 1.9677739242476984 7.912662197241106 5.827359804015167
Cu 5.199648499852318 6.507285565119741 6.634554059350117
Cu 8.05710764934613 4.886760509989156 7.026755644895554
Cu 2.9954825029971754 3.9937539008394753 5.438195858597553
Cu 4.395936187665065 4.252274041429163 7.438141381539308
Cu 6.734945518819012 7.922059411125793 5.065917580359139
Cu 3.5604622099105256 8.128831474272909 7.693693758774494
Cu 2.6941943568926288 5.928511647433134 6.97752688388185
Cu 7.459529451524218 7.21903328382041 7.321495286205369
Cu 5.609468786107239 7.68475938621723 8.94574576670956
Cu 6.257119522558745 5.35120359282171 8.601574996864041
Cu 3.893209677578903 6.0287703839318185 9.062796223750098
