27
Energy = -75.50056219 eV
Cu 9.830977847027569 3.813613745430914 6.072316886584363
Cu 9.087271013948046 5.763649464459905 4.824921532068141
Cu 7.299783312918649 6.073131762054118 2.9755438248403867
Cu 7.692923836918937 3.892466506720712 4.361298035012032
Cu 5.40222668707323 4.413247936432249 3.6024438889764188
Cu 6.465347898307911 6.040492934277941 5.173704398922654
Cu 8.051337648759247 7.908699051459596 4.587740598346191
Cu 7.76038764126585 4.661552191914784 6.674902118267943
Cu 4.932279261165621 6.324733876174935 2.2105440518818384
Cu 3.128847688724477 4.8216507585423 2.979140316270326
Cu 5.6964367697139515 3.553476908486575 5.865112625094066
Cu 8.663692452413285 6.976434877785288 6.926516292812753
Cu 9.031144587771275 4.218952266322169 8.532705606238029
Cu 5.446253840335231 5.544732138039801 7.289082043021865
Cu 5.662171961402695 7.926363600683575 3.9233908892126546
Cu 6.445420996300642 3.6487000031518484 8.395984141058623
Cu 7.317306791500496 6.015916514882728 8.744126003824872
Cu 3.310067817714372 7.052041797172675 3.8082863931149116
Cu 6.59074770393629 8.155673529193113 6.476560201364888
Cu 3.996544796101621 3.6925996112373527 7.565298101704172
Cu 3.683182481041767 5.082833135804261 5.390632643409541
Cu 4.342862166431349 7.480597387348772 5.995897791727663
Cu 7.563258843373873 8.392107730034768 8.655426947775775
Cu 1.984401464312948 7.052458318667284 5.810089243219776
Cu 5.177389367446573 7.685440125714927 8.406256317438718
Cu 2.9080867141742948 8.407430299976754 7.698957947531261
Cu 3.162542713778103 6.033897831888661 7.686015464138125
