23
Energy = -63.39484742 eV
Cu 5.945786248101419 5.54077388770205 11.99984141980871
Cu 10.611114286803337 8.089275490257581 8.05778623121438
Cu 4.3804805703931615 5.335190484182584 7.729909370602006
Cu 9.984031019286864 6.703675320336942 5.982044218537079
Cu 8.441508047110608 4.833962286159307 6.631407790395922
Cu 8.062846913877257 5.936233388210413 4.548533726441737
Cu 6.243814517411045 7.675488628974623 4.797300183925045
Cu 7.809672255329027 7.403805591663685 6.6946848808111445
Cu 8.581196869246336 8.22900918214167 4.280850756526205
Cu 4.906331804263862 9.281015888312048 5.990424229792516
Cu 6.108225265206169 5.533144209115217 5.976153415253421
Cu 6.81753871518719 5.506345389387936 8.286975625329534
Cu 8.600990871594531 9.49856893899487 8.163629149741833
Cu 7.756497726754581 6.076230774103741 10.588115752217998
Cu 7.126516439590955 7.889756781603838 9.18460702754441
Cu 7.352392208565516 9.722465424764295 5.847668952708208
Cu 6.202759688890616 9.797662326135299 7.978429744595021
Cu 5.371497816218647 7.50629710311076 7.607115448045132
Cu 5.273744256019119 6.32957090265319 9.87998415276699
Cu 4.077110193139752 6.877031574685241 5.71756673314846
Cu 9.747289288207865 9.15657757401499 6.0963849584924805
Cu 9.341511717902142 8.018221864670906 10.139506281152956
Cu 9.125995586388031 6.258945050491511 8.501298809768114
