21
Energy = -57.11949153 eV
Cu 8.806239218198282 5.360257200958336 8.138413656272768
Cu 9.144567031535278 6.217793667211798 6.033673367958949
Cu 7.373688502723739 4.40908747332701 6.517105912700342
Cu 9.377937861323423 7.05252875446009 3.824760063245897
Cu 6.6367722457081735 4.931653904147855 8.835349015860116
Cu 7.159975889772785 6.938905917904841 7.457767744652163
Cu 7.601243546586298 5.3166620516494305 4.314878765246701
Cu 5.067221295413203 4.055252776432694 7.10392186694551
Cu 5.787432906063178 3.810815571770273 4.82467940337497
Cu 7.183842047984981 7.199690479016204 2.8720249615555624
Cu 4.364908262293994 4.542401170526762 9.363227909021917
Cu 7.377313929579213 7.710125581696063 5.213773359710925
Cu 5.417386729632898 5.537921632887454 3.1027571224011408
Cu 5.492893150145304 6.052716087399196 5.577500695292676
Cu 4.8489201059930656 6.492599177597378 8.017447623395308
Cu 5.195268518805579 8.02201872977272 4.027695059113101
Cu 5.400216141695507 8.24577856278009 6.492062887933762
Cu 3.4464997208952566 4.521794458204762 5.339537740018761
Cu 2.779968768585277 5.04055579632516 7.665443432636497
Cu 3.457837536101818 6.455909642385866 4.021976915809208
Cu 3.229561870554717 7.05451431327343 6.273329823107172
