22
Energy = -60.64758404 eV
Cu 4.669361543349068 4.9070719499569035 5.866559844890363
Cu 3.8563554737488843 2.6237731218952844 6.748564011568994
Cu 8.290993065191548 6.646851190228159 4.668283335294095
Cu 4.649387684107244 4.5695115661165655 8.255734461581225
Cu 2.4524184297575666 4.5732413019764895 6.933967550243491
Cu 5.9917970518583505 6.548471635201459 7.403289917122356
Cu 3.590732057234277 6.661167982745364 7.207390369083753
Cu 4.8956363611887435 7.434819719466906 5.342926858740423
Cu 8.543622215460104 9.052395396309079 4.138101585140483
Cu 8.416159016260176 6.40855710536762 7.134386064127753
Cu 6.182169634675124 5.56585855271014 3.8471683155851757
Cu 9.592886477028387 8.202608292194157 6.122530862301152
Cu 7.262830430024454 4.6813914612485314 5.828219038490346
Cu 7.127924865866416 8.274842733210665 6.021652875379294
Cu 2.8088797232119336 6.062806885388754 4.854492540039667
Cu 4.0881360568572 4.612717598786739 3.180105235617978
Cu 6.494883576680321 7.986469870722531 3.586451092040086
Cu 5.455648550040576 3.1011524255109744 4.641476176418082
Cu 7.173500094783811 4.673391712663881 8.311865761771758
Cu 4.322511763770724 6.988984509869398 3.05850243998244
Cu 2.7738149488782864 3.5142190340782045 4.790281064342711
Cu 6.167279331692761 2.923717581405517 7.0316574745488785
