27
Energy = -76.68843907 eV
Cu 6.862832347415458 10.35662544953507 6.654186543022251
Cu 6.862832347415458 3.3690392452958475 6.654186543022251
Cu 3.0643509848309147 8.16093362228255 7.713071354412705
Cu 10.66131371 5.564731072548364 7.713071354412705
Cu 10.66131371 8.16093362228255 7.713071354412705
Cu 3.0643509848309147 5.564731072548364 7.713071354412705
Cu 10.531458376274736 6.862832347415458 5.494086666009025
Cu 3.1942063185561786 6.862832347415458 5.494086666009025
Cu 6.862832347415458 9.070220331817534 4.4241023270669455
Cu 6.862832347415458 4.65544436301338 4.4241023270669455
Cu 4.397457313099049 6.862832347415458 9.4334549632767
Cu 9.32820738173187 6.862832347415458 9.4334549632767
Cu 9.050343442823022 4.77523323635283 5.8325232856052605
Cu 9.050343442823022 8.950431458478088 5.8325232856052605
Cu 4.6753212520078975 8.950431458478088 5.8325232856052605
Cu 4.6753212520078975 4.77523323635283 5.8325232856052605
Cu 5.513000399977026 8.945018989151556 8.376131796917665
Cu 8.21266429485389 8.945018989151556 8.376131796917665
Cu 8.21266429485389 4.780645705679358 8.376131796917665
Cu 5.513000399977026 4.780645705679358 8.376131796917665
Cu 8.147699730086737 6.862832347415458 4.684447600107262
Cu 5.57796496474418 6.862832347415458 4.684447600107262
Cu 6.862832347415458 6.862832347415458 8.88750006686024
Cu 4.904029015222678 6.862832347415458 7.139944586634253
Cu 8.821635679608237 6.862832347415458 7.139944586634253
Cu 6.862832347415458 5.656500983255248 6.5308110971059765
Cu 6.862832347415458 8.06916371157567 6.5308110971059765
