20
Energy = -54.23657163 eV
Cu 8.698671947331045 8.685710524596608 8.035512038536899
Cu 5.236261663628657 8.685710524596608 5.899421572422801
Cu 6.2964570916872535 9.419114324947602 7.961370415400243
Cu 5.171575894458155 5.153647890146688 7.962691734703543
Cu 6.964006458005904 6.967412790835215 8.1281981036907
Cu 8.763357716501542 5.153647890146688 5.972241876256161
Cu 7.591730300253792 4.604635621193008 8.0335616131468
Cu 9.422028825060794 6.317039307549637 7.960433893006873
Cu 6.970927152953798 6.967412790835215 5.806735507268996
Cu 4.606929195863526 7.610181510322489 8.034346678589595
Cu 6.343203310705912 4.604635621193008 5.901371997812897
Cu 4.512904785898904 6.317039307549637 5.974499717952829
Cu 9.328004415096174 7.610181510322489 5.900586932370109
Cu 7.638476519272444 9.419114324947602 5.973563195559454
Cu 8.312404401279094 6.406438600788121 3.9336246613923804
Cu 6.787837350235185 8.421698973479145 3.9318686109596994
Cu 5.807249660129641 6.088788510939981 3.9323457574967797
Cu 5.622529209680609 6.406438600788121 10.001308949567319
Cu 8.127683950830056 6.088788510939981 10.002587853462918
Cu 7.147096260724514 8.421698973479145 10.003065000000001
