21
Energy = -58.11227552 eV
Cu 8.64158455200021 8.095606865812629 5.037031443870691
Cu 4.468908098652442 6.0871866876534515 6.665645849044112
Cu 4.651660352204192 8.527129043076306 6.03349285152208
Cu 6.1784165806747975 4.760263651464156 5.43733834905955
Cu 8.201656444228218 3.9217770149280766 4.386264931282033
Cu 7.554409368082655 7.046625421517842 9.630140503861476
Cu 6.826999408553613 5.624133864327037 7.837548485100463
Cu 4.783651844550308 5.9520428590928605 9.062404388633796
Cu 7.698526903035375 9.418515829167239 8.890206536829142
Cu 8.64681867478948 5.7274446629003934 5.921370171045885
Cu 8.512654275003271 7.661996731126813 7.473202302380926
Cu 4.90221392880788 6.647241063268231 4.300402865186177
Cu 5.832452475231825 7.9876280302239415 8.186446293186041
Cu 6.374726925542325 8.663290359470572 4.147064465085991
Cu 3.4048638951442185 7.754119989982891 8.03769866900786
Cu 5.218450569141879 3.911279148120012 7.538876390518139
Cu 9.145663452305305 5.4499644353910615 8.318922138100854
Cu 7.367073759269154 6.270276155674759 3.8072847680083615
Cu 7.801299603068603 3.6450117019981305 6.891139331633448
Cu 6.614880855673186 7.140078354793254 5.929925694059552
Cu 7.020605401802053 9.440736697511435 6.498457066825505
