24
Energy = -65.98853936 eV
Cu 5.931504473236934 7.707559177757044 1.4840533194485859
Cu 4.878740667819666 6.269671596666673 3.1063456244075325
Cu 6.937893981868963 7.3752332159678415 3.669940737210499
Cu 8.023807958457331 5.316897661049274 4.368403165275958
Cu 5.835053251213101 4.097619582638432 3.7846375139302895
Cu 4.939093384567684 8.705354245547822 3.440535918236488
Cu 7.229488748514872 3.4092815162087042 5.674146075861819
Cu 9.583531429128625 3.8395033058831323 5.373003750811117
Cu 5.891677207883756 5.812480574142645 5.546519132603345
Cu 3.562579401702007 7.366445642412936 4.946315387869951
Cu 5.687870000551482 8.281196078331554 5.747743174502639
Cu 3.6574484454664593 4.936761011326702 4.7162295342158425
Cu 8.299291649388051 5.209486907850591 6.942018927585569
Cu 8.002658845413888 7.352228415054799 5.837601316458197
Cu 2.083038519564683 5.901250893193095 6.282369557826536
Cu 4.843933897206896 3.158354326781702 5.850903137165949
Cu 6.486321198513557 7.021513297961322 7.7442070750088225
Cu 4.131981218691798 6.935334423340755 7.250635949415537
Cu 2.343701012353866 3.3537814684913423 5.879149236774927
Cu 6.100770851945069 4.336946962989475 7.6460237984444905
Cu 8.8618372162321 7.243145456079095 8.12598239604883
Cu 3.691154130332717 4.564849724686111 7.484204016817463
Cu 5.002193461135052 5.747287860296992 9.237924687480715
Cu 7.445244057168968 5.5086316636998145 9.311921574956736
