28
Energy = -77.84720681 eV
Cu 4.963763786380643 6.746677458399615 5.536500821221706
Cu 9.956805515058727 13.272084483978402 9.119793339988817
Cu 8.341717914227589 9.745411636185981 9.636887696952334
Cu 5.207748513951239 8.233668774434559 7.411239394388049
Cu 7.2283685073494475 7.9787518992771505 10.914571667284132
Cu 7.936083104244849 4.70256184170825 7.577750329966097
Cu 9.407921230833507 7.269603966723553 9.901551114448516
Cu 7.460990849939546 7.651558290188564 8.362295748715256
Cu 10.837928673277816 9.33009156826635 9.858568677481626
Cu 9.289373874135118 9.08965574934896 11.759055632909368
Cu 9.553490324954645 12.771956501926738 6.786344940200838
Cu 9.226789961230994 10.451475206325275 6.010551116933172
Cu 10.021224926362628 11.06518252569717 8.292179911595056
Cu 7.307286043662843 9.814879669641785 7.289865469532252
Cu 6.513120776297608 4.869820024830947 5.606085961587706
Cu 8.799235880884723 5.597638715170878 5.4248309715306355
Cu 9.619369978648114 6.423874592256508 7.522254886158422
Cu 7.295718329607925 5.681700338868342 9.73951625371537
Cu 6.292176269999298 8.80032394163784 5.297206609586424
Cu 11.192533152023671 7.5850319597815945 11.446724860604974
Cu 5.7584331038422585 5.83143530833916 7.690460007454114
Cu 9.580776954478507 4.8667738853502565 9.345097198851352
Cu 9.781215315768664 11.37153493333022 10.707504813620753
Cu 9.688845615068528 8.775932602502003 7.756784728836406
Cu 5.285130375834074 7.139817652815202 9.665871786030266
Cu 5.954270878110188 9.456604173581693 9.344933277151954
Cu 8.451957364283174 7.957478496430583 5.886886726975812
Cu 7.0431200599326464 6.7748686075934295 4.223743191872569
