29
Energy = -82.65681674 eV
Cu 7.077979970566238 1.9574512807141036 6.219891493785526
Cu 5.593966735082369 3.103084425777434 7.814741842501137
Cu 7.581330094044658 4.305784941750452 6.943607351959205
Cu 4.49595217375948 1.7687137348173394 5.869996860786643
Cu 6.620457055536854 5.886937614705504 5.301475920858294
Cu 6.449178506338363 5.449021017507329 8.870688196175086
Cu 7.880384504387213 6.767888216990774 7.269765339062597
Cu 4.891692911767198 5.316672085576299 7.117489169977905
Cu 6.119558763249429 1.8596292023829104 3.9739118201955477
Cu 3.2330295102565723 3.9605362500021255 5.9049267832293975
Cu 7.949670721111088 3.659223270657975 4.505093559548563
Cu 5.643666328680415 3.729073902335346 5.41699742987384
Cu 6.689621318301389 7.854200507880503 9.062204088533706
Cu 8.988772182892859 5.7490421523908735 5.299628569188876
Cu 7.489813419509654 9.17886587080832 7.127560287238777
Cu 4.385429634729076 7.219058977590988 8.618157776521024
Cu 4.2143806026693875 3.5355324216287194 3.5333251467273787
Cu 6.511236274448869 3.7264410905758014 2.538679717670183
Cu 7.795622022414735 7.999313309631867 5.073574236807585
Cu 7.601958357909482 5.829388889043364 3.1548582113491013
Cu 5.31191876851504 9.561660929057105 8.033264059055533
Cu 5.416147067059681 7.652838426616843 6.4611360178227555
Cu 4.202282414313268 5.826604231911768 4.684872347648696
Cu 2.892801465189033 6.53084364968737 6.582149174039314
Cu 5.764206245750728 9.651489054602212 5.317257543763287
Cu 5.7737036476812715 7.651895110534519 3.763387045555653
Cu 3.280874224337561 8.861461819963795 7.066534597956731
Cu 5.163669772975691 5.655407990976754 2.5066418136905493
Cu 3.6709357106826697 8.254934874930557 4.78404000806096
