25
Energy = -70.2515098 eV
Cu 5.054634490569368 6.522149211795511 2.8643309821502396
Cu 6.9903097040933195 4.900949023968549 3.1972879294860155
Cu 7.303501321144724 7.386906702414182 3.9382445236043484
Cu 4.646134440625782 4.14719481330876 3.6913834852791414
Cu 5.732561677535958 5.7766795388324255 4.992452319079332
Cu 8.228069228765886 5.513719078445115 5.348466600061673
Cu 3.4096271599831347 6.079196233227205 4.699898811909447
Cu 7.139295151634064 9.434878100065822 5.368366442766428
Cu 6.5108735509108016 3.5007100491444705 5.286037452777553
Cu 4.9831629202461025 8.153260787421607 4.9169745281329345
Cu 6.827978044772847 7.346178916691851 6.370084242213619
Cu 4.339903848585141 4.31332695079549 6.334103397570001
Cu 9.109841645831779 7.85626743420042 5.846223322396195
Cu 5.46547963468144 9.095632351826326 7.308186972897748
Cu 5.873830361985841 2.954354284441094 7.754837807914165
Cu 4.435294063021741 6.75766570459769 6.944214455907762
Cu 7.9541209475710595 8.924453335687732 7.840630278116007
Cu 6.698194812429455 5.049854629239408 7.213290175025587
Cu 8.670877332004377 6.334885818144231 7.757960100770478
Cu 6.081434993734193 7.182903033883813 8.778817224270004
Cu 10.159160693608824 8.101080708132049 8.263732647211809
Cu 6.495722840332186 9.3502332793326 9.672499815961036
Cu 4.840276990362521 5.023225210376044 8.7022321883988
Cu 8.27678306312877 7.5474240997506525 9.866069875530092
Cu 7.283669819120787 5.2576094409569 9.55441315724939
