21
Energy = -57.61018153 eV
Cu 7.469034477603695 7.230091645171875 5.268396030189195
Cu 7.099017354145458 4.850319775919612 5.259361146843396
Cu 8.549943323539258 5.709836540047631 6.969458760527983
Cu 6.161637037447355 9.000577385704224 6.203179271447686
Cu 5.608771611740488 8.314566138858282 3.9247632805260806
Cu 6.1513299560493895 6.082736873141416 3.3981286225623886
Cu 7.390090235617353 7.661743021538541 7.759997470488227
Cu 8.669614828421215 3.0195911613692887 5.022255907185992
Cu 7.486530436126032 3.459572292929397 7.17192808291308
Cu 7.017252357351088 3.744734327782064 3.130360818254212
Cu 3.8867868566706556 8.646851379654318 5.550258515156377
Cu 5.12368815164708 6.338139272395246 5.8225546771558125
Cu 3.6896503824513656 6.565602880540466 3.9656387734911895
Cu 4.8834674499836765 7.6268205985623805 7.835037275499638
Cu 6.3123100067176425 5.525436877827067 7.984532848239254
Cu 4.8247352935396 4.27895655533972 4.218048535154269
Cu 6.328794955981338 2.5134391302398758 5.120749629509959
Cu 5.085932004368761 3.8720148308767666 6.6742863533932635
Cu 2.7595987688467565 6.908697162836699 6.572738348961286
Cu 3.016758855908224 4.72605329984686 5.7497180172245805
Cu 3.847206735788046 5.359511542867722 8.072541731316852
