25
Energy = -68.58370071 eV
Cu 7.280748888713262 7.6139190614901375 3.620529517577941
Cu 8.967527377266338 7.383547421696183 5.381443457342032
Cu 7.980133955973756 5.341969313589247 4.332309178945581
Cu 5.651165168160334 5.830368510788394 3.6977413848879044
Cu 4.455049270849855 4.171974518471806 5.00422788130123
Cu 5.075565180011061 8.070434671836688 4.647500063692161
Cu 6.444511457971018 3.5176769836608375 3.7002846723907896
Cu 7.313626853358999 9.152177670744033 5.446561201156061
Cu 3.3501513297640777 6.267665333911613 4.379573255161405
Cu 3.008742011928822 5.9426524412409085 8.544811818059918
Cu 8.780082837928148 5.388741088684173 6.668108345872639
Cu 9.136170743078036 9.164023731085674 3.8145720318303638
Cu 6.436874205762469 6.583245484718671 5.999245685209897
Cu 3.8095655431898274 7.128975847558402 6.585157013931949
Cu 6.706008066013393 4.10820721547433 6.035010812113331
Cu 2.557621105146505 5.01508632373858 6.342392954589152
Cu 4.774603042722863 4.890446646937092 7.314114466915576
Cu 9.293682644675542 6.861119262332079 11.256085057954632
Cu 5.5605910632122395 8.775038316331102 6.959522323846838
Cu 7.000268381896794 5.252219769671759 8.241124437750942
Cu 7.803929679846043 7.70750830738441 7.643323624156556
Cu 9.231003748514413 5.999382161684744 8.942327549764405
Cu 5.308487348118377 6.973457420981902 8.542364906076289
Cu 9.309392123965694 8.350929964431282 9.431578551423637
Cu 7.268099950682823 7.012834510306654 9.97369178680006
