29
Energy = -81.87902166 eV
Cu 5.617441873148181 3.805236472822916 3.632515994753651
Cu 6.6436742963377515 3.8582603944023353 5.90780313293456
Cu 3.4374404852151876 2.973203638981848 4.672183581512571
Cu 4.415313072680773 5.052141988329594 5.429329887332098
Cu 9.572734677260016 7.121640825440376 7.550790578240568
Cu 7.121383486192721 7.456826069978687 3.408474768071997
Cu 3.2476967368234075 3.724345320052664 7.114333652618605
Cu 7.355203259842382 3.862367212747634 8.26076413154556
Cu 5.3844640684793434 2.5851467879023455 7.516510199336343
Cu 1.9921456717812083 4.918080225719107 5.369398676113446
Cu 8.619242849865994 5.1274526601244 6.513806401803757
Cu 9.59024889854718 9.197189474365224 6.198510884403469
Cu 5.2791874553509475 7.5835684877699245 7.59711375898018
Cu 3.4348987557309467 8.701149074143343 6.479103445666147
Cu 7.333274204471591 6.2933946262536224 8.26019289584987
Cu 7.420609381427957 9.228353847076118 5.011079297371113
Cu 5.252110208997431 5.090125576551125 7.799182198199167
Cu 7.561011408432462 8.497958267443416 7.315408525755324
Cu 3.612447002141338 1.3572639963130873 6.519941557081551
Cu 5.6116132239771135 9.818989095727279 6.616241950771484
Cu 3.1686757542673956 6.289940495622767 7.114172399521212
Cu 3.0607187741918254 7.004160448341607 4.761122603241028
Cu 5.151551220741421 8.328397770560732 4.779495013936645
Cu 6.485675242053683 6.421874078915257 5.803945236693208
Cu 8.8055330310039 7.188699429062317 5.204071804326768
Cu 5.05195966184473 6.250069341953656 3.469744664652712
Cu 5.515664626798748 1.847298492900379 5.11271714263362
Cu 7.711045471897769 5.158181952043227 4.125709550238288
Cu 6.6963729466615725 5.385393609307294 1.990993650397514
