29
Energy = -82.47817452 eV
Cu 7.8049594520042005 5.7647444902640865 2.911486753886797
Cu 6.075414726027571 6.01415511976251 1.3014634674693724
Cu 5.5399073974441695 7.902179685783312 3.0965260193742496
Cu 8.939206953468863 6.309494417182308 6.136727863447648
Cu 6.572809137372583 3.5651183489972826 3.2285798233563328
Cu 7.589377034001172 7.557027700687375 4.531213785817678
Cu 7.495412298902412 8.210935162394287 6.982498802016291
Cu 7.175382902101456 5.095293229890988 5.136822478473063
Cu 8.738320896956514 6.3187384050208495 8.48713628639975
Cu 5.32781674818892 5.608804298335092 3.58064458555742
Cu 7.932156050726126 4.124822570919292 7.3313002416677
Cu 4.598666679658413 4.113233970320045 1.800666320565511
Cu 3.782635693064626 6.598610869673196 1.9383949434505716
Cu 6.2576347161662245 2.9545112678511987 5.688599159141026
Cu 2.634111517883893 4.833366244965223 3.118388190684194
Cu 6.974427947608592 4.978422148392786 9.524298965675717
Cu 6.790514243201699 7.482605996669855 9.373548006403327
Cu 4.822235728751957 5.019786239255286 5.9575147956779375
Cu 4.283204294041869 3.316172406800234 4.1117052159449825
Cu 5.429991181024482 7.443718405553685 5.5372533157405845
Cu 6.545750184258025 6.092340625330828 7.367539125958655
Cu 5.550783260493177 3.7760621838806583 7.993178742906199
Cu 5.126673546155245 8.225700033112837 7.814143913629145
Cu 3.3521457128333148 6.854956873424155 4.372366383613154
Cu 3.8696676709830946 2.79179631583188 6.427164111585248
Cu 4.727426937897204 6.092659425637577 9.021867588503524
Cu 2.4935985178073787 4.7445824213501595 5.505990452247806
Cu 3.214134730195424 4.6004177343757515 7.92359054318813
Cu 3.389058879798639 6.807087221985018 6.885053856003677
