21
Energy = -57.41787269 eV
Cu 6.565265307840166 9.277496712228281 5.27891029957869
Cu 8.611399243440953 5.530760460499126 7.385115521400473
Cu 7.095166957268236 4.0651880078384615 8.637028513640487
Cu 8.258237344301802 9.580143827518276 7.129836900334799
Cu 6.998530821943754 3.7406341487479975 6.2422124329539646
Cu 6.066119374119174 8.354738409652732 7.459046704079563
Cu 3.872801454356861 9.16514876493612 7.016420055076023
Cu 4.5574153624186415 6.323731571800457 3.2933284029245944
Cu 4.149264786251839 6.792941923093042 7.561375390399653
Cu 10.092239774581156 7.624117906608395 7.227767151421078
Cu 6.329211785783522 6.012663842156626 6.430472978580902
Cu 8.165112922390074 7.570209844410972 5.906743915334621
Cu 6.166094253948745 4.709007418716596 4.127245306235936
Cu 8.351261708301438 5.68982237785221 9.891316659984188
Cu 4.7146882553469665 7.694690325697497 5.31882107067531
Cu 4.203674737984185 5.2799207463781785 5.512698672257251
Cu 6.1141011752400845 6.2835679014121695 8.957923733983032
Cu 6.750698967819042 7.076424098340613 4.0205786760320406
Cu 8.080927945432892 7.625678773144524 8.521283294734198
Cu 4.911506629731739 4.477480503140578 7.722498614401959
Cu 8.32641366122729 5.382238146122382 4.924609369346976
