22
Energy = -60.80356848 eV
Cu 6.66341372356857 9.022740497532173 8.313746952215212
Cu 8.207923472286033 7.760775004806662 4.585117592328755
Cu 7.284127115500586 4.068319626851021 5.928258824858143
Cu 9.052999888544734 5.889831287288992 6.08213920434589
Cu 4.056740830865584 5.612021496647267 6.162454812769977
Cu 5.51371701877949 4.809258195529534 4.41563679969287
Cu 8.577277984984393 8.187518080309257 6.9548469681873515
Cu 5.9594490306081065 7.184249183734349 3.726385380738377
Cu 3.6392165029650685 6.157283300377454 3.765519879823895
Cu 4.35466965114273 7.847489500225706 5.42265574282014
Cu 4.55687740604799 9.494931949990008 7.211981248529988
Cu 3.701574800567576 4.563076941858838 8.252313418336621
Cu 8.409408948406304 4.522936898766152 8.054361131680714
Cu 4.927979227533487 3.357633211439157 6.389466460643511
Cu 9.852397056823659 6.545979464420548 8.31516268748517
Cu 7.826525382743459 5.473284301268081 3.9471561401062685
Cu 7.403868596099346 6.685702888007843 8.545043492452967
Cu 6.653035213336368 6.482259081283739 5.985926220989059
Cu 8.820672351507078 8.42366526173314 9.393557084498259
Cu 5.986011737021637 4.9057307131671735 7.84483639309317
Cu 5.059736132410023 7.188706300592888 7.782688843108664
Cu 6.465862037598611 8.921940385881502 5.838032803479982
