26
Energy = -72.61256406 eV
Cu 9.864688748815338 3.7620115098994726 6.879861389697695
Cu 6.393956827670284 8.521071200727825 7.951259422310954
Cu 7.530563744528495 4.268934564158488 7.473746458102658
Cu 8.399912781056498 4.782925829531113 5.24959812634653
Cu 8.477739777224102 9.420852646235177 4.232063138155183
Cu 8.32258911511503 9.430276977650975 6.721312757949262
Cu 9.387465144547617 5.517527404547449 8.476355341388174
Cu 4.362193498719161 7.964027885362226 11.606153195107355
Cu 7.89398080634528 6.801958809223391 6.914527350583391
Cu 6.946210377752662 7.962556545776703 3.0104068465342264
Cu 8.26588853228934 9.50317913705454 9.183698460791565
Cu 10.203016075048254 6.131941921820637 6.23261585069664
Cu 6.115673782645528 5.4747257828221105 5.829756075432645
Cu 6.57539128661708 8.336539286713087 5.433279003186982
Cu 9.777833581333265 7.934983863009498 7.980194780507957
Cu 4.71768459816807 7.259674213882735 6.715802455837544
Cu 6.940014417732595 5.599286615721803 3.4751541246169455
Cu 10.267728318407723 8.494149019737232 5.62616196355861
Cu 5.9376497614774495 6.363692568591141 10.788582666690896
Cu 8.71349699235184 7.0330691731040575 4.405251520712594
Cu 7.931054326470867 7.13395846094893 9.552609735815093
Cu 5.954480501427795 5.888653367205198 8.320280315701298
Cu 4.471929174766115 7.605154628531932 9.21883801211174
Cu 6.377467413724133 8.744414667363463 10.524988245364652
Cu 7.486462457543637 4.736275800044679 9.933476868008542
Cu 5.010734206586461 6.930770383815353 4.268817938335292
