26
Energy = -72.67231219 eV
Cu 7.971013650344334 6.51647740052078 2.3866271611119694
Cu 10.103652098797234 5.089343834847782 6.5022468227620775
Cu 8.915382082100013 5.603639211750418 4.424338520640637
Cu 8.427378885052818 6.915698039632996 6.599070091053073
Cu 7.425854802489289 7.536256739040633 4.528259205950645
Cu 6.418488007341838 8.539025198724131 6.454600470633342
Cu 5.831232157000716 7.597132659438873 2.7894767985698277
Cu 8.538688752452844 5.297566948280602 8.402943255173001
Cu 4.467372265593644 7.62466253592832 4.910926296821575
Cu 6.730517720007564 7.009964869782706 8.419154772301555
Cu 6.4193196965420105 5.362152693953486 3.9236153381429495
Cu 7.7636452227244455 4.538829563304366 6.242217633939382
Cu 4.390819654125489 7.705845059754305 7.5579149762396645
Cu 5.910706389201414 6.215220117764114 6.239795414965149
Cu 4.162535441817812 5.935604520336211 2.936813522291513
Cu 6.916091834870262 3.052916084362498 4.566954741347468
Cu 2.3933975009765494 6.802455132867236 8.756824168990489
Cu 4.654714485665718 6.2460949792517315 9.511548137570415
Cu 6.839756371871285 2.475689889812674 7.03259268658658
Cu 2.2654342714662015 7.034377233707473 3.9311811513234813
Cu 4.654980306143525 3.6254428622491246 3.696930762002901
Cu 3.7811418652999036 5.279762093266675 7.500645843018859
Cu 2.374877864473129 7.063426861656773 6.348460020260993
Cu 3.4758301192841343 5.288056767846419 5.104969657028098
Cu 6.119863503168082 4.631477631293081 8.19772564563384
Cu 5.181406030286563 3.860003865679807 6.03906388534465
