21
Energy = -57.45896099 eV
Cu 6.190138949714045 5.003217070771534 10.195030048554855
Cu 4.92023283027693 6.863867714079035 9.212864664970981
Cu 7.451536315774727 6.765366663163045 9.097427972204247
Cu 7.398032369944927 3.869784657833181 6.267964186397506
Cu 5.227060726928532 7.6385425322817895 4.9898686530683225
Cu 5.383794685134218 9.780044024253234 6.173180257414868
Cu 3.9711746506821077 8.698053212226023 7.858063302235753
Cu 8.04782956778127 4.419182174649675 8.600616696896788
Cu 5.928240075004273 5.140920804746106 7.8094601904643035
Cu 3.389072015656733 6.045875276040815 4.63246928895826
Cu 6.1689309676422095 7.81451794977524 7.314213327450958
Cu 5.3770006987267065 5.916188299556319 3.1839401120674
Cu 5.482397945490257 5.14634242640047 5.442721102151547
Cu 8.042761033787903 6.160466437805785 6.800128115677043
Cu 9.48349595710618 7.480587728856238 5.396024742505049
Cu 8.548807451593424 8.410190500372018 7.544522831828537
Cu 9.162444383271618 5.027226139884872 4.935889249124212
Cu 7.432277696768381 8.741088591814243 5.427686607858426
Cu 7.0769936960933935 4.201152388314616 3.8743583726140094
Cu 7.405565374156908 6.578139478255783 4.342589042749446
Cu 4.061511479072109 6.485610122529251 6.911960373654406
