24
Energy = -67.10378525 eV
Cu 7.8306638173129794 5.616954203723953 3.206797695845457
Cu 6.275139821629614 4.810822478045007 8.491611914591676
Cu 3.7847948877484985 4.936008122619237 2.9199596520476656
Cu 4.363909271471662 6.216501655501132 9.132161434744027
Cu 5.627067149930678 5.766223627312084 4.348559754429511
Cu 5.523973118686675 8.201395768204389 8.198693841738185
Cu 3.3414206663311115 6.062862707340746 5.097890140288155
Cu 6.227486808929699 4.044418707603307 6.10847961153074
Cu 8.290966386238583 3.9421187581634505 4.905660065811676
Cu 5.620948353245914 6.405300982714828 6.692667318881959
Cu 6.730436917262679 7.852898167025704 3.8029983556316607
Cu 4.116429404447337 3.6803285673169506 4.94825115462856
Cu 7.001435785304115 8.471308242719129 6.152149633700464
Cu 3.9975945746821475 4.739409766000068 7.156055265040648
Cu 4.727576655167883 8.198856628122922 5.334014660004032
Cu 8.401350468182754 5.235499858348974 9.598916711209528
Cu 6.207368923141828 3.6713606466469138 3.4887122751731354
Cu 4.3129352927737 7.341003966479666 3.091677226051672
Cu 7.71845619364894 6.862158376668055 7.941517529663409
Cu 5.834440060507671 5.72650396822599 1.9096746576608414
Cu 8.388959224943807 4.575223460418303 7.244671265409294
Cu 7.87263217695944 6.269915820277851 5.5239952686145095
Cu 6.507352526827936 6.730283661537968 10.052287564419293
Cu 3.3668381765550417 7.243473022478286 7.195535992240411
