26
Energy = -72.95068049 eV
Cu 7.895505583392808 2.181785622969053 7.801652379072816
Cu 7.819236967284328 4.49180071209607 8.37407962312959
Cu 6.269628286654476 5.425231364141475 10.052438538532586
Cu 6.404169037515939 3.5139551836162375 6.416288063943711
Cu 8.760298045940837 3.7772657100285545 6.0306082500645575
Cu 5.79233545557191 3.2305989623798035 8.804572249914708
Cu 4.057803627319368 3.764503902983121 7.0512015204297676
Cu 7.471526571008481 5.783205151922026 6.315710245280042
Cu 5.470253568474558 5.4845720919927805 7.820599532213457
Cu 7.439059944435454 6.957875424430831 8.500369013340372
Cu 9.337227588570606 6.004440394724268 4.915372223091588
Cu 7.286288489561693 4.802645823309868 4.1482142394587385
Cu 5.129587603025637 5.262756561044776 5.194404120682721
Cu 6.878121795480625 9.321466830381095 7.856181926390327
Cu 7.338987880428033 7.3323775672823865 4.341220220309323
Cu 5.13513554736079 7.615492835665741 8.918698439078268
Cu 8.395041987854624 8.01734740619936 6.43215790001712
Cu 2.6866197201032063 4.658377599399888 5.3540090179922215
Cu 5.847218267592502 7.625810288127409 6.606249220553273
Cu 3.6425809348481226 6.609421944312337 6.491074496812137
Cu 5.585922994536731 6.416074752345235 2.998100534530383
Cu 6.663419393466996 9.529756162429887 5.316447507495722
Cu 3.2578993790995874 6.445626685285699 3.912718283158046
Cu 6.220723338414418 8.90721417235418 2.900577069655688
Cu 4.701031125722374 8.190580007613994 4.608895334357943
Cu 3.9796909603975696 8.115130937025505 2.303474144556699
