28
Energy = -79.54768206 eV
Cu 7.114885201636761 9.372261699261479 8.039799968634311
Cu 8.348704033043179 7.452638045741381 8.93952098546388
Cu 9.140100468804512 8.570105700186478 6.870723203875548
Cu 4.912470583816253 9.128119430269612 6.999253613633787
Cu 6.072747802615326 7.1867387851533655 8.04712873867741
Cu 6.9371165295624415 8.367282657242546 5.807316673777856
Cu 2.7583807468873953 8.814423034212908 5.98897983792506
Cu 7.350043914970552 5.22942923836893 8.807232426630147
Cu 3.880880530342738 6.874921134872996 6.929847182813525
Cu 8.297558339291704 6.288766331870427 6.7854776100370655
Cu 8.909262658720047 7.435420913947943 4.694065865721052
Cu 4.68250000137935 7.94944475093545 4.798480952096127
Cu 5.110017862755768 4.862339993222208 7.80106536695074
Cu 5.938878600836853 5.976474172717723 5.76254456193266
Cu 2.5727128950240137 6.632392842081815 4.787980682174785
Cu 6.360011946062355 2.9880878228540184 8.65960732105961
Cu 4.561625386171561 5.735561310031567 3.5887522275241217
Cu 7.269013387119901 3.9931123105408535 6.656408714464512
Cu 5.978065944361391 3.7564028717329987 4.573696030241977
Cu 8.02381927807208 5.154370714827148 4.559640820686255
Cu 6.719530310522103 7.04047458118719 3.6637938643359766
Cu 3.70679135395187 4.657749165641058 5.795154538777884
Cu 2.5256228569418657 4.44671793634337 3.6898762026913685
Cu 5.14722392780261 2.668628020218039 6.5584322651285225
Cu 6.627844906353578 4.8761434689165615 2.539241681471544
Cu 4.637664560433088 3.3993031088607255 2.6513034668153157
Cu 3.6487671495186245 2.5110280928494415 4.67366904109345
Cu 5.746157706186318 1.4315891530473648 4.335174908440341
