23
Energy = -63.11288013 eV
Cu 5.990321309758559 3.5153920947688038 5.404227599609076
Cu 5.332881271054957 8.13996468030865 8.787849174431837
Cu 5.324483563680179 5.703181621991506 4.5743462835674595
Cu 8.964885952031555 7.606943847803508 5.708349305926658
Cu 6.128790536850462 4.8497258098284926 7.413070235181114
Cu 7.603382893354801 5.506262624556511 5.446221414252521
Cu 7.76808718148646 9.737154714878063 5.0647536054342375
Cu 3.9831488209650106 4.714218078943444 6.251449000795691
Cu 9.599360116905359 8.015860798147859 8.098863711588391
Cu 8.907827252724376 10.25058467112989 8.83557327059191
Cu 9.634643734199113 9.841532745524756 6.564253133353511
Cu 8.916517231474506 6.319815583704892 9.634969567838356
Cu 6.386029069124583 10.333400413588258 8.93708351579183
Cu 7.9954448884609395 4.263831766360586 8.905192564367061
Cu 7.62046255829699 8.352358247146409 9.648972201389734
Cu 7.558716205009793 11.120431381108201 7.038834650829204
Cu 5.972136411097474 9.27267071608342 6.715823619148497
Cu 6.585489476726232 7.678699933349983 4.984637782723447
Cu 8.038535113422293 3.4232205736672134 6.665078344483258
Cu 4.963137530316258 6.9600577795904846 6.667277528774027
Cu 6.471319916722481 6.123752272582634 9.546282527781523
Cu 7.287611387362302 7.11051810324228 7.476084691222124
Cu 9.251939477988298 5.64621110822413 7.285151601770965
