24
Energy = -66.9259253 eV
Cu 4.693818333766454 5.484007615363687 6.452366801619673
Cu 2.887107694040674 6.991291417519298 6.323233473986965
Cu 3.5654499827792674 5.739373775551811 4.226244359548129
Cu 2.541475271202496 4.527906604415871 6.312488397012344
Cu 4.473926076502604 3.4755988592270732 5.038465388093727
Cu 3.5108649213100005 5.634387642351594 8.551606635206651
Cu 5.351098394450135 6.879249817595011 2.723017996009512
Cu 5.9908942763401 5.3843401679065 4.494524081073641
Cu 5.04803966706611 7.620072438294193 5.153906967906546
Cu 4.897361256261429 7.631670453735026 7.660888672832469
Cu 4.972579511186761 4.384887286584543 2.594987375820752
Cu 4.403282437763163 3.468447792107506 7.660032566513129
Cu 7.296839409840697 5.273891921643756 2.500994288547101
Cu 6.845317216783294 8.667869817974383 6.387480077676505
Cu 7.5154013536458315 7.5260952990722 1.8022956489184918
Cu 7.05519279567986 7.521297918663245 8.647692474655011
Cu 6.744936591893488 3.182400010623858 3.964732391587602
Cu 5.040321175276541 6.9454500089954 10.006033247267952
Cu 6.583249977184873 3.8668537457551078 6.453267958996433
Cu 5.9918310723134 5.289756280996699 8.504654159215427
Cu 7.407684667623451 7.3412329496419275 4.224315409490576
Cu 7.113655557283212 6.331173199833313 6.518032646475128
Cu 8.337216193955678 4.923013048994556 4.887688267957982
Cu 8.422965014997956 2.6002407763012254 5.60155956273585
