21
Energy = -57.87331234 eV
Cu 4.214920146001721 6.461457563923653 6.6980707766303125
Cu 5.458195743626898 6.426676734342386 8.81584375673536
Cu 5.366384778214615 6.530312513672744 4.598209293727186
Cu 7.915832513652799 6.428614462246339 8.70885266968716
Cu 7.810925196621586 6.55029273276507 4.481956425685771
Cu 9.059526819302718 6.481641018054004 6.584912855527815
Cu 4.488134873585498 4.398836722450425 5.415394590531311
Cu 4.586628169535063 4.362786880953342 7.855957710545309
Cu 6.582413124600207 4.473297418106494 4.154190202541262
Cu 6.693771923076736 4.344321449654329 9.001652536252601
Cu 8.704568194513143 4.438540884956034 5.298394241075363
Cu 8.788672749604073 4.360681845106933 7.741589500409273
Cu 4.499883361998887 8.627600943996297 5.552761275600542
Cu 4.620736709070642 8.551604667516804 7.929295153716454
Cu 6.5614384740322 8.664784291805864 4.365434319242975
Cu 6.686555153847354 8.527918100370664 9.061588058431179
Cu 8.636916348208128 8.633575011285965 5.470141646780413
Cu 8.738117969848872 8.584390725107802 7.843995526616651
Cu 6.632046934140029 9.782376719013902 6.749664641815969
Cu 6.63675801505899 7.484197443722336 6.6769114054515715
Cu 6.6427631871324095 5.055360458269438 6.591318637828683
