23
Energy = -63.61970546 eV
Cu 10.259940605589005 5.518859470247517 4.376722369482917
Cu 4.411884884805756 7.501805918333447 5.226637012524937
Cu 2.747900100838117 7.149156619780508 6.920212151863287
Cu 7.457879673335931 3.6902408361718546 7.880116641435595
Cu 6.741992443765823 9.853036024217404 7.432583818552046
Cu 6.404155391352376 5.030536559924307 6.060894916217328
Cu 6.060317145803961 2.8585376793348347 9.631571258531233
Cu 3.929330235368676 5.1407851235297635 5.798908779760406
Cu 8.618824854108851 8.435482656500223 7.782947366569212
Cu 6.7128615611865525 7.553744291964003 6.290018437912984
Cu 8.10462508603009 9.186592659706278 5.359212041689228
Cu 8.846195959573064 4.6308106225998396 6.0858401243597875
Cu 4.875853277385057 6.337741298692317 7.66354523614016
Cu 5.630955144188062 9.680706741224107 5.282514601584188
Cu 6.2676636209267516 5.285670660806043 9.374243137410343
Cu 4.610540528190382 8.708723183497696 7.37620455495339
Cu 5.481363610904172 5.755653380487825 3.9386192406387477
Cu 6.472233621857229 7.758306745277105 8.844481954620155
Cu 5.002612637491022 3.91269989169532 7.73308148114812
Cu 6.451833940268483 7.976523650727756 3.8380397976981278
Cu 9.330876798978995 7.061355790555252 5.9617173891146376
Cu 7.883199335443383 6.090806960386795 4.327286878613584
Cu 7.967672904100726 6.074903646842004 7.855297299379052
