20
Energy = -53.46195372 eV
Cu 3.844103677906527 6.831344638816864 8.1428230187899
Cu 5.89917920056266 7.4097264082595355 6.922381017396912
Cu 7.52188539275403 7.6305629127426515 5.192619210447537
Cu 3.884080599859048 8.373146564299265 6.151363483271852
Cu 7.5088382956230015 5.584215305693933 6.5975697331745975
Cu 5.217421775615852 7.178388609585506 4.490844143812631
Cu 7.010485694398683 7.398256761474378 2.8229825443569454
Cu 6.259150443688958 7.178236347455363 0.605350135279823
Cu 3.5984018250540335 5.9670057969765065 5.93490677596433
Cu 5.816188618353359 5.402588087155173 2.1061606694238626
Cu 4.238098199434439 5.0399930317987485 3.834832320750149
Cu 7.641479363878822 3.350695120829586 5.366041926660958
Cu 5.848433053836774 5.494994058821581 8.380063123243097
Cu 3.3515351142500176 3.4396924129712985 5.420564605061481
Cu 6.9473182521836385 5.392170104916577 4.221580023049934
Cu 6.904566047883663 3.4309284427446167 7.69510361724183
Cu 5.492457996142684 4.258432953189653 5.906605897628625
Cu 5.790265322059187 3.2574184673975872 3.664236767905303
Cu 3.8025537436768224 4.336955403193148 7.715074683029196
Cu 5.2432478299729945 3.4137205077800994 9.412911481866598
