22
Energy = -59.88116796 eV
Cu 8.74017331460992 7.240827462882739 8.444603789443502
Cu 7.261580181981883 5.0657472590125785 4.282096682134452
Cu 2.0443894285518276 3.2696548841403463 6.908642328965123
Cu 4.9844042895140515 3.8755183863085096 4.445860750511632
Cu 5.870480203502169 4.852523664790655 8.119214650064908
Cu 5.212273302678939 5.919761743374703 3.147223182544158
Cu 10.043255066365298 7.322873492908338 6.459008901274025
Cu 6.734892595146444 3.7132044074671446 6.181110545742878
Cu 6.420258797017076 7.71884547107925 4.272078283523194
Cu 8.755956547424907 7.007453318913072 4.457451212382935
Cu 7.432513949347173 6.559463388698034 2.421362942617526
Cu 3.984112864394357 6.858193549314105 7.45988945963298
Cu 5.321467177208816 8.486591748166235 6.250523792980151
Cu 5.688926635837325 5.979155907939849 5.959098799136614
Cu 7.777251430367263 8.200677869740524 6.33985366548531
Cu 6.357178935173057 7.206073100624964 8.070886058200427
Cu 3.4626554375174075 4.631965072426092 8.275169803672748
Cu 3.000419541166961 5.083485569223892 3.527824981993093
Cu 3.252913548280165 5.049590926790876 5.877912602576726
Cu 4.503479098238598 3.0969335309832804 6.7700694737932166
Cu 3.894898816945045 7.161288188057816 4.753519887679004
Cu 8.064156353640007 5.748388464672821 6.648818159560066
