26
Energy = -73.02184649 eV
Cu 9.764047283829784 8.998456757103414 6.4450793262929675
Cu 5.492788211058828 7.530960717865469 4.047025842768692
Cu 8.191874037657975 5.096784659134544 5.971518194058206
Cu 6.417948841010752 5.765557785593778 7.556265759425537
Cu 9.302526265653622 8.809398419515107 8.831851103650969
Cu 7.002355771490783 7.858621979276961 8.826150468038675
Cu 4.790939651482376 7.377345894683623 6.4348900520652
Cu 8.919575141966666 6.571229315991333 9.918118346809802
Cu 7.531632067918962 6.1039073449041545 3.74137095181019
Cu 8.226270527552119 10.391004406305116 5.152695321622635
Cu 6.563157507681643 5.61942696658303 9.987367305196507
Cu 9.030301035063184 6.8476641307512685 7.440877593278751
Cu 8.013870599817164 8.586027811358223 10.93999750810593
Cu 9.429943466815253 7.077151639058357 4.972839599070833
Cu 7.612563326565863 6.435020499323594 12.019633245037365
Cu 8.426870572011572 4.67249717799773 8.426708044323652
Cu 5.896872682916844 9.471013381754384 5.508288655614537
Cu 5.782385717781816 5.408911632963373 5.262004717062588
Cu 10.011264760084153 9.230256470996364 3.992633897263123
Cu 7.174773436079372 7.436518984439955 5.898641771918074
Cu 5.728241902855941 7.666873823227396 11.016229233878747
Cu 8.451425087919269 4.411679398411061 10.89712360691931
Cu 5.213324265922248 9.254555583677016 7.904772099472162
Cu 7.570121631045763 9.63800974045746 7.324206877341615
Cu 4.7439723255097626 7.017733083573433 8.891294482135448
Cu 7.7029552752752535 8.53343305910003 3.7373915658831884
