22
Energy = -60.08338917 eV
Cu 7.69157517184173 6.430434137828479 8.468247638336758
Cu 8.651413137088412 4.501535421975301 7.244455608597714
Cu 6.963455046382796 2.5660716131960486 6.9552784893293165
Cu 9.34046207673716 5.100507295396039 4.834550123634671
Cu 7.125562905169799 4.40179800119058 5.4149272308509655
Cu 8.19593672000108 6.715938916517998 6.135950083752816
Cu 7.3203947505955655 6.178505910192941 3.8244842934138497
Cu 6.22641541357013 4.6141581928983815 7.88349087995786
Cu 5.285018687367522 6.715710292297217 8.561913040249904
Cu 6.765499503304564 8.304370517640884 7.226547037583067
Cu 4.929338578308582 3.6221575599265927 5.949964693034153
Cu 7.071945751352095 8.440924170810852 4.817963047863606
Cu 3.817963286195296 4.95252422587014 7.7307656747612326
Cu 3.4007636794774396 7.1936338999158345 6.94346338424627
Cu 3.282170855870045 5.382592143000894 5.3790270723923115
Cu 5.542306730516081 6.319195670316263 5.942453356281195
Cu 5.167472819613879 4.912665239998935 3.8220370073604655
Cu 5.169882217594503 7.393056799482283 3.689603480864341
Cu 4.823508322025854 8.714562145404255 5.657053741008584
Cu 5.959048054256229 6.083074179647299 1.8407711485317961
Cu 3.3563579300554554 3.321188373296126 4.1561311412928195
Cu 4.594442090061642 9.003075625745984 8.082391541646663
