28
Energy = -79.63059742 eV
Cu 1.7119735984984858 5.398036851743191 5.377497015682256
Cu 2.362912680539562 4.497473723546918 3.1624717313863058
Cu 2.2822807308786857 2.9873945188612496 5.492670567964063
Cu 3.1852421304396645 6.801213059474904 3.858193869918587
Cu 3.702792322443631 6.75117357252948 6.300860444103117
Cu 3.0771249237934666 4.560695841230097 7.346369312739911
Cu 3.9554582252475714 2.6714578041290102 3.689067596207058
Cu 3.910557952558256 4.649787593854132 4.972757567507469
Cu 4.830223965616796 4.809446663891915 2.6318669782383783
Cu 4.834181529971165 6.344756460893074 8.548179688252684
Cu 4.719279002028687 2.568075840918349 6.117791527279476
Cu 4.794056377491597 8.742310404497937 7.602981189433471
Cu 4.951329465773715 8.583415361112971 5.042762600561206
Cu 5.4301758979526324 4.739488423664766 6.884010044204099
Cu 6.175197500798258 3.7444570013742267 4.458370561282433
Cu 6.949049368734982 7.92431264957106 8.720947963076094
Cu 6.12301858879267 7.138191438315471 6.629257695844014
Cu 5.505989255559748 6.382262321531146 4.31881257370399
Cu 7.3686514858095284 5.550897650336693 8.162629917962672
Cu 7.457646936234305 5.514703982396048 5.622893615053064
Cu 7.016624275620851 9.34295242269084 6.499639595336617
Cu 7.334767292571291 3.3181502529745686 6.6875299756364095
Cu 7.42696307279633 5.551184222278646 3.17855100912219
Cu 7.47591585607888 7.834158704661639 4.593463583714725
Cu 8.608666290661853 7.380137370544218 6.855723885674553
Cu 8.77003173568095 3.9074755326132897 4.631790692700257
Cu 9.401664843673295 4.958813437406266 6.886630100206161
Cu 9.46929143109366 6.369295910077789 4.671281743235476
