24
Energy = -66.83871032 eV
Cu 9.661953728685292 5.395487575844359 8.420487507844108
Cu 8.436709265244607 7.197989800658474 7.197760760385337
Cu 7.197518818771194 9.041190071247136 5.876827170665835
Cu 9.661740364608528 9.000716553385303 8.420245780241496
Cu 7.197608467685507 5.354338599168703 5.877075962471713
Cu 8.403417034453723 3.6725777006910802 7.197082604216815
Cu 9.661694214771833 8.998729468230609 5.974893582892355
Cu 9.661956365413937 5.397144370735599 5.9751163477551685
Cu 7.198131754191093 9.042376190876922 8.51793829328203
Cu 7.198229795233323 5.353560590459077 8.518118505401706
Cu 8.426629170988864 7.197766698925676 4.715064132413086
Cu 10.827312773827055 7.198067770824238 7.20008447278907
Cu 5.959026035520784 7.197759656998593 7.198084251036119
Cu 8.427797912565081 7.198158955482493 9.678758831412162
Cu 5.969200467648422 7.1979573186344625 9.679383251449243
Cu 4.734231292530947 9.000147123689665 8.421155279550996
Cu 4.734515000879212 5.395383385450354 8.42133671923404
Cu 8.402908271336669 10.72322488195846 7.196725428729579
Cu 5.9679478229114915 7.1975909641948075 4.715591725398786
Cu 5.992212028018816 10.723113919357836 7.197079334817159
Cu 4.733254811637557 8.998506338290497 5.975728629749547
Cu 3.568402825832955 7.197638764193588 7.200725338233775
Cu 4.733498156543997 5.396698931522309 5.975944959374463
Cu 5.9927441560701915 3.672515081951167 7.197431577325379
