27
Energy = -75.68077369 eV
Cu 6.337192908729306 10.329976936259106 6.640000787005953
Cu 7.9285477287740855 10.482781859623918 4.7976534763269445
Cu 5.578348556037234 10.085142114371196 4.358529074979874
Cu 8.620573862061688 9.633153313275054 7.004130146576561
Cu 6.49022708632562 8.710613164861227 8.447471086368402
Cu 9.010543913957648 8.469496755818446 9.03702284754423
Cu 7.356155086388074 8.235963846797178 10.738777126977258
Cu 4.697097196513187 8.617558540991391 6.190456672034747
Cu 7.240021832631285 8.374382366664177 3.6640671911724314
Cu 9.34199528972874 8.550643002965465 4.894923546743235
Cu 4.774178294306235 7.91944737894053 3.839076629053364
Cu 9.537035641717074 7.306786343903922 6.954069577373911
Cu 9.780018906098132 7.600046608294509 11.104146552469759
Cu 7.547283079859452 6.470908724523302 8.272321213749851
Cu 6.362030535328105 6.150954505157627 4.03541813548433
Cu 8.062882701613773 5.922940675731151 10.863442483374715
Cu 4.431392753060456 6.182363577450933 5.486375271861629
Cu 8.598668182684216 6.23103673283937 4.930397271926867
Cu 9.81337789918841 6.056440337602652 9.135527452841435
Cu 5.814972858041214 6.538284118700289 10.023112209457384
Cu 5.170635909510359 6.786261119172869 7.667891979160261
Cu 7.076612590343203 7.847903594849025 6.115338559746825
Cu 6.6728219923123095 5.288880614684289 6.277050521650931
Cu 9.083483914754975 4.934113266800232 6.9785743931072295
Cu 6.3376333625589 4.228972335097059 10.751744415529178
Cu 8.143961949908647 4.2087894410709765 9.10587429219753
Cu 5.767478723357376 4.561439480635589 8.441662483316167
