27
Energy = -76.37291052 eV
Cu 1.9119893385111617 5.4139555223758125 3.5869294078157274
Cu 3.8052285019631777 4.542804143861106 2.448378013940205
Cu 3.1432911792290725 3.5647572399020895 4.650493877762086
Cu 1.7349565880301838 5.137271598595434 5.989636878071959
Cu 2.1532871171679955 7.340432923776978 4.983392127654635
Cu 3.8450802874614567 6.8980972898603286 3.147787615446671
Cu 5.619651589858015 4.178712338355633 4.069917052652463
Cu 4.1176504236567455 5.737597790069713 5.298773995008679
Cu 3.6752130208032545 4.088674851556493 7.073638470622104
Cu 5.88969238194615 5.710023404467783 2.1645020727978457
Cu 3.156657397830293 6.738305775095795 7.230795630551774
Cu 5.0526455958611365 2.552375888006183 5.764559775778084
Cu 4.34071081236518 8.286685823160308 5.2195811870600775
Cu 6.1133668904961755 6.850889821588816 4.298110404448847
Cu 7.787346013641838 5.183590114801362 3.6245099339947666
Cu 7.437645650899752 3.0137724303287063 5.430181214103972
Cu 4.842164950386061 5.565155165470684 8.574624436103083
Cu 6.067456233850069 3.6364569410514553 7.669149648133142
Cu 6.711034696834891 8.865231949311925 5.54100907684456
Cu 6.941343729265934 5.248287510071931 6.034981957061818
Cu 5.637637298876449 7.154069415528008 6.92799609248815
Cu 9.357512383508768 4.684298095248929 5.36485481652437
Cu 8.452415285705055 7.035088724163656 5.222409578503028
Cu 8.5066630298013 3.838714927707923 7.506111868508985
Cu 7.244990155006936 5.766420079412167 8.442214465524518
Cu 7.913874749466206 7.959632353142812 7.427377582005664
Cu 9.389539749609293 6.097275493294308 7.3059973148479065
