26
Energy = -72.23510604 eV
Cu 4.800711229573731 8.790688866663476 5.576842026465312
Cu 6.662625825927756 10.171388131909916 6.391661661068249
Cu 7.066540370945647 7.86789592910081 5.78541957555495
Cu 9.061394211363298 6.560306369735876 6.290562596757391
Cu 5.710006389542167 8.540641959093849 7.856712978293488
Cu 4.776196087886398 6.532329762744614 6.6177463159483105
Cu 5.60022239223759 6.894140107401037 4.139476236263195
Cu 3.2743526441400532 7.174154212005039 4.62666687039795
Cu 8.334628839305406 8.732864994796788 7.6468784678278
Cu 9.600629536905101 6.849692173579788 8.575440900056693
Cu 7.936210042757203 6.242124390889454 4.049063912001408
Cu 4.883242157310811 6.616757742642675 9.072537636454367
Cu 7.214268126627608 6.6575270133801485 8.224021346191034
Cu 4.55819745204665 4.563824517259601 10.237743594426506
Cu 1.946452598104878 5.481526317599213 3.5874308692485393
Cu 8.89762067779206 4.298568487519856 5.221559705463233
Cu 8.642207196780445 4.67035305054617 7.773909279633736
Cu 6.382341456164943 5.49183810969523 2.2859389759751183
Cu 3.6566080266897214 4.751565427849249 8.025437600298654
Cu 6.079946284750438 4.502429564222897 8.327265670181271
Cu 4.279332060690906 4.905473976129406 3.7919038925345285
Cu 8.506068060866744 4.300667224224256 2.7588914525346904
Cu 6.927317202537203 5.306545064627511 6.1735994119731785
Cu 2.782361520511095 5.125907307046408 5.818223983055622
Cu 6.548350881911088 4.020898255510368 4.161109866168353
Cu 4.930916474694903 4.0086387918895054 6.042702923289803
