29
Energy = -82.01259425 eV
Cu 8.957772744196175 5.1177712794133425 2.970783260779975
Cu 8.243840679057696 4.446481151919715 5.218154380995921
Cu 8.514328642816375 6.016375873950915 7.1308300505473765
Cu 6.353809227185965 2.68069956633213 5.236599390119739
Cu 7.874780481177722 8.316980659714613 6.500081666600019
Cu 8.843013970010512 6.861044564930822 4.753676394695792
Cu 6.720157732104864 4.1692273606549115 3.3664512300632072
Cu 7.06200505115596 6.550376128438932 3.0752788637691357
Cu 6.703162618058846 8.562762695207345 4.349242233270569
Cu 5.775575970395058 1.8189114628998555 7.41594997168914
Cu 6.796367016239853 4.171849540012361 7.1652286307641795
Cu 6.548173955004042 10.252139005352895 6.069101139361897
Cu 6.674574570156234 6.362092306635272 5.693529979939238
Cu 5.450203774416081 8.010778508679202 2.155046796917824
Cu 5.2419021854514005 8.260104748784206 6.4279597429519715
Cu 5.253964662163956 6.04837509186669 7.671515464029815
Cu 4.97842350828323 4.721543612503129 5.373319091578683
Cu 4.477986314440403 3.2687089714302324 3.5049707197426465
Cu 4.46508220693075 3.741665947760705 7.723322341167063
Cu 4.906424232299892 5.5002323236325426 2.3371521864707914
Cu 4.754489080204355 7.022183120300046 4.209680779670056
Cu 3.583270970710195 7.704494904286043 8.177623106942582
Cu 3.3832695270048325 6.525442390135673 6.1039669626799995
Cu 3.970133012192102 2.229942322021209 5.77417484902549
Cu 2.7941488847445064 5.380301805099173 8.20892057764569
Cu 2.4993916682872235 4.220736472688715 6.092695824968272
Cu 3.022021931937567 5.222244269664964 3.934143877757561
Cu 2.4603074292179343 2.4918118147059523 7.716380849143013
Cu 2.2038368768206213 2.8371410236423302 4.1566385593770505
