23
Energy = -63.33522602 eV
Cu 7.133282645005791 7.378346289165636 10.815109126452581
Cu 4.784790756518518 6.7456500705613704 10.201603424861368
Cu 8.14118968122548 9.309694532485954 4.136470381187866
Cu 5.67007826581417 9.720007228669864 7.581303669142236
Cu 5.913543490319233 9.9018049580279 5.158108129188926
Cu 7.4985503543351895 8.616652825920006 6.369803463700603
Cu 4.937854263878594 5.574870366737577 7.856164888557031
Cu 6.681900505354818 6.0225482038075695 6.05807675259752
Cu 6.364783243641517 7.669826031199952 4.247161996652169
Cu 6.539036210939886 5.156036412999672 10.024105239738587
Cu 6.523431012638478 7.169332728232663 8.359241789272795
Cu 8.761754445664684 6.123828810638102 9.604413428763012
Cu 5.7227305613855375 9.046936053834942 9.871386975192564
Cu 8.635536372491105 6.896775589728319 4.635196080706371
Cu 4.03814317845224 8.082485103466183 8.406679196404532
Cu 8.831304906660765 4.810260540148662 5.852230652891342
Cu 8.930979969862843 6.937953692146155 7.295546793132581
Cu 5.00259969867665 7.791661074737604 6.249475513995274
Cu 10.13646892383405 4.996523861523517 7.921421549144804
Cu 9.912708365155373 8.590218495185436 5.672200759156388
Cu 7.608006870410335 4.7600764881574165 7.944602804801072
Cu 8.094458356512122 8.79286270307014 8.858798392300818
Cu 10.761353768206241 6.29345934556609 5.848217322161179
