26
Energy = -72.47813291 eV
Cu 7.686265688929698 1.4683623446611849 7.67512330022193
Cu 2.794173211947471 6.974358328851339 4.302482349251955
Cu 5.456743829324185 7.00918874220214 3.7952039398408406
Cu 2.4055414187219917 4.622313643793409 5.1643699493636355
Cu 8.688402363616788 4.494504384125666 4.187732976885053
Cu 4.17103553671173 8.969573242782625 3.5451002252805703
Cu 5.949853622496409 4.801360854705166 7.254223802516157
Cu 7.910604638257324 6.90388491493482 4.4559720203517585
Cu 2.945106421728213 2.984471036866201 3.5135658448152163
Cu 4.6638717672707335 3.3711248064914647 5.343388428448216
Cu 3.600728819329159 4.204106900431835 7.437033528269055
Cu 7.439227794244166 6.315573156356227 8.43442534174899
Cu 3.629318211234415 6.936946455006072 2.0951224363573226
Cu 1.952461140805263 5.191372526903708 2.7722313819386506
Cu 4.303744723264091 8.27579235085065 5.888513142800268
Cu 6.436169104327182 8.94647287111328 4.743973144040093
Cu 8.276455781253315 5.372411406832435 6.380123036140059
Cu 7.846965949822648 3.790219443080519 8.26666219570096
Cu 6.406222025090679 7.153176596661001 6.37110879848694
Cu 5.5385351916260275 2.477288071080067 7.464679353345253
Cu 4.25464795216772 4.9511043599582685 3.424609689304835
Cu 7.28409114944969 3.1244014001250204 5.901449950722929
Cu 6.39523245056878 4.95904590965981 4.6195428767198425
Cu 4.728341647112418 6.772559846408437 8.066828457265402
Cu 4.307676499501386 5.8768012695520015 5.855593363590803
Cu 8.646492977068766 7.771495052437342 6.7588503824640735
