25
Energy = -70.15432921 eV
Cu 2.9932806785954695 4.732122860102248 2.7902597410845775
Cu 4.575953460932913 6.291559478303069 3.8585199053894637
Cu 5.370462634718309 4.337373729885602 2.5446165387067685
Cu 2.4290087356079644 5.691013841295312 4.9600507206302344
Cu 6.236853307965186 7.663330030685518 5.075098757010587
Cu 6.945973202968045 6.054739471147077 3.3045435743495895
Cu 3.9462286136745424 7.248338631829938 6.106289483207643
Cu 1.8425514248189487 6.626846002034523 7.1680332109215925
Cu 7.701779830771688 4.0019936519996495 2.159239315460743
Cu 9.144173340220295 5.158520438728468 3.6517047751880933
Cu 8.55859448391047 7.638166228922819 4.202244614317817
Cu 4.2567008566496485 3.997470285143894 4.6968064716727005
Cu 6.907526917493998 3.900146449118776 4.557045579617671
Cu 3.8575706451415908 6.749132944272854 8.523388319354178
Cu 5.742278422662346 5.489479562737318 6.100728105668105
Cu 3.506514339371544 4.843326857603524 7.002165362924939
Cu 8.106380708360533 8.116628797240017 6.619680791393024
Cu 8.15724580979618 5.847522235693589 5.705321127381704
Cu 5.300123678471339 3.130025980747482 6.657955576793155
Cu 5.833492810000149 7.817285526933241 7.532601250235283
Cu 7.485705189097303 3.9509571411172892 7.039004764894538
Cu 7.676122600065411 8.373453571579148 9.03342265107687
Cu 5.541066298664284 4.835508099741194 8.48017734396635
Cu 7.582496375308811 6.148828133804078 8.101543273778903
Cu 5.9146884693447905 6.913445196271627 9.792526280879331
