25
Energy = -69.84104486 eV
Cu 8.242991564735469 7.286446739452777 9.13353609848294
Cu 6.220747884707719 6.0411807966393996 8.69882754312607
Cu 8.867273976667118 8.607499641695933 7.194575623018057
Cu 6.5483031865814585 8.338007520788468 7.751258013857644
Cu 4.354274197709743 7.584457117223117 8.219838239122296
Cu 4.0806669257910135 5.087393736611909 7.758380576854324
Cu 6.371850164705629 4.210684118380641 7.08268708855302
Cu 7.9771114446437 6.301624760342742 6.876127918836576
Cu 4.382941184576366 2.9473316358578807 6.614149698618014
Cu 5.506242976204834 6.401875101935981 6.2926048901751
Cu 7.2584738368560195 8.329988528780762 5.443455137182187
Cu 2.959982702539052 6.876947838859257 6.404137954382954
Cu 8.20376480753879 4.209536730382375 5.581587917133721
Cu 4.773020503343824 8.556086868000639 5.7189940568919715
Cu 7.20169192433543 6.129051282585739 4.453844030070758
Cu 6.375702088391922 2.4660062293568674 5.122600274412065
Cu 5.883960042544273 7.932698704342484 3.4839467090102034
Cu 5.250173857624335 4.468287974638426 4.72392646736438
Cu 2.952144638921646 4.61538615410501 5.513003879658557
Cu 7.331022443034128 3.987281993468472 3.3435508118296045
Cu 3.7082840879346017 2.5041536596502425 4.362051364593366
Cu 4.021878314544126 6.627143632439298 4.252320331683217
Cu 5.589984463389657 5.622275153267683 2.590254543125161
Cu 5.253658697644045 3.075120574215762 2.5933645711702473
Cu 3.3779258859972985 4.557560490533632 3.044699074828786
