27
Energy = -75.82329626 eV
Cu 10.910866604753727 5.975430324648149 7.950830395511025
Cu 7.691227159519223 8.308339785455297 8.617904633563523
Cu 8.768460781251248 6.699868647383788 6.962050265133864
Cu 10.308615128166025 4.6104510372746885 9.977864698321847
Cu 6.615746624013027 5.94437572200296 8.364405323368073
Cu 10.186542443573934 8.057292734673233 5.484115952277534
Cu 4.9851525243244 5.284946241515966 6.4107361791976425
Cu 8.160025688344197 6.961944127075163 4.636810990187517
Cu 7.3430811967008385 4.969083587689042 6.094856950740561
Cu 3.7889199997962115 9.653244215688682 8.068748483964677
Cu 6.105645425644016 9.70017293202288 7.46960953985002
Cu 9.132459913801412 6.016555913103058 11.75851932619812
Cu 6.590165715490005 10.464829458823134 5.153550706237812
Cu 7.088216792414265 6.985990661082673 10.645641025793644
Cu 4.509655884693906 9.29716628145125 5.715308180920376
Cu 9.224111047836 6.659374157619158 9.486477932901527
Cu 7.84639468658243 4.689964054618466 10.212884413671826
Cu 4.156475965211818 7.392973281331591 7.3191440113291995
Cu 8.238994077221468 9.147484319287676 6.402973258731501
Cu 6.153568208404396 8.329099878050725 4.045585057574056
Cu 8.439124123445204 9.302859199020991 4.016693674584963
Cu 10.100202832881314 8.404697904434622 7.9488022260346805
Cu 6.35686833356989 7.332990202665864 6.3273905946500095
Cu 8.802231940686738 4.508312300088358 8.04918787685019
Cu 5.390859407245956 8.103218610793974 9.251532371582698
Cu 6.067463201008948 5.79416811330027 4.204754023144372
Cu 4.182959613797456 7.067688799214683 4.871425556002318
