20
Energy = -55.06706326 eV
Cu 6.208032440103149 7.927163125814149 2.9477597164649225
Cu 8.036583792452623 6.672952435951735 4.01566971576544
Cu 7.3593233851641155 4.510680343289902 5.210941258729207
Cu 5.688101560531246 6.226351964977632 4.6274305164891505
Cu 4.326826740687858 8.168439048202433 4.616883022035333
Cu 3.660442785858749 6.077570569958251 6.014266978677839
Cu 9.533594896801663 5.579740250479899 5.838293348412378
Cu 6.7628234660012625 8.635269534089764 5.122972211324587
Cu 4.860850882654589 3.9529525808583537 5.221353012457009
Cu 7.51790500689542 6.695885119287642 6.330228152380269
Cu 5.261190955335675 7.730779809769943 6.824328918617785
Cu 7.385169773682764 8.76925646856732 7.522113802798224
Cu 5.6105448770132345 5.091013158988764 7.101761785743171
Cu 6.462804659214176 2.860911987484149 6.747100435674928
Cu 9.086913737509766 6.873099823990315 8.092558028300187
Cu 8.003341425721809 4.634359666641397 7.587854622095183
Cu 5.490741635629895 8.46973433456932 9.156940824083858
Cu 4.156054338894172 6.421443749911642 8.497822579453329
Cu 6.701319053040099 6.465717882143063 8.715840299820728
Cu 7.882243684172547 8.23148724238971 9.8026898680413
