21
Energy = -56.07688532 eV
Cu 6.8760785571687135 6.8760785571687135 6.8760785571687135
Cu 6.8760785571687135 5.4174496496275575 8.86422632909278
Cu 6.8760785571687135 8.334707464709869 8.86422632909278
Cu 6.8760785571687135 8.334707464709869 4.887930785244653
Cu 6.8760785571687135 5.4174496496275575 4.887930785244653
Cu 4.83213626800898 6.8760785571687135 8.235478333313816
Cu 8.920020846328446 6.8760785571687135 8.235478333313816
Cu 4.83213626800898 6.8760785571687135 5.516678781023615
Cu 8.920020846328446 6.8760785571687135 5.516678781023615
Cu 5.4866479698226565 8.91840067687861 6.8760785571687135
Cu 5.4866479698226565 4.833756437458819 6.8760785571687135
Cu 8.265509144514773 8.91840067687861 6.8760785571687135
Cu 8.265509144514773 4.833756437458819 6.8760785571687135
Cu 4.61526111433743 4.664313953804177 4.653841545613052
Cu 9.136896000000002 4.664313953804177 4.653841545613052
Cu 4.61526111433743 9.08784316053325 9.09831556872438
Cu 9.136896000000002 9.08784316053325 9.09831556872438
Cu 4.61526111433743 9.08784316053325 4.653841545613052
Cu 9.136896000000002 9.08784316053325 4.653841545613052
Cu 4.61526111433743 4.664313953804177 9.09831556872438
Cu 9.136896000000002 4.664313953804177 9.09831556872438
