27
Energy = -75.38404722 eV
Cu 5.450452050235023 5.027381968091784 9.974101356838462
Cu 6.758578741667241 4.752980436696715 7.9120212147378846
Cu 6.451224062233569 11.07039947557622 5.632614494675914
Cu 6.146355261535369 8.81990587359526 4.81270202656544
Cu 6.640498811096533 3.8946600183421687 3.8906682743132963
Cu 8.724250864845446 6.443313350620245 8.13108307853394
Cu 8.163014223046511 11.210043958304805 7.352597474194815
Cu 8.142522313902663 5.575092514506201 4.789097221925192
Cu 5.918286408224433 10.598200091848405 7.903449690992623
Cu 4.417358270176227 7.300803498966057 5.65096073419607
Cu 8.904956854110004 3.7662172280532804 8.292773881905331
Cu 8.117356506382409 7.837748782730616 3.9164888376446125
Cu 6.89848518712743 3.0386801131121106 9.586775037451057
Cu 8.438692495864183 9.689761379998366 5.458238444320287
Cu 6.780258761937472 6.931324783807227 6.470597807673927
Cu 7.768297301979325 3.530706976866122 6.071376536647179
Cu 6.049182217537811 6.474389172468134 3.9596837154272952
Cu 5.039658253675133 8.405726868457467 7.782424764808134
Cu 7.91423403970088 5.180122291011753 10.044647616002122
Cu 9.2472081669548 7.462862097511772 6.019224399256488
Cu 6.596313835470711 7.078899901561775 9.08259757288234
Cu 4.666981065820681 5.984798522620175 7.738729014275895
Cu 7.752054128213081 8.828271306337351 7.677744834531582
Cu 9.771021755614196 5.067156264995172 6.476495662095068
Cu 4.292855271098369 7.187320222044449 9.778228420649043
Cu 5.607580485437408 4.897780320720993 5.752900748289883
Cu 4.365624376117902 9.875445508828651 6.0287278046824
