27
Energy = -75.25268627 eV
Cu 7.231876559923562 7.371731500183493 6.523105968515222
Cu 8.414757516307203 5.989062945464335 4.8158660493304195
Cu 9.054438802191397 5.838522396321967 9.88363518158135
Cu 8.390168408403426 2.811812901429565 7.2697048809439035
Cu 8.08174595636302 3.6322796363526755 9.584524097117502
Cu 6.749346346196034 9.142806443618612 4.941229044413481
Cu 8.696675800099985 9.339213071010237 7.033803489271614
Cu 3.7866368158567782 9.247634667496742 7.755161760908783
Cu 5.503658756590409 5.666773067094427 7.031141022224589
Cu 5.085847086513333 11.302497510747004 8.061238801460078
Cu 4.850398534537882 7.890871035281254 6.097415653899509
Cu 6.780163191524582 9.681522482511241 8.466092254877074
Cu 8.009000898456021 5.216562292077396 7.651278770303556
Cu 4.837449115275615 9.604821455284817 9.862727985752182
Cu 9.645699221797303 4.376191292985984 5.945226069193384
Cu 5.469925443583148 7.595773429930258 8.545453875050205
Cu 4.778732889072754 10.304245011806819 5.831037764833183
Cu 10.150282398617838 4.348792099938769 8.313116327054018
Cu 9.632865347928531 6.86126494164522 6.969827877605292
Cu 7.000063510165249 4.1416159051999974 5.645185571342168
Cu 8.004175802544722 7.645915888350537 8.796265010004857
Cu 6.535010984857124 5.639392732844579 9.488114365498937
Cu 6.033030902270821 6.256213754707194 4.712274145680567
Cu 6.202752877478935 3.577529704036385 8.011581418834597
Cu 9.072246888925303 8.248648684233373 4.940089208089678
Cu 6.983816419667338 11.08984697129684 6.522333207026865
Cu 8.694927882842428 10.635462008511631 4.905780505777736
