29
Energy = -82.82057942 eV
Cu 6.734230153685274 6.736049099696461 4.7966269336184375
Cu 7.9870603906953335 8.880429980438997 8.047459922432783
Cu 6.734230153685274 6.736049099696461 8.675471265774492
Cu 4.263850595297146 6.736049099696461 8.039145095587523
Cu 3.9250191616959538 8.938075519471045 6.736049099696461
Cu 6.24810132465016 10.292658669587091 6.736049099696461
Cu 5.467411164107438 8.833734312762765 8.938121801988233
Cu 7.489674697933195 5.4357409820263936 3.0297314164754
Cu 9.168365233043975 6.736049099696461 4.525055900256023
Cu 7.9870603906953335 4.591668218953927 5.42463827696029
Cu 5.467411164107438 4.6383638866301595 4.533976397404692
Cu 5.274851203010093 6.736049099696461 3.0009230593929193
Cu 7.489674697933195 8.036357217366533 3.0297314164754
Cu 7.9870603906953335 8.880429980438997 5.42463827696029
Cu 8.184549417230196 6.736049099696461 6.736049099696461
Cu 6.030246362917221 5.481578964165092 6.736049099696461
Cu 4.263850595297146 6.736049099696461 5.432953103805553
Cu 5.467411164107438 8.833734312762765 4.533976397404692
Cu 6.030246362917221 7.990519235227832 6.736049099696461
Cu 5.467411164107438 4.6383638866301595 8.938121801988233
Cu 7.9870603906953335 4.591668218953927 8.047459922432783
Cu 3.9250191616959538 4.534022679921874 6.736049099696461
Cu 6.24810132465016 3.1794395298058302 6.736049099696461
Cu 10.047480698042834 8.118860473108999 6.736049099696461
Cu 10.047480698042834 5.353237726283921 6.736049099696461
Cu 9.168365233043975 6.736049099696461 8.947042299136903
Cu 7.489674697933195 8.036357217366533 10.44236678291752
Cu 7.489674697933195 5.4357409820263936 10.44236678291752
Cu 5.274851203010093 6.736049099696461 10.471175139999998
