25
Energy = -69.36642664 eV
Cu 4.801931356677534 9.360194505116555 2.8370255966961806
Cu 5.270308315245817 9.351910471403013 5.214621163299881
Cu 4.60349725567214 7.295261828680539 3.9982951226921966
Cu 6.919852361099212 8.339916400493765 3.415731613473529
Cu 4.911545683110448 5.344477488950011 5.465630443718382
Cu 6.181184868963437 8.739480963283972 7.516874562934154
Cu 4.13828034345069 7.429232325430088 6.531084771146865
Cu 6.733017819728713 5.8413145748580275 3.68254418402934
Cu 7.7950809823401634 9.261899172562794 5.584933420636859
Cu 6.440774752328545 7.288308590489698 5.589284173859423
Cu 8.680800126819443 7.088207007372868 4.661234445843379
Cu 9.791212024654417 5.709498151700537 6.362385174555892
Cu 7.6451852959220945 5.287691845326981 10.705087295440435
Cu 5.316253845417071 5.854418658349034 10.255641633227672
Cu 6.379913772740812 4.145794671127983 8.982782352025454
Cu 8.487735595382075 5.377872421754858 8.46247576763628
Cu 5.5087435228739485 3.5516782879469466 6.84893352605114
Cu 4.451611258613876 7.640265538425167 8.912526250407742
Cu 4.046019472310854 5.234694804694038 8.021335217600802
Cu 7.490152665926362 4.996312933462839 6.191966072341434
Cu 7.1896803841471915 7.412735776307548 9.489857571688844
Cu 6.126759625893119 6.225886454859083 7.759227107773297
Cu 8.320497805318142 7.472196812839122 7.218332419395784
Cu 8.821541378339418 4.677057926886867 4.222432979211076
Cu 6.450296307106532 3.5755692077598598 4.571633954396748
