20
Energy = -54.08759233 eV
Cu 8.773811079192246 5.732752098819092 7.159336374169546
Cu 4.694467028993458 5.31516026446614 8.117496227311662
Cu 3.392001434620512 8.44035658516402 4.961115215892556
Cu 4.168917703128181 4.151272151145368 5.908628655976397
Cu 5.886879750899197 5.214782404381817 4.3493688055023325
Cu 7.186707872884533 9.1776317161426 5.50014346817949
Cu 8.81697793398766 8.090631475992701 6.865873188066706
Cu 6.422581615795861 7.056252105032454 7.578948273637118
Cu 9.34801883038418 4.864313852987561 9.338548779290514
Cu 6.389881565045268 4.662478786905761 6.627163260170848
Cu 5.646610554113132 7.733295162974891 4.283108545310773
Cu 7.0573337275836785 9.278812407768733 8.056254334479252
Cu 8.178179916633578 4.298460766192974 5.19854518439438
Cu 4.488895966800005 6.498405336168421 6.017273316595492
Cu 8.312437466404642 7.229741036405877 9.106450701276618
Cu 5.083699491232468 8.830807761307526 6.599737093543888
Cu 5.106012514730602 10.085435689143637 4.485321762192228
Cu 7.620535988376764 6.711528700435213 5.225077265923834
Cu 8.366771686662988 3.4551410090206116 7.606972961837537
Cu 7.013511021720135 5.1269738387334245 8.968869735437954
