25
Energy = -68.57942761 eV
Cu 6.601715272374539 5.160975041235195 1.8916035248128364
Cu 2.909815651443437 5.426049876810606 2.7017837934704234
Cu 4.882154091921548 3.926341882854379 3.1320295856951432
Cu 3.669426706610668 2.1377383741507487 4.237597651896163
Cu 7.209396238784718 3.7919835413167817 3.940220678634193
Cu 7.373762013840227 6.168815708251681 3.9194917918666645
Cu 4.389848700782916 8.767179111474508 4.023808008156798
Cu 5.0219821978194075 6.441413658992102 3.21502016004027
Cu 6.585048156388489 8.265970374266447 3.169011752929328
Cu 3.163788779163213 4.39382208612534 4.806783510539758
Cu 3.2888916792369924 6.802761622746931 4.902277930344321
Cu 6.0250598309882415 1.7326718532095948 3.4818896374693833
Cu 5.837849440769634 7.514577667903192 5.561061263235789
Cu 5.5847575951921025 5.12661285996985 5.483668470746669
Cu 3.849844794176965 8.752484553198373 6.363600335913258
Cu 7.852673897311862 3.468449584771478 6.215580345639762
Cu 5.555565930645243 2.7257096304271173 5.621194163079613
Cu 7.864324725593819 5.858961511771656 6.167791114877054
Cu 3.8397258247098947 3.9630526464692766 7.02278797668749
Cu 4.107328166898967 6.4730322737365995 7.151949957057588
Cu 1.9908521242303567 5.534380433858064 6.595781154931385
Cu 6.1053093006648345 3.9543113059733512 7.7636067687214885
Cu 8.270601581335471 4.867768117989179 8.317159719727625
Cu 6.333269808880463 6.363781370404202 7.94494593622159
Cu 4.436020089889994 5.130167511747338 9.118367366959907
