26
Energy = -71.71706482 eV
Cu 1.8589898849911204 5.8566330085636 8.744304875463019
Cu 6.599918355797576 5.477398416424984 8.251120458360809
Cu 5.211690313732545 4.0222812159414865 6.844278126121614
Cu 2.9512222108871677 5.191500529567154 6.661089776077308
Cu 8.739451404346884 9.5509464572895 9.923571310327585
Cu 5.177504074738384 8.826347181020527 6.737552199466026
Cu 7.831895308454459 3.9109574148525303 6.890677783608738
Cu 6.623980967617741 5.199954434715172 5.290083843620248
Cu 10.552213559023418 7.638999267059702 8.944049669894476
Cu 8.925390044448966 5.700748836614727 5.583022530663275
Cu 4.2039357031251665 5.385798679125802 8.710031635044821
Cu 5.365114535567755 7.5205223470072164 8.811205498760085
Cu 8.454326515741197 11.179480230000046 8.043179044836151
Cu 9.822215616456296 10.469472101009778 6.126372724442047
Cu 7.73666126675218 7.400443558598952 9.413163252180205
Cu 7.367446782603744 9.834461694755026 6.170313113742395
Cu 4.948586999900724 6.4283977693370975 6.44546810573575
Cu 10.932413803459363 6.422526860994942 6.6981447570981265
Cu 6.689300209687403 9.51874728826302 8.54838752143349
Cu 3.1874266424876256 7.503675224216642 7.601125053706735
Cu 9.433364800102796 8.070953095750808 5.408969691595413
Cu 11.366237675615194 8.741767339805232 6.82312475725587
Cu 8.990299992390012 5.913140685966297 7.99423366201522
Cu 7.2219390217569375 7.367515144349591 6.496184316829246
Cu 10.653742327480904 10.216957223838607 8.574774285422784
Cu 8.931674504877769 8.746145274160476 7.657546790139567
