22
Energy = -60.52817679 eV
Cu 7.233570412743666 4.271249757906421 3.12483348700931
Cu 7.65348807357764 6.972678930148136 3.4491136884157916
Cu 8.930689722207102 5.540488389846765 4.853237838731793
Cu 5.464935858725715 6.335917051253683 2.8300848520501876
Cu 7.997242625670844 3.5068416498855384 5.6429369287478925
Cu 4.52989443711415 4.293196466806675 3.591110273885272
Cu 5.8131366177495725 2.878957808855993 5.0095092394623295
Cu 6.3933650808714235 5.367581700488197 4.9913590281051246
Cu 7.7875821904618245 7.4984244538867735 5.8568802697811755
Cu 7.991648659782685 5.470508897769062 7.1452960275140525
Cu 5.748311074961492 7.993911224057048 4.64511373796156
Cu 6.102992680411776 8.996854178975324 6.874666995795002
Cu 7.3745946218652945 7.579378241363504 8.295213834634488
Cu 6.15625454239565 3.8898010146297097 7.2545468950742915
Cu 5.5198771328777045 6.508709914034092 6.900335839735698
Cu 3.918684787242899 6.406538484429222 4.749159878860396
Cu 4.129951031613667 4.385587125586602 6.03897985042756
Cu 3.913416154601011 8.372369271403436 6.252606276496548
Cu 4.682806138117454 7.604784546244692 8.765713595233084
Cu 6.441477418082283 5.54626617927393 9.075262203425197
Cu 4.2532358255028315 4.919958606125824 8.45650400745828
Cu 2.98295265591747 6.342420759409737 7.044689498087939
