29
Energy = -81.58301844 eV
Cu 7.9181242379403 5.722246709591137 2.740932518267454
Cu 5.556350066995866 8.092198942350967 10.160545380946797
Cu 8.92947381645658 3.9786307990737257 6.288418389453953
Cu 7.783667924052704 8.614882500467555 6.6621767788017925
Cu 6.992385303487914 4.79784559475732 7.7010560809065725
Cu 3.9450732901080943 2.7864879385852657 5.7046615436586725
Cu 3.3348102058342413 6.545740269784558 7.117513781679051
Cu 9.601002571908221 5.68970916555959 4.4769327156133585
Cu 3.830960103962704 7.23434105766749 4.922474184243192
Cu 6.442744478418107 3.1603567625766202 5.916757359350415
Cu 5.175203420583892 6.136526745683885 8.836337404653564
Cu 10.06141444764571 7.871436936772465 5.66467039073189
Cu 5.697935335666071 8.776554247322796 5.255997517702073
Cu 2.640413861742136 4.916223114550349 5.45502077243646
Cu 3.3947778540877547 7.92911699315218 9.029138223456679
Cu 7.910161082629489 7.574425969340044 4.512530296077496
Cu 8.44126686748604 3.4844391168078293 3.946595382651219
Cu 7.2621429475107835 5.188598226037554 4.962384761159335
Cu 7.326631112715635 7.155246298110294 8.628326481784912
Cu 3.379604869967265 8.910605231638822 6.625343940701875
Cu 2.957108709301252 5.339070982211239 9.102296248977579
Cu 5.457323757458736 8.572763300363667 7.775876269269625
Cu 4.551309357587685 4.414633417097752 7.28092763107818
Cu 3.5897123108002886 5.778911371045341 3.1139770709433074
Cu 6.022353842250231 6.664740361228859 6.39273243664354
Cu 4.893988343718466 4.837783274767484 4.8719092482161654
Cu 10.921120488935921 5.571037555266239 6.417193689552616
Cu 8.685398326072285 6.336489289975883 6.82583941818739
Cu 5.828955494113554 6.755400157194068 3.621924038917243
