27
Energy = -76.12667972 eV
Cu 7.35133298373245 6.632265013744891 3.1741101249307673
Cu 7.613221288609566 4.191400983061663 3.531177854006914
Cu 5.272612331312759 5.193017223887204 3.290311471970949
Cu 8.989718784341381 5.845162405697671 4.916436470128643
Cu 3.169780379101172 6.527478132417616 3.554846368844996
Cu 5.233384353507835 7.46496003390902 4.3300498149423
Cu 5.6948738660212515 3.3652894841348937 4.988498644693629
Cu 6.641807924211569 5.582210941259718 5.292537681554669
Cu 8.051194736858475 3.560858670524564 5.85354786448353
Cu 7.464434626073508 8.01158890789378 5.197876504361782
Cu 3.5184803847028485 4.470739712988564 4.822803134537033
Cu 3.3222084493183455 6.584922536067361 6.021489470750459
Cu 9.666100082303162 4.8693399055991895 7.060915596359528
Cu 3.157716380861987 8.668174121255193 4.792201982589155
Cu 4.743863138403344 4.773331678071792 6.865824976793112
Cu 6.184670359348456 2.8047225041273927 7.320532955885636
Cu 8.481339447372473 6.951648899218566 7.126196350990731
Cu 5.2357224504662 9.316662308655776 6.012526618989045
Cu 7.293736221370239 9.065187144196583 7.422281802852406
Cu 8.453591715610086 3.1788241571341036 8.278782547746632
Cu 5.8269741551854315 7.1484689304657545 6.882962804859288
Cu 4.076655150598262 6.656528578922106 8.375992947026852
Cu 3.175226180744361 8.69580724387609 7.223931423677261
Cu 7.015256960609356 5.045291402853471 7.756202710363774
Cu 8.807036686081062 5.5845587402704195 9.2282109568174
Cu 6.881508657890678 7.185343334561799 9.06296632971926
Cu 5.132176210474593 8.899422156894177 8.574774496339916
