29
Energy = -82.21790809 eV
Cu 7.3669249443226095 9.030100158229434 6.823288652068026
Cu 6.149563779224888 9.929668884206137 3.3010926716136972
Cu 8.040484565628324 8.96103503997065 4.484177883385812
Cu 5.736015258535115 8.388279948807986 5.123258106223587
Cu 7.524269329177485 7.153055944568466 8.410713089855642
Cu 6.5786455807460715 7.559662720658153 2.9642519701945327
Cu 8.662924361513566 5.224933741468908 7.332722414210348
Cu 5.444248690928911 7.572756437969853 7.364720352220895
Cu 8.874116061402509 6.8828972587419015 3.557627459805682
Cu 7.740327749204788 6.823835663051309 5.7863457781355825
Cu 4.239336109199858 8.391684540823444 3.2707582136821776
Cu 9.092507911973563 4.87300152972118 4.882768951840542
Cu 5.197675921071613 6.382289573823814 9.52626004343004
Cu 6.287028841140843 5.099971316144756 7.927398900603446
Cu 5.463246874651982 5.790060472436073 5.643593415386103
Cu 7.1226504425233195 3.914279400441742 6.017309512613645
Cu 3.7607885876818656 5.82437515823819 7.556207338941329
Cu 3.49905375798008 7.255438680144649 5.402273505907435
Cu 4.630295014513416 5.996703148970336 3.4354543740917016
Cu 7.027262274566654 5.2930466505192895 3.661317459117373
Cu 6.381839814159337 2.668087026441757 8.051880956802565
Cu 1.5987386357621878 6.0682465629787075 6.538079172373164
Cu 4.414354133875053 3.9828967459247044 9.04930070890492
Cu 4.595068256345952 3.4021154994692657 6.668946171891331
Cu 6.104263280820811 1.773447684360472 5.64612841972415
Cu 7.582626132932044 2.943992725144704 3.928055981340194
Cu 3.189429958484705 4.796774031007592 5.23221687136986
Cu 5.217026388128145 3.6863907428177596 4.302436178113094
Cu 2.3623250348130105 3.914417835059171 7.4907502597593965
