27
Energy = -76.01831786 eV
Cu 9.012684063826592 3.9264524289011313 5.216453135056193
Cu 9.346609970664153 5.5665881289777985 3.5345911035886104
Cu 7.7155485673259285 7.069639499539877 2.6957018050303256
Cu 6.541717272503767 7.838041578376366 4.67405109528314
Cu 8.598210460729831 6.411345393313914 5.7847863048114645
Cu 6.018459636448942 8.844106200860564 2.510156657192401
Cu 7.380980848148569 8.409764562902572 6.918607984914529
Cu 7.834863593982901 4.429449641801842 7.249977068208904
Cu 7.02273230428061 5.2730108026994875 4.29175581502244
Cu 6.706874607199066 3.062450187052586 5.441649636060955
Cu 8.514545722793683 2.142843168431838 6.815658559811243
Cu 5.360324100455522 6.511422665894229 2.899204358178779
Cu 7.940723791570628 6.552691449150297 8.376627183202448
Cu 6.336967584121659 2.690656642352614 7.878878584857081
Cu 6.318686601297658 6.255613557829063 6.6112017255249445
Cu 4.840559448727223 4.180455630382729 4.155630043731551
Cu 5.7111175612177085 7.58576730755316 8.657898056163491
Cu 4.432410993595073 6.349203454231466 5.0689183496612795
Cu 4.2096969202836965 8.5673286223346 4.104673226756858
Cu 4.918955726301888 8.431300903436021 6.47572062244906
Cu 5.815029668069274 5.064373264918939 8.720383125234934
Cu 4.884100153871471 4.160243734716802 6.572649174709464
Cu 2.7273973722999116 4.862755737735879 5.707385023386503
Cu 3.8518304621785537 6.175662617444573 7.49087550390162
Cu 2.6597255831486506 7.734870925889696 5.9861696517633
Cu 3.964732925308102 6.44523068174689 9.848605575737603
Cu 3.253622002568748 8.312059156840043 8.338939597767368
