20
Energy = -54.75522105 eV
Cu 9.520289247547348 9.520289247547348 9.520289247547348
Cu 7.826908650404815 9.593801999999998 7.826908650404815
Cu 7.826908650404815 7.826908650404815 9.593801999999998
Cu 9.593801999999998 7.826908650404815 7.826908650404815
Cu 7.893720389763331 6.039605686606802 7.893720389763331
Cu 6.039605686606802 7.893720389763331 7.893720389763331
Cu 7.893720389763331 7.893720389763331 6.039605686606802
Cu 6.106417425965316 9.593801999999998 6.106417425965316
Cu 6.106417425965316 6.106417425965316 9.593801999999998
Cu 9.593801999999998 6.106417425965316 6.106417425965316
Cu 6.039605686606802 6.039605686606802 6.039605686606802
Cu 6.106417425965316 7.826908650404815 4.339524076370129
Cu 4.339524076370129 7.826908650404815 6.106417425965316
Cu 7.826908650404815 6.106417425965316 4.339524076370129
Cu 4.339524076370129 6.106417425965316 7.826908650404815
Cu 7.826908650404815 4.339524076370129 6.106417425965316
Cu 6.106417425965316 4.339524076370129 7.826908650404815
Cu 4.413036828822785 9.520289247547348 4.413036828822785
Cu 9.520289247547348 4.413036828822785 4.413036828822785
Cu 4.413036828822785 4.413036828822785 9.520289247547348
