22
Energy = -59.54689648 eV
Cu 8.32893880293342 4.3249357748506085 7.001581011284671
Cu 5.363060324209854 8.1013782179776 8.300973640676247
Cu 4.510040412096489 5.873903489776116 8.076546333887757
Cu 6.913830966366461 6.149848641120899 7.996738608722164
Cu 4.363827491942983 2.2141701688275655 5.9814369074446585
Cu 3.4496937849194182 4.271451340757638 6.659695699182353
Cu 5.817794042013558 3.9094654858854083 7.250129839685719
Cu 8.831967145916334 6.712398678999636 6.481035028845763
Cu 6.540842239383394 7.8745710315295945 6.191053489142062
Cu 6.834789698983302 5.498376566600832 5.660060483983705
Cu 4.132248595431363 7.5938613983226775 6.277647442735853
Cu 5.197810278026539 4.032185338583176 4.770581930655252
Cu 2.850992653470631 3.531423909781322 4.378915421031346
Cu 2.2809930972893278 6.269903316911666 7.1266947722885545
Cu 8.926538009631694 4.985232067242096 4.5981037559777125
Cu 10.321798466804088 6.945427035134453 4.612082155737643
Cu 3.047398492500061 5.962754475629104 4.817321985591219
Cu 6.751429041827665 5.092776534421531 3.270074246626996
Cu 7.897935054888423 7.161419767828722 4.212702616122325
Cu 5.321557677038142 6.811407644685144 4.280019177534755
Cu 4.20799917560553 5.081037109873054 2.868602464743044
Cu 1.7545829851329542 5.088669947364299 2.9478491648909984
