26
Energy = -72.74759224 eV
Cu 8.168139158197834 4.899318642258014 5.2985032902161
Cu 8.188585530544962 5.534951867771045 7.611411921530665
Cu 9.112925119259906 7.32035006879697 6.147123473633502
Cu 5.973401381812539 5.3721702953870105 8.613349972652076
Cu 6.858927923894317 7.520911025678358 7.531654556559362
Cu 8.630034918354974 8.659696565153645 4.114604692485941
Cu 6.257401115122103 3.508628509994475 4.663911589919572
Cu 6.835665649419109 3.5891606374808225 7.07493757827369
Cu 5.045674608052411 3.0846130531820877 8.70950330630236
Cu 8.540409771005965 6.397666798619758 3.33464609488787
Cu 7.1662261409782575 9.355702484751582 5.890258761166963
Cu 7.076574318712571 7.071345231872002 5.1216825841268845
Cu 5.376835926382709 9.435197361395824 7.712910593891914
Cu 5.528530901271006 5.5426565782590025 6.128967692945828
Cu 7.976400142614478 3.965980608972119 3.051922434989249
Cu 4.496406408310806 3.1224050975775546 6.299255727708238
Cu 4.457991748320457 7.201763808213994 7.8372052968697465
Cu 6.295484567860078 8.297184311063901 3.350515217506446
Cu 3.643664759039188 4.907418773480758 7.832801764378867
Cu 4.961795968876616 8.200578370331165 5.666292406466909
Cu 2.775561965188412 2.6641361099475085 7.90500415692404
Cu 4.024952430091661 4.585479643191265 4.33511750846335
Cu 6.188405108401503 5.589014581942066 3.3827039384416597
Cu 2.2413693061629774 4.082684686273877 5.980919614290779
Cu 3.1551052129850117 6.377941598290661 5.864775079400315
Cu 4.249766733581723 6.939280104555972 3.766257560408581
