23
Energy = -63.21054697 eV
Cu 3.9878411629601445 6.5403236900740715 8.6311742890191
Cu 6.295689914640989 6.725138760703523 9.470660794058043
Cu 8.64964045113362 7.019783087581781 9.750068710290796
Cu 8.175870828043555 7.001623848019712 6.691924164117776
Cu 10.129166362451574 6.364430308813844 7.953165098692541
Cu 7.78285130266796 10.72424432381702 7.696397662906835
Cu 5.90409040480639 10.259954433797729 6.069750795179708
Cu 5.406829193236984 10.626961220582823 8.375089025345588
Cu 5.891131799287488 5.664661819202238 4.691109020136007
Cu 8.16565801379648 9.216376227228665 5.738200828127223
Cu 9.725291583771869 4.770183136942651 9.695544346874803
Cu 7.770249918987017 5.137578027847924 8.373427435353495
Cu 5.8287264124354055 6.1752792522765985 7.089268856344771
Cu 9.713437807070768 4.010072376522804 7.355751737906496
Cu 6.659366701571274 8.579040501373607 7.706909015827575
Cu 7.316276554644389 9.107220305612334 9.882921458714664
Cu 4.859158483014256 8.621677502958175 9.53452646079396
Cu 4.373324842117651 8.454888461800984 7.082633148693544
Cu 6.07873682846498 7.953575397443378 5.329065932438037
Cu 9.896243498347893 5.688309711622972 5.562439988392133
Cu 7.715744212087028 4.724974807445149 5.9487577382515635
Cu 9.155817793698036 8.736449623712323 8.09456759288527
Cu 8.043641765848575 6.857835228070534 4.340601555935469
