21
Energy = -57.164165 eV
Cu 4.775551788087778 6.609802214205966 4.123795058737099
Cu 8.334930829903945 8.102438899658415 8.72936772540028
Cu 8.628712749463055 7.5185679968447126 6.37516053555453
Cu 5.8205171100909405 4.663534283437124 8.194852426977636
Cu 6.460279256455911 6.347660058328966 6.53672199107902
Cu 4.559460342192682 7.843675854150749 6.182539662239213
Cu 4.5373509656269215 8.748435438930558 8.411019954300151
Cu 7.036309810004494 5.629528264957367 4.195822190815034
Cu 6.580475823526462 3.8470510447576665 5.885588059126873
Cu 9.041297908421837 9.724152344436558 7.086865873954938
Cu 2.8546442582375016 5.1324357188983285 4.277286281204341
Cu 6.147318223822157 7.063376398606006 8.919051868467982
Cu 4.395398601993609 5.136112169727318 6.102725062683004
Cu 6.698901239296427 8.871549480772133 7.108350290827153
Cu 8.695224677423534 5.116780328242034 5.9787842706787515
Cu 7.913390924249164 3.3944283129310553 7.828194897460117
Cu 5.084550241841613 4.191157576790034 3.9814097476528874
Cu 8.09438482368375 5.738922071863349 8.27313735370778
Cu 8.877433799193902 7.166422295740775 4.087229160584213
Cu 6.687807938741398 8.061575159831184 4.74462835335715
Cu 4.008539906577916 6.36948342460835 8.095085128052526
