25
Energy = -69.21900328 eV
Cu 7.380831053547793 4.145596264340327 8.579997620956808
Cu 8.762336438251015 5.0800685646121595 4.947746434481907
Cu 2.7465165698633043 8.651388177838568 8.229068227382141
Cu 7.119719853800704 6.5819740757473815 8.346144660520407
Cu 8.060117520733542 7.159638477149853 3.654724331705638
Cu 6.635637892847102 8.721725226954328 7.111987976740203
Cu 6.004626435056989 8.071845865984915 4.658489068377072
Cu 5.5189024246471154 6.481633176697685 6.3626568693606815
Cu 3.2088539017850466 6.385766018368313 7.217639476509564
Cu 5.086236252316871 4.994452629390047 8.177622931805757
Cu 6.496939275861445 4.1697442908825435 6.328041458645039
Cu 8.020914312831309 4.902364050140939 2.6603459381463352
Cu 7.4302191728313876 3.196696373953567 4.322786510123236
Cu 4.174414070585752 4.627482425720251 5.793363299926624
Cu 6.295970439796602 5.515279215646948 4.263339614209092
Cu 4.173937815498494 8.555276400768916 6.299238302647097
Cu 7.954848907843547 9.33400489991125 5.0473030600735616
Cu 6.597251178267452 8.885100369864235 9.472539830787206
Cu 9.68176082958459 3.4470608174071367 8.62882421616475
Cu 5.713546361340251 10.382259006449988 5.745287092606966
Cu 8.026045501325818 7.086676669070904 6.045852087723247
Cu 4.841965592928814 7.543139602876963 8.59222970325647
Cu 4.82932081600714 10.032594201216288 8.12877883672038
Cu 9.070989141078456 5.397105969770743 7.3737744014000794
Cu 8.646097935499128 3.1291269233651366 6.4902177438594055
