24
Energy = -66.63726947 eV
Cu 7.802143800101748 8.764173668307084 3.809984345568705
Cu 8.493313237351371 6.730232949263583 2.78016014560543
Cu 6.105886132202328 6.9966764071542205 3.3618936817662464
Cu 3.9308830535277606 7.250031589846137 4.3792904654368074
Cu 9.657577227458004 5.500240544671095 4.451539033035912
Cu 7.2462558209243655 4.850063824748028 3.7768653402197065
Cu 4.734634734522776 4.907471062375885 3.681230300588878
Cu 5.939305999250569 8.4799130733642 5.3569105161449455
Cu 7.815031940755456 6.812246653390901 5.245433232345886
Cu 5.442383009101078 5.919327521368371 5.697044247403933
Cu 2.881639412223621 5.982990250175456 6.14360008599851
Cu 5.789946167332897 9.519034740511044 7.556809272176303
Cu 8.302610581459042 4.197439816822857 5.887475828148768
Cu 6.0219882294144504 3.5047102010733515 5.4240529669972135
Cu 4.165552994124879 7.873164393938525 6.90819786280242
Cu 6.5878819772515405 7.2658931110818274 7.466758718615085
Cu 3.6541767702761625 3.7950104110256375 5.641628440607907
Cu 8.83272876344115 6.113132974987729 7.325669310769065
Cu 2.4072667766943514 6.707039952860023 8.362176637819477
Cu 7.212842083973279 2.5568329225139177 7.350020747918069
Cu 4.57712706762529 5.747227042778384 8.076222942396928
Cu 6.786546817945445 4.8693403576640035 7.625726778123975
Cu 4.887406038412361 3.3276515240622913 7.696767164994821
Cu 2.6686475955289626 4.273931236914782 7.938318165413875
