24
Energy = -67.12506202 eV
Cu 3.586816082264705 7.066276558014747 5.407064349252147
Cu 5.816717280239795 8.154704802831988 8.803251255857472
Cu 5.4045381829270625 5.686538943482353 8.99406621206042
Cu 6.462744417113798 4.510134427685424 6.935567466647365
Cu 5.520772676134243 6.8301473376388016 6.7869247497330045
Cu 8.35396458523615 8.57196612523868 4.691000068100498
Cu 8.950394956535133 4.9279052042550395 6.921694045445893
Cu 4.616411519687107 9.029336703441214 6.618504283549214
Cu 9.451089049108345 7.464618912583095 6.847163125730818
Cu 7.149393363455378 6.407540663362542 3.313215239152584
Cu 10.659915482380358 8.778491142393083 8.612058503247047
Cu 7.498695894448737 6.413486897442929 8.102143279848045
Cu 7.412167677188795 7.029708469880367 10.399363780734111
Cu 7.65294075624848 6.469655722006363 5.59433784147711
Cu 7.099410248230522 8.750586563676501 6.7079827404533505
Cu 3.553536254251566 7.2089353844458675 8.018767232791804
Cu 9.318111901007104 9.81385979577981 6.732566016379349
Cu 3.9888949021877456 5.05233410338805 6.849781136275333
Cu 7.625966490287105 4.259694112198723 4.782164274788934
Cu 5.410479596176283 5.470308570159279 4.754590110331228
Cu 8.282986801087635 8.745442488459037 8.851516099240111
Cu 9.562981077626402 8.240975526235474 10.842369146416601
Cu 9.640313605233553 6.591437160121485 9.11939320033114
Cu 5.844440334147791 8.020340543987231 4.637837624979903
