21
Energy = -56.64244044 eV
Cu 9.677361985275256 5.323181698739936 4.838571743942157
Cu 8.458729085875884 8.96812675823721 6.602643324434289
Cu 9.343388286153711 7.656495719103941 4.677576815501522
Cu 5.041546007363137 7.527579328714435 4.610252129006525
Cu 7.9701781317931255 7.6494276079291215 8.667598813824418
Cu 5.340641898029526 9.688976428749607 5.815844386116341
Cu 2.7046012216167936 5.786446636524076 7.455853253164246
Cu 6.037571064946236 3.8277477341716386 6.080944392410457
Cu 4.698334671181858 4.207618630144488 8.201073081389982
Cu 6.920915465355922 3.19366131935275 8.245700036444708
Cu 6.8865820233818305 5.552990997063724 7.871819479908235
Cu 6.354917895622109 7.810636406737455 6.8740994179500134
Cu 2.933392373523853 6.290323213292108 5.079038810640719
Cu 7.1686258627694555 8.608200810160836 4.6200825958461955
Cu 3.733825738985272 8.046582462232685 6.654160944614171
Cu 8.38127166483562 4.148901778387722 6.503019191383783
Cu 4.886141077231523 5.945811170059906 6.5216910404805555
Cu 7.16461532600429 5.982408865215646 5.094804117721234
Cu 8.888354938875558 6.546260981484526 6.762430608115619
Cu 3.5326539604661193 4.005231715286264 5.987824421703978
Cu 4.952473721711919 5.092804014579003 4.24504551333079
