28
Energy = -78.96841037 eV
Cu 8.53374643396951 4.1688947358186335 3.8093593419690963
Cu 9.317785506074763 3.5878094954600903 5.977969521356179
Cu 6.797229786134566 3.4226424010875243 5.383675501339502
Cu 4.09940835927684 4.709435528367514 9.201740510424996
Cu 7.678938266544842 3.5707010469483182 7.715066929715727
Cu 10.044730924019985 5.773405590469236 5.030845751695581
Cu 5.212135148543423 3.445282202794284 7.347264806531295
Cu 4.366963698269884 3.651438009205453 4.98117002332138
Cu 6.284651758323414 5.08545583944197 3.5943945959996113
Cu 8.44016641865787 6.50386502907113 3.3990094782968643
Cu 4.054647888348468 4.658856047820484 2.772114083541623
Cu 7.861372184683022 5.539337741804011 6.025151037720687
Cu 5.364825897416064 5.597043378862366 5.926620981284217
Cu 6.158899835643752 3.4294168942075847 9.595309973109341
Cu 6.5495380817183175 6.859321452950965 1.9748133606138383
Cu 3.1729602379405915 4.726137070448208 6.945935054787364
Cu 4.5218898062104556 6.983699358979801 3.268580252761366
Cu 6.2949353522225335 5.468884507087462 8.313058827860994
Cu 3.096707156483839 5.785468143026981 4.765177354662776
Cu 2.73676758092225 8.68863970175481 8.084210139073901
Cu 2.1537604738244007 6.880774565655601 6.675662318143435
Cu 6.594862252917198 7.455594021552426 6.9761655983901445
Cu 6.488489209265227 7.504254994825326 4.442829365939056
Cu 4.252245547313956 6.826407797219787 7.94387844031566
Cu 8.629535644583425 7.82648484261594 5.539492943353916
Cu 4.29939761594462 7.903185776724933 5.638435584690953
Cu 6.698224953708114 9.484215168631874 5.809749584532181
Cu 5.016990561837562 9.185155237965418 7.584125219366881
