22
Energy = -59.61300601 eV
Cu 5.41538675083493 5.466443694268745 8.811416402877263
Cu 5.694751212845634 7.751935581652421 7.860550463116076
Cu 7.085302792294207 5.955199165701367 7.090802970591235
Cu 5.875697742774599 9.87264151605559 6.788241814155594
Cu 7.503582959957378 8.250980369980615 6.158299551392168
Cu 7.948480764977126 4.228042220704542 5.530350275762104
Cu 9.13959974110982 6.370151876287892 5.90832775804585
Cu 5.811642965693376 3.95916041785008 6.726727099087468
Cu 3.7503340282930395 3.854915794220632 7.94500235257875
Cu 4.227685744859906 6.038054895112803 6.870783651563499
Cu 5.16693024212307 7.847436320719555 5.473542580361851
Cu 6.581605124349905 2.2148812428609284 5.138182714820367
Cu 8.891925912021852 7.966977897057011 4.157231634283821
Cu 7.129036545533657 6.3834321138676575 4.600122858140544
Cu 5.913923373886011 4.349363724907348 4.141161265951643
Cu 5.137688677332115 6.587523031782318 3.353301912306812
Cu 3.518816651667915 4.142371163074437 5.513599953998333
Cu 3.1858165563940704 6.48694633289038 4.783107664382397
Cu 4.444592589846186 2.023018290685682 6.379039839327001
Cu 4.442120905366603 2.4650134110819555 3.9806207062355363
Cu 3.6788977863180663 4.651501967162888 3.1288087564397764
Cu 2.953229692773058 6.836161442594912 2.4288309058313007
