25
Energy = -69.95062521 eV
Cu 7.436231209323702 9.110817665021385 7.4136032044086955
Cu 8.562020379375397 4.482470764806925 5.83416864202362
Cu 8.445251958991793 6.82404613877323 6.603299999664042
Cu 4.090998159531514 6.751981023357568 9.118543135589274
Cu 6.437891645958783 5.472019336708815 6.3740779879997165
Cu 5.0310582658089995 6.011138491149511 4.441283105929212
Cu 3.0395383078602807 4.699893899852461 8.074872617994998
Cu 8.151216351357894 8.679306202357356 4.742293598160454
Cu 7.916564248152872 5.085873985294115 8.261887075975409
Cu 6.4108893640034275 7.058104538603174 8.308910074717398
Cu 8.46372692887523 10.715366923789617 5.961139884342649
Cu 6.129373461972607 7.840793787925125 5.8372913762569505
Cu 4.419084247876069 4.090607377731723 6.061058851115062
Cu 9.976845191356988 7.099029156963306 4.818326123413168
Cu 8.787472806058894 7.546298643825905 8.812878362717722
Cu 5.409841171713777 4.768158986552991 8.527693805959576
Cu 6.455238669737774 3.9632013177388337 4.5508106007415075
Cu 6.623501061689645 3.1786257368873643 7.0146699153642285
Cu 6.066219130045554 8.04640633165063 3.4701215169161195
Cu 4.757180798929844 8.69076097968591 7.6095748239179555
Cu 7.596820692146079 6.2641605198771835 4.3039249599737195
Cu 4.409991581259608 2.647801067548038 7.9900282875063064
Cu 4.1361442971515 6.463936833492419 6.742957280634958
Cu 3.9744323058600917 8.191376972773254 4.992084335684662
Cu 9.776922653572623 8.822278206243945 6.638955321603403
