29
Energy = -80.92464142 eV
Cu 10.785622396131199 5.086133033436007 7.352749610817844
Cu 10.8779827148101 6.167622499057845 5.240527816829319
Cu 8.657867569054115 4.539880952431686 8.204719440689129
Cu 8.933776264690508 6.605885968121639 6.8080541674357224
Cu 8.349235835758638 2.285835516333914 8.982426454594162
Cu 6.447240696514497 10.228282883995899 7.509911535123057
Cu 9.140585565186793 4.4276729033546305 5.610852705399629
Cu 6.720347899480001 6.053659097493758 8.065135286392273
Cu 6.834302529212368 8.060103679705215 6.584270383154337
Cu 6.417500898583413 3.693635358570422 8.793956376311387
Cu 7.60788265473651 2.876361817743372 6.785761516419532
Cu 5.946766437352341 9.833924656471957 5.201739195706479
Cu 8.787631687173327 6.511605423491816 4.199326779966128
Cu 6.6802005030776455 7.82099321262775 4.0227937690882145
Cu 4.840289978242508 6.589862279202799 6.598870981776522
Cu 6.947058625463651 5.833895098407805 5.581926042579224
Cu 3.1904037953414406 7.131155799858324 8.30751932891439
Cu 4.444858025523045 8.969253768745 7.022693120177955
Cu 4.44246457537752 5.1128228882234215 8.534699458339183
Cu 2.169132643330724 9.25614480720323 7.80852061201544
Cu 5.384310572150405 4.067999890505714 6.565346535853822
Cu 6.945142894330416 3.6804204748609077 4.6253712769684
Cu 4.367150178309259 8.103357554665912 4.6136148988075085
Cu 6.813827957634317 5.572145440684257 3.071154808895098
Cu 3.006364110317716 5.155913996315048 6.34806399131007
Cu 2.5008005163316716 7.619038159623811 6.087010916012721
Cu 4.753099644689141 6.803691474980162 2.654466899482318
Cu 4.792955105187652 5.148477142638296 4.458421640512565
Cu 2.7550364420316535 6.3431367799175975 4.065468937211483
