22
Energy = -61.13542077 eV
Cu 8.464523683926217 4.991914964947907 6.540463864950652
Cu 6.596932877807758 6.439483999122112 7.307131551190156
Cu 10.906415852192886 8.282894712950442 6.977314497200901
Cu 8.302431135919125 5.799703544204486 9.009167590572353
Cu 10.481291364368442 5.982533409950296 7.7036213377845
Cu 6.58073346031593 4.185777444793156 8.043076568945391
Cu 9.709728493346613 7.928121437642961 9.231195419740923
Cu 5.917473975878858 6.066619899675072 9.581013800744566
Cu 4.39560010850761 5.573286935158387 7.4557291494317885
Cu 4.857915224043934 7.910365540578601 8.183088549712771
Cu 5.026860876335468 7.163864928917813 5.596358958462012
Cu 4.3725933381542985 9.417809715746504 6.37727073062418
Cu 6.1203718051579985 4.8329508338093135 5.601173667541909
Cu 2.904521226487018 7.432277819194206 6.766685490696817
Cu 6.752575674344478 8.802375265812595 6.281089404121108
Cu 7.49411394695016 6.804286031201447 4.987754701772214
Cu 8.706775530496476 7.441816998578313 7.130601728174069
Cu 9.967986519383482 6.564140061844252 5.2897235677182595
Cu 7.226094841682381 8.1172907847025 9.125366106968253
Cu 9.036783490802554 8.884275626600372 5.294618607825302
Cu 6.050809836308672 10.058803949326236 8.17180808721464
Cu 8.536842726974232 9.728782212478212 7.755122863693324
