26
Energy = -73.12439468 eV
Cu 7.152686232299915 8.119861268032466 4.9708395808861665
Cu 6.027762285126351 4.585439224865241 2.7870131741384054
Cu 7.706872712730554 5.887752843562681 3.984566790076146
Cu 9.500813819064557 7.297268947676824 4.851310175154867
Cu 8.377208267868358 5.8388295749100285 6.432553238499563
Cu 5.350134146372264 6.654406335509602 3.96099493821069
Cu 8.045876923800474 3.4572416909053434 3.7114652258623204
Cu 4.709084725245948 8.61071913120603 5.420015418353759
Cu 3.9792087783963215 4.645658201661929 4.145970320004159
Cu 4.199937348998734 10.121484249283238 7.247367102879714
Cu 6.363269188443331 8.933481592201835 7.222228171268273
Cu 9.817359420468362 4.848409599888445 4.703804641374967
Cu 3.297053698618258 6.611132777690145 5.409203783648565
Cu 8.583946506351065 8.177044149769293 6.948805257030842
Cu 4.345498793458797 7.8314606942384275 7.918832147199035
Cu 6.174166984490159 4.222758932632524 5.151417165414388
Cu 8.394466657663262 3.444676081454231 6.138163099628357
Cu 2.4660518812608867 8.51441537146521 6.563912511227836
Cu 8.760843353754044 4.4265723115904265 8.363662753326057
Cu 4.201886610289768 4.6552654031460845 6.608987342927851
Cu 5.879365802655629 6.503158813188046 6.336576408596591
Cu 7.07918630039901 6.751516706076215 8.422929778589701
Cu 2.593506179907389 6.232908462393198 7.737884680343987
Cu 6.530576256650453 4.373504400738583 7.53128963186962
Cu 4.817986319040932 5.642415819331961 8.748666024122434
Cu 6.82483392873045 4.792200538666869 9.861123761450415
