25
Energy = -69.67205274 eV
Cu 7.073147870027209 5.377339641303807 6.720905085513093
Cu 8.613740471451441 4.899000932664462 4.995245274177843
Cu 5.717035419386544 5.852887128910095 8.6809546689168
Cu 5.577466374025709 9.684026114129919 2.690822733691401
Cu 6.175137983422444 3.894608274043466 5.130533154595985
Cu 3.119646346937253 6.946250051442798 5.709802426134258
Cu 7.85767238882845 4.683899016777328 8.990228983644519
Cu 5.53862343762777 7.195813833352398 6.340949714196933
Cu 6.094375796446221 3.467349713582694 7.750289517114181
Cu 4.465200729368371 5.501056569340233 4.344421209107923
Cu 5.592525941835205 8.315022523844414 8.616968540989838
Cu 6.734285270850678 6.235772893379849 4.256415836879719
Cu 7.0638993328742075 8.656304264566629 4.286457609365403
Cu 9.482475644916926 5.632568829019476 7.241942188149
Cu 6.90446387698103 9.156909606578346 6.752151591985476
Cu 10.114765867045415 3.8714520763423366 8.75469980515528
Cu 4.445330960126176 4.966908988828677 6.700756495191896
Cu 8.307266950265864 7.315153781788657 5.827057204447055
Cu 4.087806702343238 9.04798198082274 6.719444878666732
Cu 4.694575053590398 7.959963648326793 4.136029023681823
Cu 8.503936229566545 3.3489838783926413 6.970030262982124
Cu 7.788281481853478 7.2684918690794635 8.266083351564097
Cu 9.620885596679122 6.169234514135999 9.585743122360912
Cu 5.334054349668903 10.157348405683576 5.023789121272225
Cu 3.6456527612619407 6.947924301045009 8.06053103759631
