26
Energy = -72.81765348 eV
Cu 7.490405975143969 7.74375833254923 7.008357460403063
Cu 9.23522304139128 6.000336292529625 6.987050899584204
Cu 8.32313604185432 6.76152578235587 4.782371478095492
Cu 5.244110775381377 8.83890905164633 6.679843417761207
Cu 5.528538284272306 7.188471410976112 8.42578752886533
Cu 8.800119158936768 6.626121751157428 2.4514680557704946
Cu 7.127104031312208 5.464545466586086 7.981436651188972
Cu 7.927358812651341 4.4490165861006385 5.688500597953784
Cu 8.711061242017665 3.6967756003153807 7.850499932408841
Cu 6.79432661605809 8.678525857473234 4.860036401935384
Cu 3.2648784792202368 6.405139245279456 9.126557767576672
Cu 3.792020084799538 8.768576772589308 8.672831144956877
Cu 6.015321383744587 6.178544032835403 5.798607046268223
Cu 6.359387162057236 3.260398265916636 7.174017498839329
Cu 3.541893983692368 7.092097078538903 6.848112222945545
Cu 6.537897038768322 7.127533811352033 3.073548899798164
Cu 4.5534186007326545 7.514728868366987 4.540128327943096
Cu 4.722797150648479 4.988002891079491 7.6700590645288855
Cu 5.754524513116212 3.7523005920155987 4.865914250553872
Cu 7.380478227002969 4.877589446522446 3.312696329358334
Cu 2.400280003565398 4.812182402733519 7.4224524021958675
Cu 3.6512346493653274 5.2420271812674155 5.304890433249475
Cu 4.917453174498202 5.384096035440468 3.2062291349114362
Cu 3.690431691641311 3.2636505651350607 3.7847897033190745
Cu 3.8704800785272995 3.086121362618212 6.367818384362769
Cu 5.772527701595938 3.2222485705161636 2.504213979948772
