27
Energy = -76.18123173 eV
Cu 8.401663836474029 8.727373354759779 6.660623588259264
Cu 7.510062228225059 8.97444415363187 4.172723127267475
Cu 6.269724637714636 10.11950109958706 6.139764000000251
Cu 4.912587357996708 8.77450131078354 4.166336138888424
Cu 4.1803286595365226 8.574994043331044 6.715995475071539
Cu 6.326391910717231 8.6219665307092 8.206431336675601
Cu 6.307564567844183 7.806715120753679 5.77744074780243
Cu 8.621180479297545 7.828170009005804 9.076682219581354
Cu 8.482216373727956 6.769675084361499 4.988313972818501
Cu 9.937947786861274 6.523579654009749 7.0104101341467535
Cu 10.198555725059913 5.121939262155871 4.935699856600237
Cu 7.601187912850573 6.557699273749657 7.433653437125699
Cu 6.308094670864881 6.676762808689011 3.6046814963418568
Cu 6.410295776455253 6.486265051814068 9.574083602668928
Cu 5.159700835961131 6.481011622807485 7.454151605159671
Cu 4.202444685239747 6.512503967005753 5.096108757656404
Cu 4.106353140950731 7.688719475468517 9.14707844382002
Cu 2.8284284025882847 6.418106417151552 7.276392016744841
Cu 4.188674225558241 5.09949261541027 9.035333192684499
Cu 4.311703954888751 4.385838374246485 6.474411486972455
Cu 6.445520607265957 4.380013649526329 7.991042668366384
Cu 5.154742624085807 4.40499818546946 3.967620597591806
Cu 6.404154801214947 5.364311097101278 5.6575008160928695
Cu 8.632465703374644 5.194352460511743 9.008981440331066
Cu 8.53446573005584 4.430898903914119 6.531556290349402
Cu 7.930876832294062 4.525903919846277 4.037575588160214
Cu 6.455037919218008 3.040996315681441 5.813105706893296
