22
Energy = -60.61617916 eV
Cu 7.356947319105243 5.8506596709278655 8.949748264601391
Cu 8.466322298038756 7.093955272689966 7.140086857467521
Cu 5.942094630656602 4.235765449911448 7.724893558011774
Cu 7.121834525750243 3.7162011180501504 5.285294196215533
Cu 4.900836597352632 5.842235075579785 9.25946867772622
Cu 8.389279500638391 4.536923972562296 7.231931929303449
Cu 6.068305809010177 7.581679221678463 7.945577207424248
Cu 8.850841971013182 5.557363184083248 5.112194744621046
Cu 7.26415836241487 9.169268351120024 6.62113722632509
Cu 3.4732189775661935 4.203099415553519 7.9643997587395035
Cu 4.63187224553739 3.806724292743537 5.7396052191130025
Cu 7.730487803659631 7.714149786088226 4.731798402800727
Cu 5.465198141557106 3.787225547275884 3.4436695253145775
Cu 4.270554651960958 6.206704166075719 6.957279279875776
Cu 6.579256040307845 5.923788357461061 6.070745262644784
Cu 3.071046425608615 3.9256215877485086 3.779459697673184
Cu 5.248939010877973 7.990139789200089 5.619156969302107
Cu 6.351861376731838 9.745236433458302 4.43325215408177
Cu 6.959188318124624 5.618417185993131 3.613626144863681
Cu 2.514871574065338 5.000159575042316 5.848161469646751
Cu 5.7177569084758835 7.668185382046033 3.266001347369306
Cu 4.4923790138190425 5.879321058207297 4.4121667959111965
