28
Energy = -79.06022187 eV
Cu 7.072174301692993 4.149104638798643 5.798898997901099
Cu 8.6718734410756 8.025039494594207 4.625924361407677
Cu 7.272056727101457 10.11579206603125 7.950030658300801
Cu 9.297758988602295 4.642881262326774 6.842196398439502
Cu 6.1885371969844405 7.6039452011034845 11.04544009958052
Cu 5.3802497071573185 5.845461628823831 5.403878188757225
Cu 8.920273973112195 8.594243395421076 7.095681377565144
Cu 8.927623951884055 5.315649617678201 4.507941716461541
Cu 6.0124660493625495 9.700097272121544 9.893271679475848
Cu 4.975321258679742 9.199876812588512 7.586415170747947
Cu 5.125465151833631 4.405328798652941 7.38455307088143
Cu 6.7576899542772715 8.806618918188642 5.959390754368539
Cu 5.3773168221128875 5.662246741068327 9.57430466085379
Cu 10.230782296250203 6.736834522789104 6.066181429556279
Cu 4.285287988236015 7.905613070549016 9.596100080783822
Cu 8.270393525608133 6.711660567239481 2.5902856533183938
Cu 9.217296268150472 6.572689644555154 8.363114823348253
Cu 7.662754407587567 6.5124326352236945 6.3278958460106365
Cu 8.280427889875224 8.59458541556452 9.67444917115699
Cu 6.65746516492751 7.507532147502687 8.395268231110247
Cu 7.8076782611267355 6.112186732272197 10.254745968917529
Cu 10.512411539422343 6.890490293511477 3.566061657427632
Cu 6.349324710929113 7.47330432006657 3.892752112926825
Cu 7.2908826854241235 4.959062136934612 8.19814182852929
Cu 4.516998910487924 6.747983101953764 7.476254025166137
Cu 4.411762632515296 9.179878248689647 11.605871430024157
Cu 4.523342405396952 8.133954647783273 5.425128645035188
Cu 6.740287280546816 5.057854005688101 3.5223946265378663
