25
Energy = -69.07827183 eV
Cu 9.721986263548354 9.778396922823255 5.990696477990117
Cu 7.385012896134366 10.013041897343584 5.455895914094957
Cu 7.9564196804099705 9.748399813479043 7.734294261559026
Cu 9.505149992383684 7.777100575631586 7.2827726948655815
Cu 8.581885684430027 7.873605726617338 4.919042302727212
Cu 6.020096224274325 8.16793868582019 4.744824839447985
Cu 5.510441887083626 9.324914147780506 6.945454269139226
Cu 6.4973060151542175 8.296985180393447 9.09920477446906
Cu 8.61392741175365 5.7163285909316 6.16302677553117
Cu 8.077416671062222 6.336642839550779 8.708257144638756
Cu 7.014322077996682 7.507538061546658 6.839340602973261
Cu 8.8996967104041 8.515021195117036 9.535685678290816
Cu 3.3370001588851226 3.0746061190934943 5.540907835806488
Cu 2.908513977898175 5.403035202681396 5.0947904709827165
Cu 3.8447964538361004 4.817056341453315 7.19134336867466
Cu 5.538769840721568 3.0160605587421707 6.497097608738276
Cu 5.150891082092196 4.008960807436877 4.256553387798696
Cu 4.727973619717015 6.38716410940308 3.9647063167540213
Cu 4.314286395257964 7.219153462336653 6.366896775681123
Cu 5.593635507334556 6.162328345738114 8.383183530421922
Cu 7.501540949361047 3.7953504484630067 5.189014581451171
Cu 7.348772075245498 4.28314890556963 7.690247798345135
Cu 5.944973168939908 5.466690127440903 6.018750723868457
Cu 5.284547075881499 3.789682713392286 8.82188862077736
Cu 7.222339294198193 6.022550335217683 4.067824358975876
