27
Energy = -76.20031943 eV
Cu 7.68888113736906 9.997315468001212 5.797270979406488
Cu 9.13258094650886 8.345792728698681 4.664996754161168
Cu 9.591817568404627 9.057449416465944 7.069349397988358
Cu 6.586969472432897 8.347930212896015 4.378702519288955
Cu 7.489118299055229 9.537383832376266 8.179379928602692
Cu 10.238112478042684 6.850115985636446 6.312756495312744
Cu 5.649918238525519 8.918020869103655 6.6294025029542025
Cu 9.375227660577758 9.21307986875373 9.634126870880696
Cu 8.019676609342827 7.228190750767781 2.8123237772457212
Cu 7.640296486583637 7.419965810401135 6.496823011165483
Cu 9.14562772648798 7.067513830814831 8.443351208262987
Cu 8.995543051029054 5.850801470409594 4.55708678250361
Cu 6.633357287711187 7.375160330903467 8.891036930121034
Cu 7.666192526741588 4.816014185410776 2.8484403959082605
Cu 5.80665012532302 6.30093331315036 3.3106229846767725
Cu 8.543442997725284 5.120075715909898 6.969579777981548
Cu 5.158051765366099 9.532360757444868 8.916348067394074
Cu 5.129688593218351 6.758255230487272 5.628744034403081
Cu 6.825858210718591 5.019124758023987 5.129833902576059
Cu 4.400248980111915 7.266314361511269 7.949261314661593
Cu 7.748433159823285 5.247950833529172 9.353756255052057
Cu 8.749143599992275 7.17828541291407 10.791998324542183
Cu 7.022192457052932 8.980037745619038 10.60800467795463
Cu 6.163036344906128 5.457306276912875 7.406284308442493
Cu 4.714852773129847 7.7670546588234 10.457530323895647
Cu 5.13476189864915 5.51199513736964 9.586285827541914
Cu 6.566177848556453 6.495653882262934 11.28794665590617
