29
Energy = -82.651428 eV
Cu 9.75246938803181 6.664699964040972 6.411155115704694
Cu 8.850018355718984 4.9192253904977035 4.809367719274747
Cu 7.929923725451454 7.197544534110734 4.947649920790239
Cu 8.17602741222914 2.8726936171478985 3.646391004330191
Cu 7.818916432302817 7.994770580546563 7.378682019598587
Cu 7.730696761847878 5.527678418780128 6.90070208643731
Cu 6.2314842552676035 5.359200567100259 4.806381664777892
Cu 7.266598308738137 3.300722249135301 5.8739927013462045
Cu 6.316380417746426 9.015902925123777 5.052046589273636
Cu 6.201115025853191 7.276196241844234 3.177278851994958
Cu 5.8380390120410075 9.52555729477445 7.360328194891636
Cu 7.388220972898496 5.054686175284541 2.7651674832556568
Cu 6.364518065080292 6.301584286630152 8.771460309304778
Cu 6.775997755328806 1.2062389644828995 4.833604458301408
Cu 6.482161716402731 8.585945783375474 9.472223184693751
Cu 4.386590670586973 9.036770910565586 3.644486361692809
Cu 5.765168806811488 3.1346824388128507 3.7232552914184622
Cu 5.75569903217097 7.106839585853364 6.453208422581717
Cu 4.934411778324085 7.020252514205723 10.588577119989615
Cu 4.962671560525031 2.4130202104699543 5.98083230170225
Cu 5.487972828285065 4.594181076469252 7.115682881945806
Cu 4.932382825300526 5.197334807996836 2.7205761594558138
Cu 4.342390977648293 7.846878821053495 8.394346376144616
Cu 3.940502318724367 8.66694950441539 6.0394733819026705
Cu 4.131037036668019 6.792867459803311 4.398037760161939
Cu 3.952510231491857 4.397458664875353 4.948000974093806
Cu 3.4674638441044325 6.191970808798925 6.682110953062866
Cu 4.033144065597093 5.42200535426859 8.963286265770755
Cu 3.265877648046219 3.787936527171757 7.232268959652589
