26
Energy = -73.14763968 eV
Cu 9.255135251969122 7.515376722869678 11.034482498693578
Cu 8.346112008175881 5.9374969225019045 9.45800413272766
Cu 10.349873526632523 7.2890348997117 8.79415553550574
Cu 9.830349988066942 5.118635836248791 7.638390927729297
Cu 8.290565290628605 8.66635996012233 9.159214452102738
Cu 6.784844256795966 7.410176902206246 10.611876868974022
Cu 10.52557268094873 7.0248966902541286 6.25476265023384
Cu 8.381022213787544 7.087483517975489 7.27985952532592
Cu 6.040174758561335 5.094090236223834 9.495328750612396
Cu 9.755392109491282 9.142560755151314 7.207788494330853
Cu 5.949626774475073 9.415744776145011 9.054078904012144
Cu 7.3523895632850484 4.863800056374232 7.396462736297712
Cu 6.048845314139207 7.157495216046656 8.310558278414092
Cu 8.593365438177344 5.5481945294403054 5.424505215010845
Cu 7.26509190210794 9.25133006187502 6.940285702709019
Cu 8.551448538801314 8.231650957168304 5.143283484680902
Cu 5.001100818173909 4.885048842368936 7.252261386542236
Cu 6.237738932640292 4.740708822011575 5.019787070529714
Cu 6.233721998559209 6.918154230728985 5.920840006936182
Cu 4.906780185922536 9.116560338642323 6.835761233504341
Cu 6.1551450123141205 8.879638552289107 4.616348169426732
Cu 7.391490978712083 6.713947579698856 3.6845598359265326
Cu 3.866392708106133 6.980746789592436 7.141032637298274
Cu 3.792444714437134 5.478416233286808 5.249663295478742
Cu 5.062490337045173 6.646809860960193 3.6153104046215403
Cu 3.752770769801001 8.08259771413935 4.99452412062429
