28
Energy = -78.79073261 eV
Cu 8.996935738285035 6.99857590289887 10.12429558503972
Cu 8.421141615632548 9.303261684585012 6.707075449742681
Cu 7.594850045555893 4.717008480339123 5.764190466202874
Cu 7.940701222796677 11.32686342538896 7.962645680927303
Cu 10.074510472676284 5.2346579471872365 6.337890607558144
Cu 6.08451694932318 5.772779478872446 7.370368833859499
Cu 8.965639380051696 2.8801276909694917 6.185528224316563
Cu 8.864539060088097 9.375988561659215 9.147225227968857
Cu 9.885414758382007 7.5538564055130495 7.758110741265608
Cu 9.881094805360611 3.527725457054773 8.258428981830676
Cu 10.706370187036443 5.613642470450775 9.077418249677756
Cu 5.0226436489611865 7.533267628233339 8.782322073821005
Cu 7.416399228612314 7.650699845805328 8.398588528951453
Cu 5.981842219634667 8.420154623073412 6.578817154330904
Cu 6.659775921549939 5.7712826586217885 9.754621363568353
Cu 6.0736561371184985 6.472640725193809 5.011304776336858
Cu 8.297798557665956 7.018768929641581 5.936796518612905
Cu 4.417577618748512 8.165186319757685 4.5730731792049
Cu 5.655913418110058 11.176685670327483 7.162229536182382
Cu 7.440584009513338 11.104349662274808 5.495805805173566
Cu 8.677777192241269 4.472904259107015 10.205740963661862
Cu 4.036645221592835 6.928005521984038 6.620464142979788
Cu 7.3557801617689496 3.5468254944329565 8.073205384598134
Cu 3.9664129499114247 9.349675516148318 7.315750064756057
Cu 6.291177963242161 9.68845640922795 8.862714847187021
Cu 5.210447292884142 10.298849035989688 5.031189934989894
Cu 7.1575701599627175 8.760357867961801 4.543220417843724
Cu 8.515360047946123 5.556056028448706 8.060924397932006
