27
Energy = -76.09247913 eV
Cu 5.596748671802751 7.148681608492661 7.078623039083333
Cu 3.3673474757025286 6.325300859869857 7.136583537896999
Cu 5.040959904750042 5.768467952776621 5.112503621968298
Cu 3.730040238328384 8.77295716610973 7.635430013959748
Cu 5.977886501070745 9.075529798711628 8.718157663854683
Cu 3.9997032178416854 8.008316442173966 5.335932764756398
Cu 7.6615991704303505 8.371762080253877 6.966013275875668
Cu 4.44572325871972 7.206380459810334 9.303219282504424
Cu 8.625176116811762 8.69152029521997 9.063727713046985
Cu 6.918006059164589 6.7919089290428545 9.161126531773938
Cu 5.269687304315322 5.053637349010839 8.422421926212541
Cu 3.9783930902516316 4.037239009013643 6.576653866245837
Cu 6.345441862572626 4.219337250734766 6.42684243635512
Cu 7.570147752641625 5.557902745614422 4.64539221072184
Cu 5.581169917100105 9.661706467549731 6.313506256413438
Cu 6.4583029857747745 7.786748893494097 4.821568300039314
Cu 8.993530664042561 7.716463205944185 5.057474576832193
Cu 8.071346340059046 6.045698298855963 6.94656701673422
Cu 7.605501859891406 10.61854363932725 7.59950554002492
Cu 9.698146938635315 9.644235086092655 6.775431048273256
Cu 10.163921360236143 7.324903531114249 7.299347364664416
Cu 10.1019331261056 5.627244828760622 5.383053194086108
Cu 7.6758863075754595 4.4177661963227015 8.603067003308297
Cu 9.258727973828679 6.319155369125629 9.394287712654252
Cu 8.682776561252604 3.828838904944066 6.190705811612108
Cu 10.218625628519405 4.909893638563206 7.734650993802881
Cu 7.805372033098628 9.911962057893177 5.140309234271442
