20
Energy = -55.59661402 eV
Cu 8.991498361662426 9.043951135900725 8.94249668080706
Cu 8.991498361662426 8.95471317171867 11.314214775500995
Cu 11.161200399082452 8.985543289472716 10.044016677591614
Cu 9.798703940557361 11.33993656395248 6.020355915610087
Cu 10.79386841264127 10.368072603279407 7.9549809809135015
Cu 12.10954314950216 11.210171924133112 9.704440929411279
Cu 9.739551603367032 11.021616365427725 10.266579165867217
Cu 7.238964873180491 7.856096422591351 9.842245983039884
Cu 12.803260383520556 9.150711541388839 8.246384541215642
Cu 9.62041087885659 6.985975518389172 9.880763641220632
Cu 9.087625424378873 9.031060413958214 6.430868557412608
Cu 10.782713848349289 7.827262069206712 7.834468027598893
Cu 7.350684221254082 10.375695425178254 10.010583154928666
Cu 8.382680194423445 7.093854208338401 7.737702045393569
Cu 10.217390332026529 12.615434502215983 8.50153408882088
Cu 8.331145359291783 11.236173676973182 7.927134780913442
Cu 8.14310627597616 12.726170612306705 9.807527826787227
Cu 7.454535446087705 10.615778496498619 5.745806892864667
Cu 11.474728198706506 9.26435885265347 5.97102882178065
Cu 6.959426720931181 9.177361977332655 7.718878126863463
