28
Energy = -79.44565518 eV
Cu 10.702265558298452 5.987477459858947 5.363264377507216
Cu 9.664007774131917 8.129113444581344 4.7619383099210175
Cu 7.162158933171296 10.238747697469618 9.037018952503635
Cu 5.027272464565536 7.64610153826338 6.120722901667866
Cu 3.5210182371374885 7.068162300984542 8.028859948128042
Cu 6.121212295867957 8.754307366528037 10.806606037602819
Cu 10.03041572736825 7.281533563280352 9.132956710136039
Cu 10.982479232455255 7.863910826725814 6.892468179858826
Cu 4.580253920522973 5.0835151232067215 9.1818857324223
Cu 10.54252028981429 5.498721579595369 7.679497756153802
Cu 6.11432128636066 6.566508938874557 7.976805698181802
Cu 8.584116115892144 4.609715253599135 6.461051427903072
Cu 4.391711595680998 5.251601167232702 6.726831883532429
Cu 7.097562190917687 7.870370957771825 4.7619268971575375
Cu 6.438546778021845 4.187422146408619 7.70938349563047
Cu 10.359888367062387 10.146840584386805 6.004966658923124
Cu 6.464459224409562 6.1851881478655555 10.41388504754822
Cu 5.183503284399576 8.78410806352156 8.57986704084397
Cu 8.587758482160872 7.023717978852753 6.821925320197989
Cu 8.326879453772909 11.224830288192868 7.04966253043201
Cu 8.175985335879515 9.990283800778048 4.971531164877882
Cu 9.290539753678539 9.294355288543358 7.981799806673202
Cu 7.724880497268446 7.893837854189987 9.238326193570165
Cu 6.528246237626827 5.676845160447467 5.675835569025842
Cu 4.28366407601487 7.23535160777399 10.302283804493342
Cu 8.551392119254855 5.978968002855883 4.369994587846775
Cu 7.002337491474207 8.99472043508788 6.925269583816931
Cu 8.286860979288832 5.519862425966704 8.816671771160058
