24
Energy = -66.90679045 eV
Cu 7.68667482112564 5.693534846273296 10.058301172231225
Cu 9.16978447140614 6.103107454485236 8.005119520114617
Cu 9.348724352429317 4.022747815236513 6.710202624386205
Cu 5.67172901265594 9.16129188849037 3.279332084052414
Cu 5.67188744999393 7.404863818842675 9.720663983240005
Cu 5.078621564050187 6.8179132562642195 3.4164052740951605
Cu 5.021419215567921 4.461451732008243 6.963030088692308
Cu 8.572828763269928 5.976270743855106 5.577257360483025
Cu 7.172550108854236 5.347533302070545 3.665257598090633
Cu 5.017279527489078 4.357504931111063 4.411439181655061
Cu 8.007233533899678 8.013956337515934 9.124777455638137
Cu 4.838264278686962 8.31087848374193 5.472221315821561
Cu 7.3270179312748 7.775089183642535 4.302672270342139
Cu 3.2541363815063398 5.316658902818925 3.083348841409864
Cu 7.095743691035495 3.966934078099912 5.751416127002847
Cu 6.7386594550389 9.7983838923334 5.486072577642241
Cu 6.05745647665388 6.227794962051059 5.6568102026074065
Cu 6.804189513739547 6.351981687075899 7.890830816077765
Cu 7.384838900638792 4.054880114306035 8.195765228317647
Cu 6.016020306333791 8.692979494994331 7.604306997551995
Cu 3.6077656875771025 6.040425167595125 5.406554133282951
Cu 8.14190086363388 8.085841431510984 6.629868030752913
Cu 5.383128991706888 5.0159808107697526 9.32290994340267
Cu 4.417033167054271 6.79155457712412 7.578180542499018
