23
Energy = -63.92470604 eV
Cu 4.884185345847927 5.577897186658832 9.044581994758813
Cu 4.9314223665829475 4.008980952110849 6.970738935585305
Cu 6.96845719988486 6.9771674831991835 9.139527140905141
Cu 4.83238119560949 8.071603328028367 8.258739077616372
Cu 5.809522749923023 6.208294272796169 6.97074308852578
Cu 4.832333218589404 8.07160907213797 5.682773763606151
Cu 6.905326982171628 8.371033619657123 6.970747430870906
Cu 3.482529023604171 6.274976338515104 6.970753974173556
Cu 5.494001915311432 10.240099646757791 6.970764643461523
Cu 6.859290906997097 9.481988662371688 9.046828939339655
Cu 8.11687283072342 10.39763874679973 6.970728761983047
Cu 9.195168972543335 5.812895684431445 9.041632190989997
Cu 10.502792506178542 6.7143658325826445 6.970700481149463
Cu 7.087202196576115 4.546336507818352 8.265265708255459
Cu 9.195127167540013 5.812903854108812 4.899810490763635
Cu 8.199727488325083 6.340360399077257 6.970716737299514
Cu 9.255764423939354 4.233326867358439 6.970695430749421
Cu 8.98794899016789 8.300989737150227 8.268761706095965
Cu 7.087175952116349 4.546339421089559 5.676197456254104
Cu 8.987898291214966 8.300996286775698 5.672685158643589
Cu 6.968416899268389 6.977175931079046 4.8019429592057685
Cu 6.859180575570562 9.482004652546113 4.894646129534747
Cu 4.884160623857728 5.577903467344914 4.89690600632815
