22
Energy = -59.75135292 eV
Cu 10.25418471459161 8.0257526075707 6.353078583550959
Cu 5.024270447062879 5.658233773958358 8.7413205780908
Cu 6.317132474431573 6.156567697401533 6.713336322629857
Cu 4.197571246106225 7.3207179309258095 7.1402208794292585
Cu 6.113260837768324 4.009294848562834 10.022055247755214
Cu 6.935862428222661 10.195108933973298 7.68883719009381
Cu 5.644391518694547 10.128865699317739 9.809552401632136
Cu 10.502350138063687 10.359254997628636 5.695475257504505
Cu 6.115985989783286 8.47532186139733 6.089258417368063
Cu 7.947800147669661 9.224994748551085 9.656250791262796
Cu 8.245098159875027 4.719514864475848 6.336594616108454
Cu 4.5753358704472085 9.683319003884304 7.654240496665273
Cu 10.052676874509986 8.03504258201712 9.001296352844555
Cu 7.500446979058794 5.787198064754858 8.87659368217465
Cu 9.703942038031094 6.007882713398773 7.692088519965201
Cu 9.402587593970699 10.027306703449897 7.803270207548926
Cu 10.259843880198366 5.663388440583578 5.383384982283781
Cu 8.073115538073656 7.8455135853482485 7.624537739743044
Cu 8.288145558833124 9.45853057922431 5.712599481360125
Cu 6.429368841468408 3.9097247147602614 7.680198858227298
Cu 5.922740629857474 7.946962458457398 8.778788627863817
Cu 8.1787477312787 6.996939534555385 5.299408629003409
