23
Energy = -62.83807835 eV
Cu 5.112996012387379 8.748827284703346 7.3709463154150825
Cu 6.785502985168162 7.393083849733481 8.580154360176133
Cu 6.652400001941734 6.90244056312833 6.138795278519861
Cu 8.591966586063686 6.072633670591241 7.6564563096451375
Cu 2.7401074411866415 7.81914717442178 7.6471410283640155
Cu 5.788687144758862 8.95148244675765 5.049334356822539
Cu 7.517828278174629 7.80555698600306 3.7727624209190918
Cu 8.973909362192005 6.539624097754966 5.309001084039573
Cu 3.9781445488166565 7.389778376163719 5.687844039033721
Cu 6.4631890122935935 4.976682188705227 8.082517075005295
Cu 4.626990770680885 6.404932899552478 7.870274909332982
Cu 8.34029374492758 3.535805922779094 8.134193888778265
Cu 5.253115040428932 6.891098173027072 3.7765811103753966
Cu 7.847024044233183 4.437311196106505 6.006489223395469
Cu 7.215737486737966 5.39112603699752 3.9691207649428417
Cu 6.554678724515646 6.3361640322898936 1.8966009628880482
Cu 5.14715526771835 4.883780965845746 5.658409677537361
Cu 2.736264380934364 5.499820353467842 6.595590971157486
Cu 4.226658606103289 3.949710754417659 7.78726456300457
Cu 6.1981010320875365 2.8673896127992737 6.882193171769937
Cu 3.230744529335376 5.534030897067846 4.219672755955834
Cu 5.106805106543519 4.565454004130354 3.0246524682090015
Cu 6.4291823241785835 3.084096487558179 4.482595109867913
