28
Energy = -79.66654621 eV
Cu 5.638305061623842 8.75311929630444 9.076954087226387
Cu 4.437497127978887 6.598097245519797 9.264996129784084
Cu 4.757635983900447 7.71290790591501 7.067276520030513
Cu 6.675704337824129 6.726235853466721 8.253335461648167
Cu 6.904047196305739 8.96438121958087 7.013332904299794
Cu 3.2636328497601506 4.463212978083537 9.351449925281452
Cu 3.4510933422247416 5.579093560882481 7.229898013378275
Cu 3.8314162917751955 6.658657382997997 5.025436359047952
Cu 5.936235647770916 8.006746675980882 4.947693375194699
Cu 7.977398818431432 6.935225321662105 6.23805478261958
Cu 8.169277666015175 8.971364665621687 4.834117719034283
Cu 5.493535901370783 4.542643188099203 8.344741267751143
Cu 5.7701846222311435 5.569055627580304 6.052803277194717
Cu 3.7200094369188825 3.11968272596343 7.357169274316827
Cu 3.337236129625343 4.2345519387272 5.222283610478181
Cu 4.615755758383574 7.602857944110322 2.912204975429188
Cu 7.745082088090125 4.658509720129771 7.262425448248004
Cu 7.0370724205875 8.163340297192056 2.8128569187834698
Cu 10.154971870199217 7.68525487244611 5.428145642934189
Cu 4.188395701565995 1.9235700795780997 5.297442049358106
Cu 3.877993237733258 5.245162334503692 3.0422303722226864
Cu 6.217879682848602 5.9184189110818535 3.5357080400553365
Cu 6.072070618816366 3.072977229066877 6.365125830304051
Cu 8.56416563219237 6.6115708238175825 3.9240792077733118
Cu 9.666999084515629 5.296978157886158 5.807893466321448
Cu 3.2879331387234356 2.8716846673264245 3.2438206676560806
Cu 5.466129227514149 3.6060228297467023 4.043536124862935
Cu 7.636781282571523 4.395400868993323 4.867770602404698
