20
Energy = -54.55370327 eV
Cu 7.7064927448996166 7.50269416417138 5.154441744713093
Cu 6.478236859729191 7.220621214552704 2.8949199874489993
Cu 5.206957199410738 8.25563239030899 5.775793773727518
Cu 7.855169722956806 5.333414314254194 3.8671382345721814
Cu 6.683825511179459 7.157886967614919 7.34739680196873
Cu 7.812100831907791 5.222286584102414 6.341974037236296
Cu 5.803133948322817 6.1425927935591425 4.894729730395862
Cu 4.271692262022694 7.044003449384347 7.806900147413168
Cu 4.051742892975299 6.713402238082103 3.3263579523594213
Cu 5.612045389546144 4.8714294099442155 2.803632443326554
Cu 4.998470756640145 6.583320286007661 1.1098506074624042
Cu 5.31829481463953 5.053083380974687 6.945068361696883
Cu 6.862369171532464 5.123923688698365 8.7326587461539
Cu 3.367897728877787 6.655787215297791 5.639820926045639
Cu 3.9606072313838303 4.500837431353987 4.71113832823776
Cu 2.9955406380922502 4.72917435960157 7.08117705558468
Cu 6.820800068080068 3.13005948836977 7.240945474957223
Cu 6.331955202381864 3.6868666424142935 4.903235639095208
Cu 4.862208605296484 3.6516154693300673 8.754973085266752
Cu 4.51333655876813 2.8097342161311656 6.401837818629667
