25
Energy = -69.93684917 eV
Cu 6.211002465986038 5.919345830014283 2.3990612212299074
Cu 4.059030555731965 4.961548977520169 1.9377377764100006
Cu 6.073475885781173 3.432440246668824 2.028079016668811
Cu 2.4495125899585033 5.147910116821346 3.7937196651293275
Cu 4.136831692136403 3.27592817517066 3.6170104225862403
Cu 8.187923468444167 3.014958586772186 3.309173010113648
Cu 6.268440402464775 6.836800779177507 4.662771590742481
Cu 4.158095670574776 6.944204734828714 3.329068610015802
Cu 1.9741727881922626 7.485693685699586 4.394281137116226
Cu 8.333536396307823 5.476997899633937 3.5966592173848158
Cu 6.117325524451036 1.8394100942903413 4.006236384750382
Cu 6.407120698256577 4.292931358848507 4.258646156655549
Cu 3.784891033159087 1.275435075311489 4.894475969459927
Cu 4.443034804244656 5.259497510640472 5.219587233621296
Cu 7.7527594949517065 5.439706982028015 6.009920047885702
Cu 4.020697624655993 7.663473108321778 5.714892452607296
Cu 2.7737205862824315 3.4579647812988834 5.656625582962921
Cu 7.656108982879945 2.887424029560878 5.751131646755016
Cu 2.196839428417241 5.823849356316393 6.22840821266898
Cu 5.14511254756878 2.8995990114787253 6.014952324982152
Cu 1.8389722512043918 8.164809767860316 6.710550757971888
Cu 5.731126187939707 6.438262493029295 7.062850428123637
Cu 6.444231894541613 4.170316669291956 7.549289279041948
Cu 3.4881323538671873 6.956898521716483 8.002710815871604
Cu 4.022106870721256 4.608794406418263 7.526363237963745
