29
Energy = -82.58922432 eV
Cu 6.543927170177861 7.075936826322855 3.407960392871177
Cu 6.929698108253946 4.730975104092675 3.6610863167667014
Cu 4.609117899225914 5.624191428190777 3.367744432176119
Cu 4.609990846397487 7.823281030150931 4.673294639064205
Cu 8.49381629809596 6.489880881829085 4.778894419251553
Cu 6.900287607415769 8.48448743315482 5.316238814668791
Cu 2.6669678272325115 4.1290563232901905 3.5839895456803683
Cu 7.314310562715888 2.328099576254525 3.9706155073636165
Cu 4.989670646509754 3.186819482523212 3.646344230779749
Cu 2.5978658899495572 6.389448738238753 4.670838487213152
Cu 9.056670227893854 4.057002522454049 4.526547845648787
Cu 2.706055341781542 8.56106570987417 5.958103288476503
Cu 6.145768323437755 6.062858560651025 5.753234647224895
Cu 9.25621883950161 8.795996489981187 5.688576083334741
Cu 4.031748766687581 4.545745028562829 5.46606272099781
Cu 4.974525153531245 9.598525994302072 6.3837925074224735
Cu 6.2237531574765095 3.4253592407817353 5.792237421591152
Cu 3.828440049723287 6.628855049786408 6.822178601456437
Cu 8.366058833992136 2.431693808171547 6.231035103915051
Cu 7.459282561858993 9.712800961437809 7.259935352631535
Cu 8.28486757169031 4.855911926249575 6.6506943178693625
Cu 8.194011474451004 7.282593657473762 7.115572775970262
Cu 5.9248818811910215 7.872948418715874 7.711017400060684
Cu 5.0347633696175595 4.60615931152203 7.621769785474626
Cu 3.6558259967373 8.571445111638532 8.251920545112963
Cu 6.955665326891614 5.785264838214637 8.533204871514648
Cu 7.058290623685306 3.30373775569579 8.1245143139131
Cu 4.595193186884882 6.458083087654594 9.177464530336357
Cu 5.646161981067942 4.326364133558864 9.912558684478345
