27
Energy = -76.22574965 eV
Cu 8.707329551771947 7.829424433283226 7.904505671946265
Cu 9.281107955127888 7.144737030267878 5.611099395390686
Cu 4.401870756837499 7.384491877653721 3.8092331484638273
Cu 6.282966496144051 3.349667601500579 4.961039678292063
Cu 3.8298652254576475 2.7636207635705703 5.117887740311901
Cu 3.2404099292370705 6.7544322095790905 5.822243055375295
Cu 5.150408647072697 8.331530828369155 5.9852876049924415
Cu 7.68053924489623 9.099810825033135 6.106391505409398
Cu 3.1391870625778626 3.1274408530380655 7.449653187499052
Cu 6.387998693685979 8.495947370015632 8.115573809503692
Cu 4.692990908154374 4.780905163262178 6.257228711321555
Cu 6.949230074471608 6.039843520619397 8.768559257379403
Cu 5.367767983299279 2.398189891956744 7.019762347058794
Cu 8.264998011410356 4.848999375897534 5.142592723136542
Cu 5.00646863148214 4.389833540249911 8.635662163624303
Cu 8.969745161982745 8.90813755450072 4.007795117070197
Cu 2.728187919268463 5.444181103276336 7.845076919337418
Cu 3.798651882547465 5.018128638065908 3.965172837892532
Cu 6.941174471991941 6.6632409509656005 6.443826026787053
Cu 6.196729496449023 6.847144014388411 2.190247711394174
Cu 8.336639345141434 6.592015368837677 3.4306495885078725
Cu 6.663334403846679 8.22281744661661 4.090951564232215
Cu 7.023706472138964 4.165042496807152 7.164195482236874
Cu 2.1546561831793922 4.489407421905365 5.672155132165602
Cu 9.01333257220942 5.491987869419434 7.397439674225328
Cu 6.116982435221668 5.7202593265376045 4.31762249346918
Cu 4.742928863708899 6.7679709036958196 7.837355832290256
