25
Energy = -68.47852214 eV
Cu 7.371319402033528 7.799206389886767 3.4734094017221495
Cu 5.225601201405586 8.314724093592519 4.666195257261999
Cu 5.921419238192265 5.9878763421839905 4.123040043043012
Cu 3.6189813159004505 6.509620509895451 3.8638613885802005
Cu 8.292352285841654 5.674685677057363 4.590746444189878
Cu 4.289697117863929 4.338026380563714 4.971710459628876
Cu 9.569933145368157 7.734817045595334 4.526720694806656
Cu 7.242950895443169 7.517339806395967 5.8548678586761245
Cu 4.488529410949513 6.46716086277366 6.068749298680735
Cu 6.556590693563514 4.86985062540618 6.237347492281003
Cu 9.019877560283142 4.141737659207345 6.304485469473477
Cu 4.589870708836999 8.694356709472297 7.061371477575292
Cu 9.43012335023829 6.560940754184334 6.670555845675442
Cu 9.07432683167884 9.044302307475064 6.456445804378966
Cu 7.318864950611529 2.952419618149272 7.515306811487048
Cu 2.9743216161227983 2.5733288322128045 5.784381334678979
Cu 6.797667082041129 9.64096122258314 7.012861260913862
Cu 4.980578368700638 3.014985351817893 6.913316002999448
Cu 5.9420319863912825 6.776640770304308 7.857154879043996
Cu 5.008604883991102 10.821827581294553 8.101704713943985
Cu 5.843981653360396 4.497284673105017 8.67807304256206
Cu 8.103194264189984 7.827657367300758 8.329905811588551
Cu 8.071738416680923 5.31721962503667 8.248979714434245
Cu 5.976731750573142 8.834644393464066 9.176790313022046
Cu 6.779338205349842 6.577011736653187 10.000645514962866
