24
Energy = -66.50214599 eV
Cu 8.248879496002601 6.459124443766184 2.7983600113259697
Cu 6.160585201430488 5.780480870763385 5.689926841717938
Cu 9.714890907461955 5.983530400878679 6.632515927290531
Cu 9.957784790946143 7.0650171105201265 4.41928186451367
Cu 7.4312257414155205 9.561569738312732 6.626424396604684
Cu 8.33553438742346 5.214654197811325 4.799555828529811
Cu 9.58839922951736 8.394730368243986 6.390040095698302
Cu 9.542722792384547 7.591738178309112 10.494629465529963
Cu 3.2669301176546957 8.445034435870022 6.840844250542596
Cu 10.734297221146855 7.3260871578322355 8.372210607567586
Cu 7.483958714310532 7.251834667147088 7.299913314992949
Cu 5.054965286549443 10.172690178818767 7.160990264739063
Cu 8.757352420799874 5.9101556118813035 8.923524987503272
Cu 8.089923566844067 9.46763236846683 10.950523041572962
Cu 4.2307898314826735 6.237886134049016 7.084695634531615
Cu 7.723994889452547 4.563777627543594 7.124277602341605
Cu 5.485111563145294 8.144317276435755 5.901863349480415
Cu 6.695286035773866 9.890372803838254 8.95257119672853
Cu 8.937926824344622 9.0367472824792 8.622366951087523
Cu 6.16855081711626 5.69593695914456 8.618893244498368
Cu 7.153802184317469 7.597230261982333 9.803799864328552
Cu 5.317049327674343 4.009439408654773 7.161456247292558
Cu 7.657188254512851 7.631471926880348 4.876028989349302
Cu 5.1863614093527515 8.059292978260892 8.370775094918027
