20
Energy = -54.47911884 eV
Cu 3.055192941126034 5.121098316923781 5.5371460022842305
Cu 4.887919891323512 3.628802768709601 4.648542193858876
Cu 5.036886936284158 6.024218017021616 4.434921871233919
Cu 9.588034984268043 7.751640147428719 4.335739131855346
Cu 5.568120443203811 8.41795229054012 5.060955419379014
Cu 3.699246540903135 7.8072809597153725 8.775852221113785
Cu 7.776078475064807 7.11486435229967 8.16459077985712
Cu 7.148204555415068 4.598083619664047 4.947939657393255
Cu 7.331850119196997 4.708166917530333 7.533093339958961
Cu 8.830116129219276 6.15751182739332 6.0901382983434065
Cu 3.0633387829378367 5.624029152865306 8.029282939088867
Cu 6.399335751473746 6.569467156879198 6.329482056545287
Cu 7.88941650248426 8.480828269270027 6.014599362016385
Cu 5.487535749857332 6.190418656198797 8.607183128051734
Cu 9.279020281941646 5.449897855279954 3.833145801429933
Cu 4.958418820023275 4.522324407845848 6.894258390788885
Cu 5.745673863541068 8.525304555186612 7.596507816293787
Cu 7.343197860928415 6.931177361087314 4.083708103533201
Cu 3.9498991339797107 7.207419254251568 6.439673955127227
Cu 6.484776327190655 2.742129137942485 6.334176047854925
