22
Energy = -60.5620365 eV
Cu 7.605650309561388 4.104052735403852 7.47947178632514
Cu 8.987705996633263 4.793551394120231 5.535768817342151
Cu 6.876362372709484 2.9296052818859524 5.088756284084609
Cu 5.354492255336823 3.501426682905029 6.974169416458227
Cu 7.9634804242878925 6.540002263537949 7.200652889460994
Cu 7.639539480320688 4.927885665464807 3.3973299389771956
Cu 5.635089283152601 5.7527999326924535 7.800696614018299
Cu 6.682590078897514 5.223368047508752 5.557721621694481
Cu 4.304695956905498 2.4173838605541325 5.162560672565304
Cu 8.133177764257276 7.053090368464705 4.749356171322857
Cu 5.246712961135388 4.218505033044249 3.7255735021317085
Cu 3.031596798027442 4.029632717826138 6.788992841777756
Cu 2.827341807309576 4.098764910535441 4.392419146586207
Cu 4.380194844047992 5.663254501311375 5.61791443282969
Cu 6.225879240143027 8.08450814934334 8.23440058175921
Cu 8.01645995627336 8.8609572486641 6.6260377134589055
Cu 3.98059985939559 7.478246399593996 7.190856646598509
Cu 6.055427106025664 7.680619273266146 5.899354695329337
Cu 5.86438633504153 6.663300090523062 3.6502837700438606
Cu 3.535801372015692 6.095191027033161 3.2592283943398326
Cu 2.1715404076509737 6.303893924595901 5.517608390832301
Cu 3.9525776403652997 7.953571893908177 4.730459704891628
