28
Energy = -79.27063134 eV
Cu 4.872706872942373 9.456311680000772 8.29523076334248
Cu 6.773863632492913 7.995439912992871 8.883457195276964
Cu 8.634915468512634 6.5987787582953805 9.486136510468562
Cu 4.695860268195443 7.050102572980732 7.946055383111777
Cu 6.654661027993658 5.526533930795798 8.541027305520641
Cu 9.264942278129627 2.8931230431426944 6.515304415869637
Cu 3.7276585623765293 8.696239432375961 6.313923545744468
Cu 4.621484449215459 4.616417304643319 7.5019608481033755
Cu 6.936226513744272 3.543576258954359 7.079904639163996
Cu 6.213014592338401 8.453296540280768 6.526971577384092
Cu 3.3448641292928083 6.265199507851443 6.065388871741935
Cu 8.18560606946424 6.936906091486918 7.115633245446679
Cu 4.655391164568956 2.3194919290766833 6.962071488465115
Cu 8.904293792286786 4.754094145098677 7.95823926659525
Cu 5.0987841568481365 7.870704896343181 4.429352023848497
Cu 3.0740771948106476 3.8958890989417525 5.699336248772457
Cu 6.00242761105433 5.956817324712848 6.042710527571995
Cu 2.68147997988091 7.7501650830122735 4.262442034969911
Cu 7.546662621457718 7.3212817042365135 4.776120627551675
Cu 1.952526612443856 5.451110489903532 4.171380808644715
Cu 5.37405509142463 3.637265200696554 5.151826231821383
Cu 8.6061893881154 5.081284309007273 5.526206275188941
Cu 7.670973745941425 2.896026117173357 4.776927750308582
Cu 3.9899514650261194 7.317184580658076 2.276789702364101
Cu 4.351404745149806 5.528187514559656 3.871561673488336
Cu 8.737878916345387 6.104125594502174 3.1472508613173042
Cu 6.789993945297643 4.970447874391833 3.8247095612878046
Cu 6.391579190881236 6.971740361001126 2.6058987050420606
