29
Energy = -82.67552594 eV
Cu 7.037046289914148 8.984344142921454 9.445866757238923
Cu 8.256032529431241 10.479234018781652 7.658616558464605
Cu 7.037062860750603 10.253344266852348 5.530595784736912
Cu 4.9527303018592805 9.077208365733847 5.812159944509595
Cu 5.041575672889273 6.874154802021357 6.799561883895711
Cu 3.3343099574245807 5.348958877562865 6.109863356787694
Cu 4.513180374274342 8.637172981655157 8.408106926321853
Cu 2.9185008193610695 7.802846220595951 6.402838967354902
Cu 4.504681151493491 6.960190859739986 4.506518099735454
Cu 5.739930493354832 4.929480377582273 5.3590342675296165
Cu 3.3763367060080913 6.430994910979984 8.4705998166537
Cu 7.037038440570806 7.140819922997702 5.066311043842803
Cu 7.03708292018408 8.34101343675743 7.206115491573683
Cu 5.818062666845099 10.479220936542218 7.658638362196514
Cu 9.560898251165547 8.637157282968001 8.40809907697851
Cu 7.037041929167829 5.767651298356873 7.3121381553335425
Cu 9.032489870311498 6.874146952677857 6.799554906701506
Cu 9.11939608216639 4.585463994956134 7.852509034317903
Cu 5.760340164057418 6.700146838069579 9.238014543675694
Cu 4.9547427215739255 4.5855337668988145 7.852501184974244
Cu 8.313767242308899 6.700205272071422 9.23804681319915
Cu 7.037025358331534 4.501617284976446 9.321659618013774
Cu 7.037031463376443 3.4337158647520596 6.955955301473071
Cu 10.69775761811896 6.431031541249595 8.470628597579973
Cu 8.334195228146369 4.929449852357252 5.359043861172026
Cu 10.739727676999056 5.3489580054137305 6.10981364427865
Cu 9.569414044782851 6.960197836934349 4.506546880661888
Cu 11.155617052796641 7.802846220595951 6.402830245862107
Cu 9.121300355370158 9.077210110032437 5.812146862270323
