21
Energy = -57.55694592 eV
Cu 8.29810064269851 7.111376456104226 9.819637798238398
Cu 4.426201203877903 5.742657879586242 5.743844106810735
Cu 7.690536743131638 9.486052872970864 9.25329275964755
Cu 8.853550744599785 6.234269212092261 3.8970440304989293
Cu 7.439849080642112 8.133936779273322 4.654932635198099
Cu 6.771487383990156 5.3003137264203835 9.26058683747813
Cu 5.0671056173633735 7.6387122891010035 4.231880622578732
Cu 5.459809602730728 7.762885794076083 6.606022503578494
Cu 4.707823925852472 5.965927019020735 8.111661924897579
Cu 6.348325115838036 4.552667606089888 6.92407570957651
Cu 9.702914928719764 5.894591327271809 8.076080326251965
Cu 9.387300633315775 7.347647069614273 5.963090919675543
Cu 5.673294930813147 9.891394831811612 7.870145151833463
Cu 6.683213282983445 5.896340123654615 4.946810636465661
Cu 5.775657702575598 9.80005001766976 5.399076003785695
Cu 7.552703453110632 6.696607144267246 7.428724721392471
Cu 9.549785037541529 8.312571356523863 8.1727413711079
Cu 7.7129416857186355 9.154465271261365 6.815305083559871
Cu 5.06704357978771 3.679088856015309 8.764736048192983
Cu 6.015149476419917 7.7735239866009405 9.050622306934889
Cu 8.657633817262102 4.995405626882838 6.031368011035707
