24
Energy = -67.29933435 eV
Cu 8.915183157924723 10.105038128500034 6.744509779692027
Cu 6.460545347820946 10.609834422626243 6.280235192248963
Cu 9.787093601069735 8.032501049780517 5.527080142901168
Cu 7.418987193280226 8.51176146430069 5.837668551164836
Cu 9.093192293042081 7.844397259092292 7.820421629815048
Cu 8.16135574098816 6.2499962035984105 5.8580342772597636
Cu 7.188308353695401 9.396824531388173 8.34392210516105
Cu 5.267335995418798 8.940462664113536 4.75066434142619
Cu 10.297505305000422 5.820697229802532 7.098010335435197
Cu 10.210965000864594 6.531495195001903 9.506375851947077
Cu 6.701034833346227 7.098523196595745 7.745957233619621
Cu 6.864666135008515 7.0893046942347615 3.8413628408017257
Cu 5.007586618189868 8.816859380290252 7.177900831887079
Cu 8.580279308292011 4.015788613394868 6.381657342275047
Cu 7.882957322727413 7.3681728383969824 9.919389840925394
Cu 4.426598238140449 7.071116603657534 3.4971435522824375
Cu 8.369023316735726 5.380751172600439 8.470032378360756
Cu 5.468019638487283 8.02415633250992 9.557190800318267
Cu 6.822206269525198 4.676839962669178 4.683597961041858
Cu 3.349926637984665 7.775401239287866 5.706415337780943
Cu 6.334764212500319 4.796853283374481 7.114345322522406
Cu 5.415484287620214 6.534404048359622 5.628989651614391
Cu 4.35236249230541 6.497249904837597 7.825483925677367
Cu 6.052640839199792 5.613736480985222 9.490681624537023
