21
Energy = -57.97941559 eV
Cu 7.02674965618356 10.704820999999999 5.112229266926956
Cu 9.100838154953736 8.269782984193878 7.964422984482716
Cu 9.01215875684584 9.444850912199257 5.8283704451085425
Cu 9.01215875684584 4.60864840016786 5.8283704451085425
Cu 7.02674965618356 8.253029940623104 5.014320226031004
Cu 5.0413405555212805 4.60864840016786 5.8283704451085425
Cu 7.02674965618356 5.800469371744015 5.014320226031004
Cu 4.949584870579518 7.02674965618356 5.795730142165093
Cu 7.02674965618356 7.02674965618356 7.189980320353806
Cu 9.1039144417876 7.02674965618356 5.795730142165093
Cu 9.100838154953736 5.783716328173238 7.964422984482716
Cu 7.02674965618356 9.529694211125754 7.24915695056768
Cu 5.041942376223258 7.02674965618356 10.061009400411312
Cu 7.02674965618356 5.788350154455446 9.367848320540247
Cu 4.952661157413388 8.269782984193878 7.964422984482716
Cu 7.02674965618356 8.265149157911676 9.367848320540247
Cu 4.952661157413388 5.783716328173238 7.964422984482716
Cu 5.0413405555212805 9.444850912199257 5.8283704451085425
Cu 9.011556936143862 7.02674965618356 10.061009400411312
Cu 7.02674965618356 3.348678312367117 5.112229266926956
Cu 7.02674965618356 4.523805101241368 7.24915695056768
