20
Energy = -53.88456159 eV
Cu 3.566358274380133 4.782371633884907 4.64889252958151
Cu 2.299494413566998 5.793954626542391 6.435591761398691
Cu 5.581254429114598 5.77597199853604 3.6992386483852364
Cu 5.649200663496153 3.6981364983602507 5.116608364714895
Cu 4.292457249130618 7.013347641238601 5.456138166738469
Cu 4.408953717785196 4.813401017159971 6.970490906308453
Cu 3.776843990834942 7.035516046368179 7.8786177430445425
Cu 7.831430630611631 2.8738128464562833 5.570919441253455
Cu 4.906235505734847 8.04499041740939 3.2313481488147207
Cu 6.591238340283289 3.866098584573627 7.511182978064404
Cu 4.992041488764127 9.417969000454256 5.218104907574425
Cu 5.793129244958246 8.155707070347031 7.1139355307135
Cu 7.751842898476973 4.849117594573529 4.188386055248434
Cu 8.09592339081448 5.351274402411279 8.894376342256797
Cu 6.709335727370225 7.839460833660666 4.783130451923049
Cu 8.696453158951272 4.900414585318047 6.5905381830985865
Cu 6.518581984270617 5.831329134504402 6.0769290672818945
Cu 8.81395290153131 6.8513778234590355 5.109764576368271
Cu 5.897092432562494 6.112647938528109 8.503311790682705
Cu 8.002870617669696 7.257089506061366 7.392530756761165
