23
Energy = -63.84019585 eV
Cu 8.177820659270244 4.145573318334052 5.869721595268456
Cu 5.595322044233532 5.743263998927504 8.79685504017992
Cu 7.51531995474609 6.119141296331868 7.243827466451244
Cu 6.11364067411525 4.153241332468243 7.129187589734507
Cu 6.775876872200251 2.0906919355880356 6.109000581008755
Cu 9.37118348570781 6.265481283624794 5.588261319486767
Cu 3.8783389270675226 5.405634711155933 7.026448162714879
Cu 4.3660282856835755 2.868140639809231 6.107687042130839
Cu 8.95597967171468 7.616335814025647 3.570287955087977
Cu 4.149870053949249 3.5598782428724873 8.498601414812521
Cu 6.076748850331779 3.7811789577090043 4.608949979543234
Cu 7.470135823685733 7.782658603798139 5.456360146087349
Cu 6.507980384215836 7.5306022037374145 3.1591732676398485
Cu 5.582431732468664 6.147717006719364 5.1742042163077295
Cu 5.461799966113467 7.506867676198317 7.1481681817350715
Cu 2.245134380591383 3.629336308474222 6.929259025404803
Cu 7.732614708756245 5.557196305322474 3.9349996403105196
Cu 3.6525807429119093 4.759471264089741 4.587715753659545
Cu 1.7046117095071596 5.612249227524923 5.745830969626602
Cu 5.216619055609003 8.614445624894504 4.947749937916456
Cu 3.9923841039293624 7.042611663200904 3.4552276975324125
Cu 3.3536673783053232 7.363522171157286 5.764122794831506
Cu 5.4924128253700335 5.2708476946463945 2.849555737518577
