27
Energy = -75.6855325 eV
Cu 7.655023742412558 2.369728104218496 4.820221726383862
Cu 8.80918137549971 4.028758625719011 6.3392386968383905
Cu 8.321737720234317 6.2272314593272675 5.34668037672084
Cu 6.619619893611323 4.4794333032854 5.128480111798373
Cu 7.054404952836813 5.167118785866125 7.545522472122882
Cu 5.146187808302249 2.5569598207600848 5.048589214257156
Cu 6.684106702350968 2.839195187751463 6.956460299494509
Cu 6.504976856844488 6.377978957369774 3.5616597533503374
Cu 9.268160769367434 6.174992033505947 7.59059119461227
Cu 9.11009195222565 8.333121891067004 6.32684792943161
Cu 5.149188776530398 4.257849545364269 3.224081901374927
Cu 9.228911193714103 8.280303604301766 8.768587038971008
Cu 5.805961016706452 6.6278062302024345 5.939842754571762
Cu 7.920435342488626 8.270558160784091 4.164681805978853
Cu 7.635743656261273 6.4304810623587025 9.516551284026251
Cu 4.722976984681662 4.361659714094012 6.911397616793322
Cu 5.224615736551314 6.443208675962835 8.412207507452893
Cu 3.348300887418626 4.1391960299011386 4.802254146534069
Cu 7.121111558844516 7.863758089293585 7.731327240781507
Cu 4.101066156538742 6.341176341100441 4.015915016213508
Cu 6.950895509488293 9.490302647848031 6.018737003660714
Cu 2.250964833775577 4.377367368006694 6.878463937334051
Cu 5.427819874755488 8.491245439632268 4.401857799279511
Cu 4.823681065700922 8.58491623252239 6.873305962789996
Cu 3.4164410980940283 6.465532690185042 6.779514534600298
Cu 1.8610956465196815 6.052930524998583 4.980383688467372
Cu 3.0769882170768237 8.206878803405056 5.156288314991909
