24
Energy = -66.79366298 eV
Cu 5.678504651921968 7.295589328780982 7.389830290495554
Cu 7.034464646251004 5.5852086685464455 8.457850441191704
Cu 4.743254485408416 5.107484477741843 7.867623389681282
Cu 6.519874041635077 8.54336014014789 5.567894010646173
Cu 3.293204990105436 6.979316044882729 7.327446907029518
Cu 7.9881021709392925 6.861165847057052 6.553956390234011
Cu 6.869279850646585 3.1717195527309796 7.644226417163202
Cu 3.99971938680987 8.628654528382146 5.510326311552988
Cu 4.6625372993067336 6.385081363117493 5.208283984554612
Cu 8.916536093775223 4.608242035235015 7.342524718390128
Cu 2.956988555011504 4.813990675301844 6.153332188709834
Cu 5.464754041371911 8.208627243673467 3.436135505502479
Cu 6.540929635120472 4.864320717548484 6.0425364122084915
Cu 3.2061859096510674 7.597112074520529 3.2757381007319246
Cu 8.921201265258366 5.208457138460882 4.968664151894487
Cu 4.508112247167943 3.031765417739655 6.765828462268779
Cu 7.06236329168901 6.569710058195714 4.239832432901333
Cu 8.482925746909666 2.9727371012254786 5.654920209577805
Cu 2.052271740589726 7.044291265737843 5.283932883378948
Cu 5.1497647272388125 5.766208904328607 2.9005503951873846
Cu 4.655919045853011 3.9485532372021876 4.50997319602559
Cu 6.261734021059254 2.3054900745066687 5.3001068956640225
Cu 2.8114501575097095 5.298117345825662 3.7333626364429335
Cu 6.995067859839211 4.151037683167979 3.747912687084816
