24
Energy = -66.78125348 eV
Cu 6.583142238863611 3.3223953455018416 2.4311682353384643
Cu 4.561329116212728 3.182683820807829 3.5609137951848924
Cu 3.1202804195343066 5.109155233328128 3.5730702049416405
Cu 5.74579867627345 5.445478695465987 3.588805411164688
Cu 6.657792659804919 3.567592411511014 4.966133749016187
Cu 8.154556216494536 4.779136427464689 3.349397819954504
Cu 2.140512142199281 5.449439554344545 5.821476098016314
Cu 4.392567332444316 4.53656381542046 5.541004467786601
Cu 3.8842447415085486 6.87833676506179 5.048067068847352
Cu 5.870136940375195 4.069222196260406 7.322446071845947
Cu 3.4768272418121624 4.655543871828421 7.765345945345582
Cu 8.040931212583455 3.169786528443176 7.156961907736142
Cu 7.993531808516363 6.985441220619963 4.281164106386416
Cu 3.1475284404556527 7.063776642497953 7.42866413683771
Cu 6.328323529842641 6.306197179169095 5.968305161298382
Cu 5.77507241720822 7.93879404311823 4.0838861386744645
Cu 8.506437495599341 5.015263336023089 5.728957025387244
Cu 7.667979287284262 5.51040543653445 8.042616969320962
Cu 5.023020830306948 8.382111561336188 6.557546185363633
Cu 5.2555000719069636 6.207342281616387 8.327003302825005
Cu 8.710991332693041 7.199241715756171 6.649439517463744
Cu 6.894054690501155 7.9672407482205845 8.090061254310996
Cu 7.2481314672468535 8.86771752432009 5.755118427696187
Cu 4.587253162884161 8.422450123765008 8.910083520595133
