29
Energy = -82.66415966 eV
Cu 6.425291939115572 8.838152740563043 8.840433653186711
Cu 5.052745405607019 6.721526987333973 8.900679074433416
Cu 8.847624065962046 8.62160389673025 8.789181856967323
Cu 6.272028599719724 4.519958811594348 8.77960030015488
Cu 10.061177374571436 6.5416309703561 8.593916605591133
Cu 8.69175434043897 4.569513493142892 8.69937160122361
Cu 7.747770873746147 9.268911768947826 6.687748492026085
Cu 5.660863276743755 7.899796801626563 6.764029256514296
Cu 9.699555298501517 7.829214518726056 6.541963374427381
Cu 5.578637269438933 5.555354432251483 6.72667604063175
Cu 9.604035987950489 5.3660696719634835 6.494192394759684
Cu 7.568218278847136 4.056793238462788 6.588005720803019
Cu 6.193435082009425 8.878242717064767 4.635717097101199
Cu 8.606001690457568 8.704954916351232 4.468634683217289
Cu 4.820340315339723 6.773783176409889 4.6593956027714
Cu 9.824396980571532 6.630155870201098 4.399898750054631
Cu 6.046297873443846 4.574396988729776 4.582273475282445
Cu 8.463583215100765 4.628658560619587 4.369449941662461
Cu 7.320905286429034 6.526872909232256 10.105701216253166
Cu 7.654624806031654 6.672683398758521 7.834222912396926
Cu 7.5287925377890215 6.659595188678464 5.4464398335877515
Cu 6.9534234045538446 6.803732313385599 3.222878775654214
Cu 5.500708033004287 10.233114002040491 6.758559859285042
Cu 3.792011323378456 8.86633570461152 5.573428051592497
Cu 3.9368603750212077 8.842289590614357 8.152228239213972
Cu 3.351040027240731 6.7994427449848756 6.877039841511444
Cu 3.7970328616790545 4.6976790380328355 8.113475254796441
Cu 3.652872130406192 4.736199313322654 5.54001487708499
Cu 5.267967160894302 3.232051224973834 6.732201481630948
