20
Energy = -53.64926683 eV
Cu 8.051724845946953 7.275431948606569 5.288466358564036
Cu 5.570642093349229 9.049108825614178 8.037503448964538
Cu 8.51718573760609 6.436724651853198 9.25232059625125
Cu 5.010480786456163 4.035984084690038 4.814354424240298
Cu 7.087791001954761 7.20652565548806 7.526068494439156
Cu 9.42576566547665 7.807759638358229 7.313336198141772
Cu 6.538486564445826 5.037967151617166 8.63652419777959
Cu 6.489164463615903 5.202955391756809 6.223499558359428
Cu 4.707070419469071 6.708906246775708 7.862278960993978
Cu 4.500727066255016 4.384096491906171 7.277907928955422
Cu 6.150232234955091 6.249755202721809 4.021424715677625
Cu 7.872868560385075 8.89507118171168 9.028204643749106
Cu 8.271377506101853 4.9916265859722495 4.610251951148399
Cu 6.175700179853474 7.245392339999309 9.779830642941752
Cu 4.347011856396582 7.847141589010234 3.811476413974591
Cu 6.642778496881885 4.05372849567263 3.0939053761117004
Cu 4.120513100489372 6.1812384062985295 5.562825051639567
Cu 7.5883425424569255 9.393971671277964 6.560187752788319
Cu 5.663694842199411 8.070987836314941 5.7608068861833575
Cu 8.749649109251903 5.406833677901764 7.020033472643348
