25
Energy = -69.90451223 eV
Cu 5.268163557625406 4.938143305569244 8.393217949094431
Cu 6.6819023552513075 6.998135963501596 7.915656331988011
Cu 4.363949766588708 6.873036307866319 7.1889804756486715
Cu 2.844084729676663 5.023209227692351 7.734803709681975
Cu 3.6913063336676584 2.8501832998635814 7.769298838210962
Cu 6.069626546411102 2.7824421954191294 7.412923132789238
Cu 5.619935344124109 8.845784100132017 6.566229378595721
Cu 7.273912170740702 4.8142985261732925 6.9271784383586805
Cu 8.828059175797447 6.643164291751558 6.729465088221448
Cu 7.970814125694284 8.886772301334124 6.469010196208508
Cu 4.9350972586704325 4.657530497301305 5.963944531535192
Cu 2.5302177286425422 6.231718274432131 5.7142069505360515
Cu 9.007533562785442 7.798695133531524 4.625116675239546
Cu 6.530888335749247 6.737956952011957 5.446797026902436
Cu 2.7702632622858885 3.69957321308485 5.5799283868764915
Cu 8.33008401704872 5.220611685095285 4.720417902234699
Cu 4.5389392733107075 1.915099665208405 5.755126396672135
Cu 6.727497170160695 8.818979243783051 4.275500195016405
Cu 6.771521733075668 3.2396660204473813 5.0785504518800195
Cu 4.2425936958811175 7.763344668620493 4.9176083333218745
Cu 7.663433733464617 6.88669305635881 2.956604097878895
Cu 3.820583353191478 5.548250484407419 3.8323364593006226
Cu 4.576585094700829 3.266696532542948 3.8311046395273527
Cu 5.307039813868058 7.2066939681567375 2.86358284688148
Cu 6.1893309761592326 5.0284541378312895 3.5263047959107396
