22
Energy = -60.62818626 eV
Cu 3.3593791673280555 9.166089022830885 7.044742583664028
Cu 5.803358459936117 6.325906943101665 9.12225430526941
Cu 4.6161541567870765 8.451668326732875 9.030626157607722
Cu 9.47333101054097 8.451668326732875 9.030626157607722
Cu 5.810964271060142 9.234984233845141 7.044742583664028
Cu 9.47333101054097 8.451668326732875 5.058859009720328
Cu 8.278520896267914 9.234984233845141 7.044742583664028
Cu 7.044742583664028 8.486681998722748 4.968440009303806
Cu 7.044742583664028 7.046190373698203 7.044742583664028
Cu 7.044742583664028 8.486681998722748 9.121045158024248
Cu 8.286126707391938 6.325906943101665 9.12225430526941
Cu 4.536399739006009 7.017488953484692 7.044742583664028
Cu 7.044742583664028 4.23231059581291 5.057804057981728
Cu 8.31974240157075 4.883266993845066 7.044742583664028
Cu 5.803358459936117 6.325906943101665 4.967230862058643
Cu 5.769742765757305 4.883266993845066 7.044742583664028
Cu 8.286126707391938 6.325906943101665 4.967230862058643
Cu 4.6161541567870765 8.451668326732875 5.058859009720328
Cu 7.044742583664028 4.23231059581291 9.03168110934633
Cu 10.730105999999997 9.166089022830885 7.044742583664028
Cu 9.553085428322042 7.017488953484692 7.044742583664028
Cu 7.044742583664028 2.786202301892252 7.044742583664028
