27
Energy = -74.59306846 eV
Cu 9.0462061497186 6.394133088616859 2.707730578735601
Cu 5.236170892930231 9.097583449871617 7.341449622872347
Cu 10.508160110975377 6.370279279746398 4.726244373287727
Cu 4.825959510242257 6.720884407989908 6.932953825268362
Cu 8.149858711210372 7.568689458039225 10.680393855351706
Cu 5.261942605828328 9.482412459818452 9.817910402710291
Cu 4.12743382452866 7.473755982035086 9.075223293684399
Cu 8.606582729703165 6.03423954618829 8.765393490513492
Cu 9.290502099541715 4.426228384646459 4.163417896836743
Cu 7.1503695317521245 4.949929224777951 3.12885219465443
Cu 5.617875382766352 5.751889814671524 4.835326839899519
Cu 7.266512022998253 4.000722284652287 5.380689756978677
Cu 5.782411539769722 8.127674020989975 5.119724552765866
Cu 8.721198847496366 10.011733959143582 10.465100342829471
Cu 9.091781726027868 8.511345916104807 8.632445251517693
Cu 6.7574098072226025 9.259476310769491 11.71060586875429
Cu 7.621120450912347 8.54834637729627 6.580717122377089
Cu 6.703036602713613 11.337867671559113 10.455964279632402
Cu 7.247921520867623 10.121531022616063 8.461693318752303
Cu 9.57658849901169 7.1334197295711315 6.794279187501305
Cu 6.6284907182730874 7.299281499648678 3.011935572419752
Cu 5.700377852841184 7.198667473095503 10.910976120956684
Cu 9.281730451195994 4.798284378752784 6.580959549813582
Cu 8.035287083752749 6.6576605857894355 4.889634844183957
Cu 5.673627088360352 5.516310152607473 9.070933625301851
Cu 7.0250726166975195 5.782912994987388 6.98986450058658
Cu 6.659098496300955 7.623225396182947 8.678731109669894
