29
Energy = -82.38631195 eV
Cu 7.5132648314584145 9.276421783588878 3.1621431902770207
Cu 7.009158848014966 6.91356867134413 3.0521510843460593
Cu 5.169189672729882 8.480754729438157 3.310111212614323
Cu 6.457670542496817 4.514054372552635 3.14968512216933
Cu 8.666970000827282 7.748424030025285 4.696805540870561
Cu 6.53218226717728 8.705394048584246 5.3260566242869825
Cu 7.858971435544327 5.394748000107788 4.873934627447162
Cu 4.6216410759040505 6.070205470410603 2.6749308456873253
Cu 5.470195720732115 6.455989530664594 4.937800343325582
Cu 6.750899771206115 3.2180718912048256 5.246709225711973
Cu 3.0732296425270698 7.486292161477331 3.880649219989912
Cu 9.684178284743542 6.2466591923870105 6.3211682486401966
Cu 7.3956644483207175 6.8789955069967155 6.751425291175462
Cu 4.4696357013941554 4.187629330767505 4.484868036913929
Cu 2.4173015221303618 5.160162337622024 3.5468952840417662
Cu 4.158703175253053 8.246674229384174 5.9301818153934125
Cu 5.744352658235048 4.816774879710139 6.706085107640917
Cu 5.85001239931293 8.473219278964345 7.725310605291462
Cu 4.519739894066933 2.6505751017101598 6.363507266031789
Cu 8.21418288583667 4.363197114722946 7.047391617127856
Cu 2.30433684486169 3.5754449810946207 5.47350538772645
Cu 6.5215693876575 6.357127852670539 8.966086615848601
Cu 6.562649713446539 2.717633815748175 7.7451227676617425
Cu 3.0927588928329706 5.942659180420031 5.747427076017545
Cu 4.42776530579011 6.563060860560582 7.723714323205409
Cu 8.934345151047733 6.077468722904203 8.628652238317358
Cu 7.608466405719814 4.190905597860337 9.422881914000012
Cu 3.3133218300633214 4.3566726069102035 7.52955073083848
Cu 5.198633601853251 4.318778035222457 9.033837055654162
