21
Energy = -56.59223063 eV
Cu 8.122631360604636 5.111674578803168 8.73065364256745
Cu 8.504136148991858 6.7199245669580385 6.846765392819959
Cu 6.6669296637718025 4.896097401799894 6.88317648030583
Cu 9.6277801508228 8.874481627376523 6.4107809888634755
Cu 7.10828901312945 3.2046096138671483 5.183725515566821
Cu 7.3443504956877295 8.862299563113837 7.125338073101792
Cu 8.031779277343139 8.062840741395767 4.773414542098621
Cu 3.1272623589158544 3.9690101566469433 4.523640735712704
Cu 6.057432701577689 7.007188911118067 3.570522802678107
Cu 6.209647973354964 7.170923693975798 5.967683263494593
Cu 6.452505711419065 6.874409811999393 8.39694241452421
Cu 4.831432633486485 4.928111377540179 8.36508838721756
Cu 7.669601809934825 5.546892167799724 4.654097009449383
Cu 4.249970448728226 7.085045519557024 7.33937669216487
Cu 4.489141389758312 8.428579220585656 5.0152846451741455
Cu 4.292865966832418 5.994045851601041 4.980366642208482
Cu 4.839356855661981 3.6371137815092895 6.108639322917356
Cu 8.901324246248961 4.321114208637502 6.460229608729892
Cu 2.435146107353432 7.256895897268845 5.805236700970122
Cu 2.9477915517919864 5.028009626831048 6.774358703025029
Cu 5.63933779115891 4.4831391367585915 3.7513379411376655
