28
Energy = -78.80288077 eV
Cu 5.228144508514532 8.602899219547602 10.135918380441119
Cu 6.862976674898052 6.036221917998111 2.917213019243262
Cu 5.293519370429629 9.614096657634509 5.064238548565122
Cu 4.824507943535284 4.818372047016566 3.672959135046874
Cu 5.539718014205051 7.625863097608393 6.289869636989477
Cu 9.48288252045587 4.06500691111753 9.135195457441704
Cu 10.229134251897593 6.430916228110681 6.577562330008691
Cu 5.282246533104218 6.1426527701211135 10.013466032476735
Cu 9.08866638290973 6.418492090071582 8.79954691065023
Cu 7.904521695874202 6.968306104852675 6.537191117831426
Cu 6.6987967587513495 7.624568802987036 8.478748307957407
Cu 9.41746967713783 8.487400383855736 5.403312388680514
Cu 7.348501666736035 9.708047880727323 9.338188409111451
Cu 8.811723567234518 6.213998046449435 4.402970671185774
Cu 5.926060853442222 5.455414666638645 7.623564106499748
Cu 4.1488613082482475 7.2892205318450936 8.21099237945143
Cu 4.149181002164295 5.598698557892712 5.982270469340342
Cu 7.314786251928991 9.435821522366497 6.4727629429174875
Cu 6.566928363274024 5.403029697487401 5.231436967427506
Cu 3.7351562394743945 4.941043871880659 8.39812219746439
Cu 8.284788593659572 4.700230610451586 7.138446873878415
Cu 7.45692635816351 7.443218254400854 10.63968589459783
Cu 5.279819996727207 9.54638821181998 7.784216929826446
Cu 7.349700513113182 5.021027484649873 9.586894865433276
Cu 7.191985686165394 8.10111467411207 4.344507798779398
Cu 9.084639192764524 8.616832822500216 7.9150704972357095
Cu 4.956635375521826 7.158589741492697 4.047430848354148
Cu 11.036684110713031 7.027490605408233 4.353180294208555
