24
Energy = -66.12202592 eV
Cu 5.611339529212958 5.652243190031639 9.562268005423176
Cu 4.599849485446394 7.373783134964879 8.168665497103062
Cu 5.957470964271373 9.15838686773659 7.327930616937945
Cu 7.019566714323695 7.125522552367052 8.174991760456978
Cu 3.7694668436931242 5.071314905211701 8.08799668008944
Cu 8.574863834456321 6.090268590677869 6.61000675458766
Cu 2.421186614641173 6.977776447879497 7.24958207037359
Cu 7.138846574838948 4.6670290085023165 8.018061023410677
Cu 5.312684408246343 3.3153780673059274 8.737776016606546
Cu 4.026553164304899 8.410242367496078 5.988653331652109
Cu 7.950525722180803 8.339652699357616 6.247270978032073
Cu 6.09477928164022 9.016198198709867 4.886703689517032
Cu 4.809193873294991 7.255934951346487 3.8837124951434556
Cu 6.767471644962725 2.389471703204288 6.945752579249437
Cu 7.156069626929413 6.63368030001676 4.549332201366803
Cu 6.687625821616233 8.227716549227416 2.7051999711973433
Cu 4.126251759607332 6.022255538168139 5.878478228759481
Cu 7.309228530915271 4.362042429504685 5.626819771830039
Cu 6.209364656338121 2.579875461926765 4.445189899666344
Cu 4.964719776998145 3.775172611874802 6.340439863831889
Cu 5.3030533956468915 4.831811397542631 4.152767384411783
Cu 6.083059298951782 5.97626887459103 2.154813178575984
Cu 7.591878039697076 4.4733285777186875 3.2874749648180708
Cu 5.728339296266301 3.4880344331179507 2.183501895440766
