29
Energy = -82.62657951 eV
Cu 8.24385613378906 8.176785747496535 8.017340709979328
Cu 7.543280056778771 9.933290737295577 6.453125380576535
Cu 6.653031075920647 7.148477805737705 9.47000758927881
Cu 8.925298782928698 6.880692196686236 6.038088658220009
Cu 5.8601638069674795 9.106291148209456 8.142510904464157
Cu 7.705015119053441 8.548947292839848 4.394901416074468
Cu 7.190381514473062 5.655447221806584 7.4157448105768715
Cu 5.322742315985637 9.51679659323197 5.4304349221919
Cu 6.010718780045132 4.785704669753032 9.325041394241264
Cu 6.617061331674407 7.718412895256488 6.315030728332521
Cu 8.651197399251927 4.354569497623877 5.829100779093689
Cu 4.859861678272626 6.685342728288117 8.021697972882212
Cu 7.3958800933428135 6.063246373413141 4.396620563888902
Cu 6.94159921054932 3.1565126620476085 7.638613376778784
Cu 7.658093138106668 3.7138972939158266 3.5793362664842334
Cu 2.9040469188464475 6.196218931883621 6.445816365120803
Cu 6.297614538382486 4.079884461858541 5.519248911579861
Cu 5.528540928164858 7.562880379115363 3.72857603533113
Cu 7.475581599951668 2.0307953640240375 5.425209939950197
Cu 3.7369749702461923 8.574652408751884 7.106409079181684
Cu 5.039396016891664 6.109697104376942 5.568535438762376
Cu 5.098360617140589 2.123449337144318 6.295207410238559
Cu 3.4031693244684056 8.104288454368488 4.832639561053629
Cu 5.510511467539367 4.9758657307692395 3.2631761164391064
Cu 4.657674510130586 4.339735346331802 7.373289463919654
Cu 5.4696016553342375 2.527149264628887 3.8332363482081906
Cu 3.7704678635051025 3.9266640459042614 5.144477264695013
Cu 3.3024719881743905 5.9283806028804555 3.801232189865339
Cu 3.5141095684890997 3.696709971224494 2.7742712421513875
