28
Energy = -79.16696875 eV
Cu 6.014274231633294 5.895731157179171 6.538510732573353
Cu 3.7673478820630226 5.135870972687863 6.782374994120171
Cu 4.395313422407979 7.245636833734749 5.364335221990837
Cu 6.539527587372235 6.737214954053323 4.023554473464959
Cu 7.979147387321748 7.220616072457228 5.878973023320627
Cu 5.01692660632596 4.911020863919633 4.608268472194844
Cu 8.371880996431697 8.533449636613403 3.931997023430101
Cu 10.235456503125876 7.924116200280163 5.540671261753422
Cu 6.197526260893616 9.065606505306958 4.97108843074804
Cu 9.141315538382894 6.119457643648172 4.111717624850688
Cu 7.595938931118792 4.606472737893306 5.2765899799565155
Cu 9.571437234537019 5.561869008159671 6.57075584927667
Cu 7.808243992644587 4.1719008076275 7.782747978756722
Cu 4.176937918628042 7.201107463063984 8.027839543966753
Cu 5.748305346553631 3.5180008421376017 6.617686082872936
Cu 9.708485864962134 7.839727154295159 7.93331046401634
Cu 9.647545995282771 5.439461970687817 9.005392725065372
Cu 7.691313096855231 6.546695492996041 8.211396816087554
Cu 8.68670209446565 7.439741792453062 10.198558992161233
Cu 7.690541253583493 9.210833950249674 8.830359838216427
Cu 6.033106182326941 7.322129927279679 9.76892373135378
Cu 7.404137423223276 5.215156678800316 10.174260833577856
Cu 6.19477443223415 8.234488346136747 7.221706086522016
Cu 8.45002277712116 9.505024899326171 6.428737351000981
Cu 5.411086996585257 5.098998856477401 8.737532543545171
Cu 5.056705676477777 9.41943036388429 8.949330406489313
Cu 4.233679056845759 9.408187709026729 6.514651571575979
Cu 6.367748080941269 10.60747992997005 7.134156973159119
