26
Energy = -72.68861146 eV
Cu 7.826357428009037 9.284380269195093 4.944343736477506
Cu 5.058443230637262 3.4704261966944268 4.729088054327418
Cu 5.754627069367429 5.809422553161148 10.555414203583934
Cu 8.20334497888499 8.059639035374495 2.9138497102324523
Cu 5.189892109762216 5.500730509786265 3.3905492850726313
Cu 7.278394219368404 4.52142620712124 4.665214984735842
Cu 5.461274849412273 7.947253054970487 6.688948087422113
Cu 7.95064442765048 5.293733986084566 6.8531866485315
Cu 5.485654494575188 9.335726829930774 4.38466922290881
Cu 4.158354372985261 7.351864658824295 4.5778202116517175
Cu 3.19909836813417 6.653267785482683 6.659994153297125
Cu 8.90808470523839 6.411672623847733 4.731628282690715
Cu 5.7457531061336935 7.778109620349558 2.4897620266137936
Cu 3.9424166266279936 4.142923170325599 7.2261334204209
Cu 5.466720401695247 5.584138242046802 6.068457324075152
Cu 7.471424264726858 5.821901513462718 2.593733151651967
Cu 6.445273416938028 3.582069439106129 2.602457890492748
Cu 8.007334392381669 7.660047280475818 6.679039947572685
Cu 6.6636932255503085 7.18073398951302 4.620108060375574
Cu 6.333811418889182 4.447371267605352 8.683843045215266
Cu 4.083434594712994 4.206640479840592 9.650977193716932
Cu 6.925240023404258 6.794811442484863 8.577203004480372
Cu 4.585867629639366 6.2595786049072135 8.498627843917047
Cu 3.245932002277778 5.073182562182217 4.888651197352081
Cu 6.516568510728732 3.2569687648987227 6.644166645435736
Cu 5.1823340899634385 2.3579786335487265 8.469303098324064
