28
Energy = -78.58175139 eV
Cu 7.866363061851745 3.471374647438497 5.06713005954773
Cu 5.725911036347842 2.372305222714209 4.339862237857388
Cu 4.247369246169485 3.711725964708728 5.638573656968077
Cu 7.1476539732384285 8.674658173995931 8.233432468681759
Cu 9.951045200179687 7.2284227257373015 5.467238668055063
Cu 5.326855402444893 8.326301005608459 6.659460416191911
Cu 9.36416276724204 7.997368965299261 7.666444959687656
Cu 8.637563360565318 5.790937444512153 6.914776515247941
Cu 4.320568165351246 6.059399695925698 2.7648258719945873
Cu 2.4662347643456286 4.813948718429197 6.930636636194792
Cu 5.976102616339133 6.932590358846792 4.407579729577975
Cu 3.638076060591403 6.549372424101359 8.426728519384207
Cu 5.092726232087795 8.334139541757066 2.5213975978822454
Cu 6.213390155874112 2.7464179789303613 6.777734401994577
Cu 6.416757163099863 5.07273851048725 6.076146032733505
Cu 4.284514410685348 6.228773239022221 6.206711300408201
Cu 5.993501031039328 9.327397057537233 4.585588561943085
Cu 7.675207418756258 8.05979982444923 5.8798856024127035
Cu 4.783001564207252 4.426843675242243 7.931630861832054
Cu 6.167975236102712 4.618970176473171 3.6109749361366026
Cu 2.0589179951998418 3.23618606406359 4.908874479905645
Cu 2.7363709386360164 5.5081323039920695 4.513455921329904
Cu 7.265618755033732 4.334089728406924 8.340327603577595
Cu 6.067504159715945 6.532972216808978 8.130719111393123
Cu 8.233992238596867 6.480227911151274 9.181160142279998
Cu 3.904740584403988 3.6941852998632685 3.2444360648930397
Cu 8.163208645799498 5.87266104190046 4.515107554526767
Cu 3.779143944942136 7.859588604684016 4.467329584731474
