21
Energy = -57.13865774 eV
Cu 8.618836616693848 7.130791685867084 5.042574972224373
Cu 7.645747628060263 4.894260452266514 5.244552935471939
Cu 6.473430163045128 6.698984673436819 3.783320376246764
Cu 8.509298662693583 6.0126525547262935 7.352475429968607
Cu 6.747496824986392 8.845199781040609 4.955594553301211
Cu 8.055234915497895 8.490973081024276 7.09642819342889
Cu 6.015776495829428 4.36987975750689 3.2988899585459888
Cu 9.00851788495794 7.641921255304384 9.105216867744229
Cu 6.541330636760414 2.7863832170133307 5.022125069967977
Cu 6.504495619737037 6.812272898927896 6.227482733999493
Cu 6.650300980729691 7.138948881249444 8.65602837194418
Cu 5.321162603535883 2.7955745727041954 7.061574721375806
Cu 4.502783011776167 7.7208703226752 5.114832627400631
Cu 5.166300019712287 4.814167786808553 5.558101567731664
Cu 3.627626089409049 3.769491393973423 4.0958828570688395
Cu 5.52848610809381 8.85338454040804 7.131677563972881
Cu 6.259821712731229 4.884914678116048 7.736754505807776
Cu 4.163117941944773 5.991718650568114 3.4559122966010336
Cu 3.6995376433005327 4.477041637238919 7.576816039905846
Cu 4.394382966967741 6.729568120033777 7.443717940924492
Cu 2.9683160415297243 5.825692395426527 5.622656355331568
