22
Energy = -60.15766367 eV
Cu 6.135163245662265 6.041771675028348 8.820250037233706
Cu 3.8184354510684932 8.67855614383232 7.485217636686019
Cu 7.86066890184938 6.745079421085709 6.9022071003889405
Cu 3.6903814287462606 6.2752199252470096 8.170910069229702
Cu 6.944817168394859 8.518299523972034 5.46000699409022
Cu 4.653854820962262 4.078025893421246 8.251844733687317
Cu 4.5306991432133366 8.57376865016233 5.028349291872654
Cu 6.526844735036642 2.4948961283504345 7.751247664828568
Cu 2.8536886676463586 7.106434728239942 5.949974576235702
Cu 5.428692365938523 7.07083388426995 6.750867064683938
Cu 6.465553079559818 4.7015103104641245 6.8313984361846884
Cu 6.011510602336364 7.866001764772198 3.3101648133041532
Cu 8.58268042665907 4.797845382652818 5.583313480903163
Cu 6.345669824861715 5.993019537652196 4.7703571510058955
Cu 4.0791063357585395 5.035718874723546 5.993887165006045
Cu 4.782909946178364 2.732482333479726 6.13157351995164
Cu 7.043028289798778 2.895589135371671 5.271797899955075
Cu 8.498095920937564 6.9488111208372425 4.443343245316891
Cu 4.0267334318267185 6.341466467055611 3.9198271533203926
Cu 7.52502119091322 4.358579392472375 3.4513968023348056
Cu 5.090245052642259 3.9603766853505773 4.032337148862624
Cu 5.776602406651215 5.6328576429725015 2.3539576329721656
