28
Energy = -79.6813182 eV
Cu 2.7773944247202915 6.3969121488162415 6.78568883940618
Cu 4.452506678038726 4.562596101755498 6.167904828504789
Cu 5.135331862472025 4.3571046670540055 8.551985749109484
Cu 2.6138416337412225 8.706222502733079 5.585060143152412
Cu 5.671217313574154 2.4238076855117616 6.82178553225874
Cu 2.774609141946195 4.751928353466648 4.378836414743243
Cu 7.291676359351786 5.890915782662473 8.815048945414208
Cu 6.822741299588524 8.243426917595263 7.8952173469317595
Cu 4.22874505226393 2.7267994783041583 4.699050616718236
Cu 5.350155004144571 6.5014474544660805 7.278595379471799
Cu 4.690733726792271 8.806363381371462 6.711242016893372
Cu 1.7163175623420008 6.865443274290134 4.473078118218009
Cu 7.322312196273924 3.196484863885453 8.81080213818902
Cu 6.891204265602165 4.484413720416016 6.907637318902705
Cu 4.221551700833959 6.849166251131273 5.010933301303766
Cu 8.201190241338827 2.537262803722468 6.50557805525575
Cu 3.4824519161943286 6.77127849979978 2.7620449705042787
Cu 6.445583695167989 5.78751017722374 5.000419244318653
Cu 9.147101883707315 4.567629520419748 7.668013286700605
Cu 6.603145251261848 3.3076564001862736 4.692518420883964
Cu 4.935286244323736 4.777448957134269 3.401432092552318
Cu 8.152246251266405 6.64770070846113 6.618065305076192
Cu 6.522079761908524 8.180384285099834 5.355329050867197
Cu 4.470111000175385 8.937799489426355 3.970504697555084
Cu 8.710247532127173 4.648027285579808 5.15411829931417
Cu 5.94593170308761 7.132774675048761 3.0532196830143206
Cu 7.4124536595717405 4.990686271895177 2.9714984722001985
Cu 8.325573782455919 6.950025692856166 4.109933697905386
