20
Energy = -55.1392399 eV
Cu 7.071974250115998 7.071974250115998 4.688651993109258
Cu 7.071974250115998 8.213008867493755 6.876602451721766
Cu 7.071974250115998 3.6476665002319946 6.946246757114302
Cu 4.914484774467845 7.071974250115998 6.179359555019529
Cu 5.760008078530359 4.969513396984663 5.126087001078184
Cu 5.760008078530359 9.174435103247337 5.126087001078184
Cu 4.950562216765265 4.977602311169749 7.5344643467521975
Cu 4.950562216765265 9.166346189062251 7.5344643467521975
Cu 7.071974250115998 10.496282000000003 6.946246757114302
Cu 7.071974250115998 9.041711317929499 9.10396068598601
Cu 9.19338628346673 9.166346189062251 7.5344643467521975
Cu 8.383940421701782 9.174435103247337 5.126087001078184
Cu 8.556450205291275 7.071974250115998 8.654284853209964
Cu 9.229463725764148 7.071974250115998 6.179359555019529
Cu 7.071974250115998 5.9309396327382355 6.876602451721766
Cu 8.383940421701782 4.969513396984663 5.126087001078184
Cu 5.587498294940717 7.071974250115998 8.654284853209964
Cu 9.19338628346673 4.977602311169749 7.5344643467521975
Cu 7.071974250115998 7.071974250115998 10.587719011786042
Cu 7.071974250115998 5.102237182302497 9.10396068598601
