26
Energy = -72.20646924 eV
Cu 6.191065219332547 10.616838126665028 9.10071929491083
Cu 8.778466337280475 4.979194626129064 5.134614796553942
Cu 7.4351364078538085 9.487514660903289 4.624255444687006
Cu 9.792804820456642 8.506319427700078 5.085818512288308
Cu 4.909439555325546 6.194398915859926 7.254219826675425
Cu 6.1389274355116825 5.278751697790815 5.011898391829994
Cu 5.846028991528127 7.979054004305473 5.8601037388850745
Cu 7.333309335396898 6.167357830518388 6.821098309773171
Cu 7.468009063565773 3.0823674689304807 5.5445738139722
Cu 4.703624262867112 6.696395511706241 9.640486117556398
Cu 6.45598213653069 7.820728391578006 8.448869153783132
Cu 8.633415522916607 4.378904901333767 7.581119726422898
Cu 8.426682989542183 10.910364986265607 8.322162621344903
Cu 7.837570641016441 7.1229580690124745 4.60065436776348
Cu 8.126913769197346 8.500495887732137 6.827278678256432
Cu 4.559704712573345 9.03751500716848 7.87722844212849
Cu 6.0614291168651935 4.01091922109206 7.160151439821193
Cu 10.0273901932904 8.88201829440043 8.137540564621608
Cu 8.093131837431851 9.042331801750443 9.763332005154178
Cu 6.4736540986866435 10.268131522130835 6.765540563272168
Cu 8.731831833634498 6.775581119923919 8.86210869642585
Cu 7.038332652135106 7.013249066123364 10.72277659182741
Cu 9.773432622838413 6.620529813655164 6.666915106952274
Cu 6.696282373393333 5.316887376193771 9.059693838972244
Cu 5.446852383359584 8.856215494670554 10.427419566674539
Cu 9.059295243063943 10.59681141701662 6.097523955551071
