32
Energy = -90.6440622 eV
Cu 5.305019918667437 2.1391495777334817 7.371272987318832
Cu 7.548112402600963 2.7140259980698787 8.162423280480661
Cu 7.14540847813446 2.299773317505011 5.744836752682394
Cu 5.45594332687396 3.9516544551515578 9.02867024012154
Cu 7.892815387244246 5.096462403964614 8.57744180528801
Cu 3.813231580516991 4.169014305976894 6.996932826607078
Cu 4.865977616504511 2.953393674582144 5.117010308778118
Cu 8.634513590364687 4.112254343736243 6.416052378548899
Cu 6.2824716997703876 4.356153248345368 6.790832894049503
Cu 6.115539643569482 6.051370236163987 10.052023951030014
Cu 4.114186596802951 5.956051248019378 8.581941690016665
Cu 6.727663041003216 4.541664208466289 4.390345734032506
Cu 3.3095143821437545 4.734406226219358 4.614802228574017
Cu 2.768680297126708 6.472567670034605 6.415631229980453
Cu 7.701083380631064 6.317913749222818 5.890387947206323
Cu 8.07029368809655 7.400057719814274 9.408945110590487
Cu 6.289750134527686 6.799714663983603 7.801774453500154
Cu 6.7479131747748315 5.219411851744028 2.0527308731750518
Cu 8.119507630792977 8.385399439410998 7.210887953145902
Cu 4.325303082436236 8.080820108526867 7.4404384510226125
Cu 8.406049074478624 8.46504057618214 4.852138361016877
Cu 4.8880990853568 3.710205750388752 2.823295538418152
Cu 9.392082471218933 9.311762746061328 8.934155826680268
Cu 2.758721408633149 7.091907316281161 4.068560011258756
Cu 6.887549661738191 7.0264944996002425 3.7075604617750972
Cu 3.5041202155193556 8.900676934906185 5.4065668063876196
Cu 4.6411643200451485 5.3272368991735535 0.8747035008431916
Cu 4.6853156890287035 6.060928505499956 3.1216329234121956
Cu 6.088087029864834 8.448694815565878 5.696829575639469
Cu 5.047356064892213 6.21573302258861 5.641350085599398
Cu 5.8240371851791775 7.441900784033292 1.5100027789346666
Cu 4.856917051147577 8.46058801273247 3.5102493435712225
