31
Energy = -87.58516452 eV
Cu 10.201181894793939 8.165171997249073 5.75793628459752
Cu 4.172232625687803 7.23064837547722 5.38875096776813
Cu 6.083765364727653 5.6547963239291335 4.576390026427465
Cu 7.717535336241418 6.861141161782224 9.383833445161644
Cu 7.462623561594766 6.739834711458562 2.8738064000071524
Cu 5.185607872575547 3.1391035682776924 7.815005696387295
Cu 6.557626520844272 8.158681014036928 4.624051204018369
Cu 6.453454138858108 6.823897747891597 6.891915535154839
Cu 6.3445773857892025 5.003097067901873 8.675833405934682
Cu 10.28413451517079 9.674517957606005 7.612466822234311
Cu 4.5158998993390504 5.1146007369274065 6.517237023744757
Cu 8.817343884987048 8.446166169668322 3.92176305612897
Cu 7.952755368922648 8.835416411348845 6.6885472614438655
Cu 11.946171714425532 7.8179020075495975 7.3408771880267825
Cu 6.904866707084726 4.2990848502905745 6.332291609904624
Cu 4.423328966614443 9.261883449144888 4.145055632702842
Cu 5.313898246629646 6.816846355457674 10.021511509335493
Cu 9.732602726792798 7.392064109674447 8.118138915772006
Cu 8.359258634178856 6.449893246848649 5.3402210111699695
Cu 7.697256362408394 3.057746933085059 8.221380122416052
Cu 3.919429585969329 5.013430154469658 8.866375685145172
Cu 6.898719027635696 8.488917704844143 10.936453391466028
Cu 5.329009474134672 9.063826345738585 6.4689309827630055
Cu 3.7425590138557787 5.249964410734746 4.1169366622778885
Cu 2.9294456676144387 6.911089900689256 9.912046106939535
Cu 4.176046913508198 7.273798185491771 7.860608732035661
Cu 10.612733959909436 5.894912579685221 6.440663480925952
Cu 4.966462433907761 7.102276842169332 3.018210398947628
Cu 8.497130786284494 9.190562894312018 9.192704288847077
Cu 8.593550530628145 5.314249712806676 7.66435056416466
Cu 6.199150253155865 8.6536959189178 8.621870790782634
