39
Energy = -114.52553563 eV
Cu 7.362684758817581 1.9866131924431785 5.064535092930039
Cu 9.160300775824222 4.458841016080438 6.065406304478212
Cu 8.49058483954716 5.000442444626728 3.437607197957822
Cu 6.948984334454156 3.2072298130928094 2.9618216260228705
Cu 9.449289813710259 6.527652114822566 7.449577587741663
Cu 8.134019940353655 4.312705996240536 9.388857839062641
Cu 7.497073043235428 3.0421123458069967 7.288871869338765
Cu 7.9216840671578 7.321908946434758 2.75631914357024
Cu 8.255631012980896 6.605093125540843 5.262012640637272
Cu 6.5925439972392175 5.3261965305960715 1.6996232151508877
Cu 5.09418946823284 2.0950859592023017 4.0822061018822104
Cu 6.919786460223316 4.321810063099954 5.256395898968063
Cu 7.278448949081766 5.478279407124206 7.553266470069051
Cu 7.941816960575495 7.031202689607944 9.312034286272892
Cu 6.17473695167037 6.155155453736893 3.8372804329616415
Cu 7.483845777758454 8.067906124233883 7.092346385406052
Cu 4.5187450180257125 4.501545748143396 4.4005822680468984
Cu 5.480812045014016 8.046019163290657 2.5159549229020195
Cu 6.759013433153574 8.493105857335078 4.651535006002306
Cu 4.732806779422749 3.6689579643526034 2.1618584318674814
Cu 4.099423003772226 6.012215196342687 2.405996342021046
Cu 4.7084604875830385 9.714468468719984 4.107352463743583
Cu 6.114830184052059 5.600867210738003 9.97646361894076
Cu 5.32683500644651 2.0797287727109772 6.538380509650442
Cu 5.731409620770426 6.622426775608727 6.116794152218596
Cu 5.069170094223391 4.445958351944969 6.799887577372356
Cu 3.8297054923525296 6.90536308506431 4.68511151544816
Cu 5.124406113822192 8.953410963781565 6.435717727954986
Cu 5.741988776358253 3.486438150047715 8.899503260234596
Cu 3.172727430812124 2.8343298223453846 5.476782445351029
Cu 5.547363888030693 7.379415825496531 8.441894283021286
Cu 2.2580699822690713 5.1048075931919055 3.974628420940721
Cu 3.028310741497266 8.265597957916691 2.9544811842932788
Cu 2.83474008829942 9.044878152291677 5.447294378338639
Cu 3.991188859790538 5.4355258427797875 8.70584857536071
Cu 3.431688707592761 3.1077421139084573 7.914286318758125
Cu 2.7199241817577375 5.058997564026378 6.427719483830958
Cu 3.419567688519535 7.308894516741122 7.139138142729055
Cu 1.5392936591003104 6.986722656146072 5.449469674187294
