38
Energy = -112.11685241 eV
Cu 6.463437294861722 2.6112818277167813 1.2806489810870716
Cu 2.9552418386708315 5.919497820429894 1.0511398203759497
Cu 4.322911905011718 2.098074667948975 2.434217937641168
Cu 3.383344842147652 3.285159033152914 0.4476312138299397
Cu 5.0338492598886875 4.617679771899781 1.8193363526389483
Cu 0.9195401923649178 4.095528766674506 0.9654551757141127
Cu 6.3844871455707635 0.869141021294928 3.1678047058508687
Cu 1.1602996705613666 5.999911487176788 2.850386372837475
Cu 1.8137471301016097 1.7790876319756455 2.013884241554582
Cu 5.199965063370931 7.139922761048073 2.117384319641631
Cu 7.50727343769057 4.779089611867744 2.2120764424937485
Cu 8.434396527440455 2.460881216774089 3.005164825103826
Cu 6.336219453902661 3.221148147072041 3.577775640283088
Cu 3.558624010139303 6.059831844091209 3.4000460213866375
Cu 2.599314436686207 4.023419852694736 2.526708095998594
Cu 2.825666741210944 8.101404846303332 2.664519348082013
Cu 3.2403307041699665 0.20950706754053405 3.6389320938707823
Cu 0.4243207482792438 3.3720179238054873 3.4391222535142
Cu 6.068875566258514 5.760569880609045 3.9925817416550085
Cu 4.118457213282944 5.725195939916667 5.718957919877653
Cu 2.5299710971989087 2.3813738667916753 4.295846297637855
Cu 0.7882866117518545 0.872135959607079 4.286379303530869
Cu 4.693165991382751 7.848520598582098 4.613198331180815
Cu 1.888842428213943 4.783590158531132 4.903389158675539
Cu 2.27095950156029 7.257781106979502 5.110153290688996
Cu 8.091550253064762 4.4213855016797305 4.667147029867542
Cu 4.263056773718431 3.937093232363402 4.231825432099609
Cu 7.289693414448267 1.9909531802353437 5.384231386586717
Cu 3.976847206655672 7.52899585184577 7.1489263777654335
Cu 4.859647285274653 1.6049057065853272 4.973160489128661
Cu 0.9521731912939988 2.818485615234769 6.009187763063493
Cu 6.039263807866306 4.07763327862873 5.9975996081523055
Cu 2.7460231220841353 0.9212862894142095 6.110350806061623
Cu 6.252990993306943 6.565326266173078 6.346785713824528
Cu 3.399730993178009 3.352808016909364 6.561203600952055
Cu 2.269482750182032 5.572574950581501 7.1842128439312765
Cu 5.446720410306124 2.1283815010815093 7.242230607073665
Cu 4.754231348634051 5.0713581605135 7.87333881807331
