37
Energy = -108.21304418 eV
Cu 6.4738850892925885 3.53625802517238 3.8084396856405753
Cu 6.783392227113426 1.7336953612198729 5.3853848688484955
Cu 6.147754747117452 5.414097726251315 2.2824533965990406
Cu 8.281265274243186 3.6414787495352345 5.617135501648577
Cu 5.633694844878971 7.518065299701562 1.0592322476087632
Cu 3.916387214989349 6.348888452556317 2.2532028633824184
Cu 7.937865528867136 5.5064378556389935 4.03824567690523
Cu 7.181737262849329 7.585772461740494 2.884116315039788
Cu 4.835796896009997 8.368293981945381 3.2869521407989506
Cu 6.787111258418327 2.6824805090118793 7.637652935862397
Cu 9.607585150782084 5.703044019918003 5.908581735676504
Cu 8.912644345128964 7.727230237750014 4.567887972343853
Cu 5.557012142031646 6.390196107282824 4.565660458462184
Cu 4.204855267624637 4.454338975741663 3.7141406468181306
Cu 10.654687043032686 7.935227530929419 6.232526089172642
Cu 7.344024640803959 6.639157623579897 6.281434429910999
Cu 8.457148921232156 8.926037334782402 6.654779068995734
Cu 4.508423837512507 2.574097764460496 5.2329677807317605
Cu 5.9932161253889635 4.450248835667098 6.098373490267884
Cu 3.1173122253637513 6.642790254015483 4.5111072737919535
Cu 9.257161650429701 7.001828733266552 7.984109223092346
Cu 5.1665264696709245 0.9210877944875823 6.971414462211467
Cu 4.307536153697201 8.442322599109412 5.706385283000343
Cu 8.083859902555963 4.7871797432088785 7.784391408298559
Cu 6.627119728255029 8.726400646194982 4.999378533446859
Cu 3.4326915596955434 4.715262319819012 6.023692492710989
Cu 8.049102279037875 8.900104619609372 9.028456676736795
Cu 4.976646316958813 6.502122715275463 7.10406814919987
Cu 4.314411615863466 3.0562851148250303 7.644126451701004
Cu 7.009933359443636 6.757857608046081 8.85367581806641
Cu 5.775125175534091 4.685739514400165 8.731086670286441
Cu 2.535399109185104 6.89808015930111 6.88379501991551
Cu 3.787813837834063 8.620076290104702 8.086328691915957
Cu 3.3230139691306824 5.124446524245432 8.48072330719439
Cu 6.136500158795518 8.688184660466442 7.4856760192747185
Cu 4.718352797230049 6.875392039830325 9.538781169060725
Cu 2.2958821021606695 7.15010670725847 9.331524393903415
