30
Energy = -85.84188827 eV
Cu 9.679262371696913 4.616960137882182 5.388814809220814
Cu 9.822467329170818 6.989565444234168 4.5679852166210715
Cu 9.005894946727409 8.159295041468551 8.440154629064297
Cu 9.238089261496123 8.890056374336087 6.102076245457122
Cu 7.928132427490513 4.24550207081386 7.322863105583272
Cu 8.85382408686828 6.466364024089326 6.686473876473651
Cu 7.682980604082114 3.226485479382189 5.110076839107281
Cu 7.465469857310709 6.279714429026622 8.721133111283187
Cu 7.720549975834172 5.680927197322595 4.504615743993269
Cu 6.750738488408638 8.655679700167598 9.318161329068545
Cu 7.837016160540926 10.200201188683833 7.829074866421604
Cu 7.305517311485653 10.355949174577527 5.528203996225503
Cu 5.671044026655771 4.591277397836342 8.636653902566653
Cu 5.891109843315137 3.0511816415432267 6.7646818390790555
Cu 6.968545222823236 8.074103776118717 6.834393760088232
Cu 5.640708366971756 2.0012954987775453 4.611687728506091
Cu 5.410681287852674 9.706969950828762 7.388558234262124
Cu 5.157379784302101 7.068791333890964 8.517450346031103
Cu 6.13892827774949 5.768969725425815 6.504225026461902
Cu 3.7019764779012467 3.1762969324993406 7.953105227067481
Cu 7.666203982389484 8.15604994117895 4.399189224236525
Cu 5.601521061231845 4.384371729572198 4.397278622528244
Cu 5.395282116203087 9.175365167475857 4.873056285869334
Cu 3.743617250539997 5.451333439787259 7.377219984766368
Cu 3.7613556227717124 3.2774711589665437 5.52946874993796
Cu 5.5539963377681305 6.821023274350822 4.272027128888998
Cu 4.3012416810132805 7.593687834021549 6.325916204630691
Cu 3.456854079193941 5.626842241715173 4.938020068338264
Cu 3.412127937557549 7.932630918736345 4.113497747407917
Cu 1.866505328970469 4.390812540240179 6.420297300887123
