37
Energy = -107.63187637 eV
Cu 7.332564552155211 3.5731285810305056 8.560114630666979
Cu 9.761538590592652 3.0743693459449704 4.478847623740852
Cu 5.441949506147524 4.144374595120098 9.880879859447834
Cu 5.1263843414211925 3.1742231697853467 7.561929130146076
Cu 7.488282040174581 5.523623395443858 10.012013729869151
Cu 8.406169161235054 3.2353504348387627 6.4628270241219425
Cu 2.6703400428968203 6.225333460055339 6.625823847912384
Cu 4.4635410354153295 5.429487669664178 8.089631716273063
Cu 5.17051971976235 6.594325185142153 10.119978180990223
Cu 10.359648041402242 4.71738935600397 6.128045502558957
Cu 8.677711338697115 5.502121916950117 7.701354427405987
Cu 8.2796388938201 4.95638849280489 4.763848235327648
Cu 2.7247183396826062 8.544030337869245 6.235108094137811
Cu 7.164983665841261 7.82157676568541 10.729649295369324
Cu 4.310291740670459 4.773805448673077 5.691438739243238
Cu 6.529474803880249 4.867425956433657 6.599630955651539
Cu 5.454433754518429 9.003215593803473 9.422197940177035
Cu 3.8561604245648162 7.125207588592276 4.470826660491166
Cu 3.567335484154962 7.689049300614284 8.495425773020246
Cu 6.773131629403228 7.185176333727178 8.276419891615161
Cu 5.00507926866006 7.34537086990647 6.511050905235831
Cu 10.722136406328838 6.848363081984381 7.416648280844804
Cu 9.82149765867323 6.852281387050422 5.144015251821089
Cu 4.321827506882549 9.835331262905092 7.485316790288407
Cu 6.224515357829649 11.083990793528075 8.220414762901303
Cu 4.528396062728212 9.637735737682414 5.115857747933045
Cu 8.094096779704158 7.003273348910163 3.396245878941946
Cu 7.415141810031152 7.015161540788804 5.889896485948621
Cu 7.8016421726072265 9.438872122790182 9.002207887259353
Cu 6.1473934263457695 8.244257881579705 4.189971975722141
Cu 9.13378141959196 7.318567382111227 9.313447280920801
Cu 10.788554604119449 8.960639065360809 5.657095387748955
Cu 10.17580727003888 8.363486031351492 3.310670911649513
Cu 6.648946624454887 9.339569033388642 6.589327091043016
Cu 8.9767365586874 8.480452585826468 7.160188867336003
Cu 8.423758679787682 9.053893993895107 4.824830760507007
Cu 5.998939318507663 5.8062189841727445 4.253890507144787
