34
Energy = -99.4424235 eV
Cu 9.372426691056594 7.371340576983731 6.954180885300256
Cu 9.755305989976476 5.039644598093896 6.429728536331095
Cu 8.792207392353292 5.656074276053936 8.56052029929241
Cu 8.89234491989367 6.560467003202294 4.62383659322132
Cu 7.608135687301879 8.37619295413566 5.763425644165654
Cu 8.252323785551843 4.013243808763222 4.939006346222849
Cu 7.877237970689495 3.640066047361932 7.3734489791941975
Cu 7.235013819274629 7.6148750230820434 8.24679868561672
Cu 7.254585809708151 7.988852104787655 3.3085025713200245
Cu 7.310394270412486 5.890184003433738 6.445565756966866
Cu 6.600373681248806 2.2548887799702606 5.652711237454067
Cu 5.653368766294359 6.900442567179205 4.733585486863809
Cu 5.434698694607829 8.551646755264205 6.92445739393748
Cu 6.484011322824461 5.311135888012571 8.843095166943767
Cu 7.255899722239114 5.4629733367759545 3.216530884932515
Cu 5.810357026101232 9.546813060740096 4.75753366513576
Cu 6.897638632783553 3.083969290761985 3.233684326832071
Cu 5.601746120252087 6.600683976755746 1.942919279263867
Cu 5.483848014936182 3.417715638897267 7.612123886508579
Cu 4.836698601718578 7.216945701822955 8.99992061868281
Cu 4.717252687830612 2.373639060994739 3.831445854517234
Cu 4.706854579130101 8.504249447306497 2.941125914501186
Cu 4.7785638465757705 5.997002446887816 6.9373708185432506
Cu 3.1262886460446446 8.215186249241356 7.388108622019371
Cu 5.638304514399275 4.396958146580338 5.167472597256699
Cu 4.889325767013471 4.5092500945716685 2.7621990291785536
Cu 4.2170495985715455 4.7261802460009585 9.190116145915843
Cu 4.098259688744087 2.2448917213889903 6.074937390938985
Cu 3.628773066980153 8.34643565178372 5.083486613143287
Cu 3.494020584103079 6.399930823520562 3.482519397569923
Cu 3.079442614417216 4.140432051362996 7.035135712119196
Cu 2.556792366967629 6.13515166448126 8.259808669711878
Cu 3.1713751529091367 4.17342801072157 4.577593609488904
Cu 2.523311271103662 6.258125864788493 5.779465679399933
