35
Energy = -101.56567287 eV
Cu 5.539936715216805 6.49597620573183 2.269396473918889
Cu 7.151458229801999 4.769702134706494 2.108586835705307
Cu 7.756034592096724 6.9259139086903865 3.2753933789480505
Cu 7.927866675259305 8.853155527857657 4.901604984411033
Cu 5.766313744780859 8.33903856993739 3.813472566975406
Cu 6.885754213427459 2.9210057979056328 3.607895327983687
Cu 5.903388813900727 10.14510959235802 5.382552078205528
Cu 8.774744079345615 4.672109665845235 3.8650200560207217
Cu 4.195590249521835 6.505925831875668 4.3095699135339895
Cu 8.534501698020254 6.479597654312062 5.55750810446892
Cu 6.435660287514661 5.223157724411661 4.571611980699321
Cu 4.765054637728335 4.296132606581196 3.0743176967818107
Cu 4.086109253701566 8.53888401320916 5.7886577398742425
Cu 9.1017598578975 2.414815014154188 4.565836494784498
Cu 6.160887830772664 7.248818901584441 6.02553828527148
Cu 8.312730552463423 8.235243595627932 7.229107123443782
Cu 7.736106762181474 10.504465057171622 6.915996812508471
Cu 6.976320000227851 5.091244943545962 7.152590492319371
Cu 5.779179973994065 9.193135177446548 7.6034432148317235
Cu 7.560420040440783 9.370317192439314 9.185468770806779
Cu 2.895502196044318 4.460459875160226 4.770335121362054
Cu 7.223883141832812 2.92135324867051 5.994692215370584
Cu 9.229727209825953 4.250375701277322 6.252951339755578
Cu 4.93494646924391 3.063308718550524 5.182012660655986
Cu 4.6502261915319645 5.249266816307077 6.42462569338267
Cu 8.9843383681351 6.053268090896474 7.9579874487872875
Cu 6.694324296222976 7.087391110672967 8.648100606466308
Cu 2.5793691496168973 6.647359275009308 6.1973036045800995
Cu 4.2891710229905895 7.2999587393672325 7.923397436235597
Cu 1.2162907585365508 4.662456367064149 6.599502699235447
Cu 5.4533299674930955 3.129826059575217 7.635147754506073
Cu 3.1184644906739596 3.261553184654804 6.9157616254895
Cu 5.166780992762728 5.21924991950726 8.944542303574037
Cu 2.773737681550704 5.3759246192989885 8.300890435687036
Cu 3.6163896115796144 3.3483165833935695 9.262704086456036
