37
Energy = -107.98015966 eV
Cu 4.282812170509493 1.1632528875308072 1.2245840008995992
Cu 6.362157301320119 5.164542559134954 0.4803121612274159
Cu 4.266020047882444 3.792824482734729 0.9618003570506878
Cu 6.560547704515261 2.583062094873458 1.2993666976232667
Cu 4.445064781560394 6.35047413555054 1.8028952619961711
Cu 2.457513639471018 2.5443289004387952 2.3912031078161244
Cu 6.84937028158965 6.821548676089835 2.7157368952113163
Cu 6.0876958027681 0.4480360304266766 3.0209139318694103
Cu 1.909999055931807 5.284702757694944 1.8691313055903633
Cu 3.682843054469245 4.511133050456877 3.208561223866825
Cu 3.4825498716172527 0.5941766925361018 3.7430169572973377
Cu 8.265864441993957 4.653403930823431 2.2478212700423277
Cu 4.726437481221231 8.295419307707217 3.55178360131352
Cu 6.030057785318646 4.5275959132984145 2.657933976069097
Cu 4.912132120060621 2.4126719574939335 3.040538119237109
Cu 0.19404368960128893 6.137422899776036 3.744401456668505
Cu 5.11865293165006 6.155228530694445 4.25224125415782
Cu 7.302209049536786 2.654984831981104 3.8089828491481086
Cu 2.6498448681726203 6.738809365134954 3.829307988502166
Cu 5.473755270140629 3.8394726636091083 4.931830735324941
Cu 1.4760527727028858 4.227673697634325 4.050732816599796
Cu 7.482666815149577 5.224406331656694 4.67228832499071
Cu 3.301150772317084 2.7270752603203903 4.877069157323126
Cu 1.1641026029811468 1.8093908119214925 4.478354074438183
Cu 5.417453352870525 1.4304384314722367 5.323108024223785
Cu 6.583799970635156 7.578111045649829 5.311892063219796
Cu 3.437916009222206 5.054883392334356 5.590550959433351
Cu 7.165749363241998 3.269658528625844 6.353768353216798
Cu 2.664832939211699 1.2022525564655169 6.490496458805501
Cu 8.265864441993957 4.056487722674907 5.6244371212642505
Cu 4.443495790300233 3.2682955925145816 7.073533960656115
Cu 3.9858777546533117 7.390074890154844 5.98653536469452
Cu 5.715273507086061 5.553921223402503 6.668949891134457
Cu 1.3360257263912398 6.024161238484117 5.947043730893699
Cu 1.9122468192391853 3.6345389305207245 6.80108564895904
Cu 0.24122935538598744 1.8922042538320907 6.695103356600517
Cu 3.409279694424546 5.540954487660287 7.830307605945313
