34
Energy = -98.31869066 eV
Cu 8.371182299890116 9.805650335319315 3.9180726314388177
Cu 7.03664708063488 9.682602416578698 6.000511591530379
Cu 3.5240710540079245 4.981105695099557 3.7669386773520794
Cu 5.3062606972842925 7.913831433663675 6.1288294114346655
Cu 8.984326386676003 8.200536612653048 5.592346244261954
Cu 9.481504671960234 6.461212125946769 7.403569369373316
Cu 6.075510376254552 7.2081769428923765 8.787202017611023
Cu 8.806554026321708 7.552394960386502 3.1404063242961313
Cu 4.0467737202976295 3.648020218791991 6.258594748268863
Cu 6.709193283175922 8.08055945726868 4.191456339019359
Cu 7.650571150990527 4.430992803681012 4.30387709103522
Cu 6.715213872598348 6.141179373141736 2.7335571121726683
Cu 3.066409238981835 2.6542805087776338 4.3179019252407205
Cu 9.027889855571559 5.254155295734382 2.5393740744652056
Cu 3.7236246150338914 7.614820151384545 7.93510907740483
Cu 5.093462544513138 5.685320983421832 7.2315345406034615
Cu 7.469780040621264 4.945810799381154 8.30657646138281
Cu 5.6694410540942375 9.411355137666717 8.051907201192533
Cu 5.215966703366612 3.8068307339140777 8.622920251464095
Cu 6.472647924252712 3.7901624104154377 6.390692693051804
Cu 7.959504457106038 8.406873133454063 7.853345770890387
Cu 5.5942541475293455 5.670457835141383 4.833922132142586
Cu 5.4098911969164964 3.3259756861429652 4.171550415420867
Cu 8.870007565082934 4.281450523387732 6.438409079493258
Cu 7.373112567165632 6.385044300688639 6.2870944961495665
Cu 9.547922883628381 5.959166632090581 4.847917290071089
Cu 2.748313912382705 5.194506209374341 7.712187294832071
Cu 4.483462914496373 7.2912347674587465 3.605796060080253
Cu 6.704518108729822 7.84118218553965 10.9343726375098
Cu 1.8891130293449543 4.478833401449788 5.505731401017247
Cu 4.170377051269883 5.844008744384023 9.594024377891266
Cu 6.406883776527359 5.4307420041584935 10.42130456941161
Cu 8.407491823083507 6.741323728087836 9.62478243852417
Cu 3.2739484478821654 6.521625960934514 5.6711254800567925
