36
Energy = -105.50855778 eV
Cu 11.148450293066425 5.395444349341246 6.254532087424822
Cu 10.42330804125761 7.7668786222019826 5.960280085193949
Cu 9.185569303949848 7.709310250159498 9.474215049890855
Cu 3.800982608060491 4.4591512638861195 8.465552494157167
Cu 9.117346148596477 6.088400527216793 7.358965772714226
Cu 10.43633676371808 4.45918941665674 8.465472646378043
Cu 9.172964698744467 3.8659169432420066 6.377963146394578
Cu 11.186054822239567 6.911006566815901 8.262225728695464
Cu 7.118618460469235 4.434505434345303 7.6350529938823914
Cu 5.821220108809491 5.254471432513277 9.667359056302276
Cu 8.416056695354646 5.254452300520016 9.667341477577875
Cu 7.1185812270176445 6.392306082959081 3.5660869880104102
Cu 5.119901368421435 6.088397116523704 7.358981505046446
Cu 5.064243819725565 3.8658995131471783 6.378021639606337
Cu 9.192503934937898 5.878066107915694 4.7986609811042005
Cu 7.118589731008425 4.38800895809947 5.094578716099416
Cu 3.0887567352230487 5.395443250858044 6.254683371267899
Cu 5.04468280552527 5.87807262873472 4.798735876166021
Cu 3.813893051748551 7.766881027916526 5.960339973953887
Cu 5.847590197661023 8.314887312832434 4.542236881150455
Cu 10.393138080392333 9.302288024517004 8.029000974614684
Cu 8.358494394190247 8.520116941407748 7.111639877996178
Cu 8.332274551766533 10.839182910508423 7.809223873633372
Cu 7.118618996311066 6.663465263450846 5.97310179226402
Cu 5.878742210731021 8.520105381149865 7.111681665134188
Cu 7.118618426588417 10.25328285526777 5.647901099519595
Cu 9.575273255471739 10.12107293438085 5.777830754121354
Cu 7.11865395716847 9.247059912230922 9.323939655466468
Cu 8.389614905362373 8.314886503520306 4.54218442288292
Cu 4.661959373440303 10.121083644889044 5.777879073787231
Cu 5.905025195127618 10.83918604648559 7.809229327951641
Cu 3.051250545296535 6.910989753577136 8.262360494730563
Cu 3.8441160608448115 9.302297371560455 8.02904667382874
Cu 7.118634795026088 6.890168976709651 8.449373441843356
Cu 5.05173584031188 7.709350948218718 9.474295224381088
Cu 7.11865761146109 7.149232569116255 10.800483936151013
