31
Energy = -87.23641077 eV
Cu 3.359718479581294 5.633611350662678 6.971528122890681
Cu 6.6321928955563925 6.631416114298656 9.210992776972777
Cu 4.359134305042357 3.9193315904090573 3.338511397681269
Cu 3.823131480349118 7.461082034115292 5.3084360673742985
Cu 9.168507123422023 7.580795772565221 6.021372285124092
Cu 7.307081778867267 3.8273038247715467 6.081201785549151
Cu 4.240684234475703 5.801820332068549 9.265106303581607
Cu 9.045043782555407 9.914735521450279 6.566000743316162
Cu 6.203860207873641 7.473333057164651 5.008205128116372
Cu 5.716616504303944 4.6726545732063 7.816080065624678
Cu 8.556495561538938 5.540913864595622 4.830451183566393
Cu 7.505973156373648 6.120878568567842 6.951068871725989
Cu 5.245354832793752 7.098069992709363 7.279030028710429
Cu 8.964273294651647 5.227099316570808 2.4810543760648347
Cu 6.792223217088353 4.507988868482413 3.4533745244295777
Cu 8.085905510805624 7.780098385699101 10.669712753944456
Cu 5.807832634870974 2.5786446973723613 4.685915421261013
Cu 9.633201836502911 7.331147283253025 3.6187989364396085
Cu 2.874492208667739 5.4612126101419225 4.460583858551718
Cu 8.020487706541914 8.996685618285737 4.460444449966783
Cu 7.347508555596515 6.933958184674387 2.9970484562735256
Cu 3.531981559064814 3.565306929631341 8.158659293986435
Cu 1.5157289279081336 4.308219122457515 6.177700657584703
Cu 7.000249921892172 8.753217114612967 6.826044506269264
Cu 2.0275217151072806 3.3074006341278555 3.9378953698467134
Cu 1.5010785142784644 6.778283352270169 5.940750865133412
Cu 5.378885023090513 5.1763685096386975 5.385633306059743
Cu 3.6912891551017863 3.3131521917830913 5.72001043743389
Cu 8.60070000174395 7.9269079804397 8.374302063831564
Cu 5.48952542445103 2.4018432401704373 7.102767567199659
Cu 4.926623566293253 6.329822480193506 3.254621511879913
