39
Energy = -112.93660065 eV
Cu 10.71815842909669 12.233692670140826 9.689832428270169
Cu 7.569006836009926 5.204253674315365 7.167022380258781
Cu 8.619160676102359 12.06294140219907 8.496223773675004
Cu 8.893363217389417 7.782621439206398 10.546744890756852
Cu 7.5953657344949175 7.424126199816565 8.450785142071313
Cu 6.451540928444332 11.43310092743838 9.792247861106924
Cu 10.505674335920252 10.821252252102783 7.624765331326811
Cu 11.476079101295165 6.222279095550579 9.199423499518002
Cu 12.0238266142786 10.200331141016354 9.421270228708757
Cu 6.207446653211712 5.64291664507264 9.311811039789447
Cu 7.743729514502568 5.719101169573626 11.315787853102275
Cu 9.52052172612929 3.8107455023198487 7.499634134351904
Cu 5.653718492277892 6.559235886287709 7.0297146872900305
Cu 7.3580276711628185 13.525476908499988 7.042083579146827
Cu 6.044959175845143 8.926210056053797 7.000543163645482
Cu 8.88126830758771 5.4083854221261785 9.239771503751536
Cu 8.529388595808786 12.086924597606913 10.926417151742614
Cu 7.524443764763436 9.763991157599266 11.16190398243249
Cu 6.422357048861266 7.6129500193040025 10.793227112957887
Cu 7.251608091187175 13.735795881346448 9.522677624221219
Cu 5.108218363645694 9.606796283243392 10.69522814794355
Cu 10.817959872709588 3.964285048000278 9.574940861772811
Cu 10.24713611863724 5.885619322181848 11.241646956765324
Cu 4.938999208571066 7.925892711500337 8.9068988860334
Cu 4.715692687330451 10.38112869138825 8.428370309548976
Cu 8.724566307736419 11.528782063034209 6.113537157686456
Cu 12.98266024653761 8.073854513456531 8.925237297031721
Cu 9.625820568265617 10.09205759789856 10.027541827320436
Cu 5.262237461205931 12.898976431624304 8.306818486501019
Cu 11.286211907081453 8.193319065994329 10.738219228873533
Cu 10.332834730301084 8.290511011309864 8.448852264895416
Cu 6.541657431841524 11.274894087837131 7.107195830860063
Cu 8.33761184912755 9.611134854769727 7.609478089045518
Cu 11.745563018742905 4.721340054413188 7.371332855752496
Cu 12.00552520270535 7.117813122680411 6.8724654743489895
Cu 12.381695793519619 9.476284825719224 7.036819027998097
Cu 9.76090148472738 6.263457977213546 7.013215393800992
Cu 10.126482939001747 8.75888516372114 6.09364618244507
Cu 7.891595378768656 7.581650611263739 6.079683838077897
