34
Energy = -97.4280443 eV
Cu 6.614978857442223 5.810575753989887 3.6717014513639126
Cu 4.989702368567878 7.434128534788605 2.9695273912004785
Cu 7.776959579484264 3.7386021873404913 4.5511148119311855
Cu 3.7530861082743705 3.3529026269742612 5.33062167928093
Cu 7.539166701537407 4.20928387357443 2.143451533752548
Cu 3.7316328085792905 7.568125334821742 5.104927035427791
Cu 7.430630565541948 8.044965603730255 3.5942659857080868
Cu 7.631086964781226 9.465924303145313 5.562237171933164
Cu 8.209590430733774 7.808045430866892 7.282799392955696
Cu 2.226785926358713 7.464659114982184 7.121376697762416
Cu 4.471393278167531 6.504970897647886 7.18039893571121
Cu 8.961900743612627 5.826085426772655 3.517271260355169
Cu 3.949288235055785 3.5856136556639124 9.724116383628918
Cu 9.780703934825473 9.517960359397563 6.613758451881728
Cu 5.040473883743328 5.782473652953247 9.538162322336191
Cu 5.930001606959672 2.3959576764926562 5.705671335056478
Cu 6.799726819668094 5.80374890413581 7.8453888380556505
Cu 4.982608379031713 3.7317054419126694 7.62317231484603
Cu 5.501929895872535 3.480330784191259 3.482358874675761
Cu 7.481716418544739 3.6578957810970785 7.083868650242632
Cu 6.235964906880273 7.4208483856996335 5.795305075362627
Cu 3.6304383723057123 7.683608004399958 9.124812103871994
Cu 8.194565837031655 5.747021534449288 5.825479423908162
Cu 3.993165899202873 5.408013258890447 3.9214726271348894
Cu 2.6475207012777124 3.2846668541701116 7.518941212824988
Cu 2.7471887658154492 5.44230883633765 8.561725243750079
Cu 2.6596362261406306 5.343019652185186 6.036321616669268
Cu 6.493549064200052 3.8473578660667336 9.446837607813073
Cu 6.002832114103545 7.983416214408092 8.392953185334523
Cu 9.372565136921411 7.725873479426874 5.064829850984245
Cu 5.7140837544273735 4.8887284715255435 5.682405922177934
Cu 5.2934437318943734 5.2741140918834395 1.756323125711893
Cu 5.716261052685954 2.999235670347575 1.1067376976220005
Cu 5.449511317659034 9.275788273237914 4.430329416633587
