39
Energy = -114.28280436 eV
Cu 7.907817076579807 3.2208850062626464 10.159048643075074
Cu 9.193884136184797 4.82081634506527 8.959660968184371
Cu 10.710260766944973 6.267829852001951 7.684116470470196
Cu 8.429339600277816 6.964227861813123 8.099733486209384
Cu 6.878320242277326 5.435314906565414 9.785974893915345
Cu 7.463245233272555 9.223952550323684 7.590478226373472
Cu 5.939032156005761 7.325219587656651 8.38385556557936
Cu 9.101637023421771 4.9404512967991865 6.491274950892649
Cu 8.172994217133684 2.9419721900645817 7.686234164878182
Cu 5.96389255791883 3.1801575997333518 8.759695897611065
Cu 9.497534938705806 7.166815611798184 5.69780346552674
Cu 9.120131789523297 5.227399562645234 4.047382167392381
Cu 6.795232849072613 5.1307039490353725 7.4361650391752665
Cu 5.156442480532496 9.057165181806457 6.715894725643883
Cu 4.573134364684843 5.255554982851867 8.71672827545678
Cu 8.397895433690657 9.282832120153106 5.274431947094217
Cu 6.639528081158599 10.85548956752771 5.931156676865861
Cu 8.310618001288994 3.1289195453090675 5.134670875395768
Cu 7.054976366818988 7.3721989044300695 6.133593726119006
Cu 4.38611033723392 10.63301184626476 4.970214793164531
Cu 4.915023780692992 7.116137646482842 5.042344005155557
Cu 6.15403223954827 2.9128954305298103 6.2794847984422795
Cu 3.011061856748448 8.67036196486715 5.460760744956859
Cu 2.4468290620193223 5.007191217558475 7.444235004638126
Cu 6.204632816807909 9.122348591381895 4.238745451535795
Cu 3.9253997559413234 3.0589639696342275 7.403219634805223
Cu 6.844531637473332 5.184067629104338 4.992325375361143
Cu 3.673610989817643 7.150029329987402 7.349231847077053
Cu 7.856138669316778 7.318276774289129 3.75422432175866
Cu 4.625808572756756 4.992371475780912 6.210848982733603
Cu 7.0504019035223005 5.213159151785861 2.609635114869018
Cu 3.988537090726667 8.891293715942387 3.2734838271858733
Cu 6.293450108992521 3.118596590178992 3.7533961374246
Cu 5.58249142376752 7.1209926997497375 2.726238808429625
Cu 4.146144605704903 2.8766262572931454 4.911899179257115
Cu 1.6922345790117297 6.710323127915889 5.9089056376030005
Cu 4.664578565757849 4.95309802395514 3.587575797059524
Cu 2.919143902807369 6.747474936951916 3.7443082920739337
Cu 2.5400174761226624 4.66271052603446 4.962340180173968
