35
Energy = -102.09417521 eV
Cu 8.49375301372978 8.084036109925156 6.618057999451768
Cu 8.01011878171712 5.886827102757192 7.6385615090248455
Cu 9.094419064587841 5.993276745377837 5.4757130330007
Cu 6.469299932172884 7.838434756614038 7.843271655745088
Cu 8.239090157684487 8.027789439007021 4.259406092284002
Cu 6.278584419086335 8.846773485240782 5.541735651959306
Cu 6.19746289088729 5.725125908112874 9.19482204657832
Cu 8.173852160876454 3.7749023899696765 6.445889650120897
Cu 4.662296168847148 7.534821443766809 9.400849061919647
Cu 6.549023263603463 6.427522333730739 5.537110821118596
Cu 5.917334529416399 4.4714976798495885 7.1510560274555495
Cu 7.937271343919553 5.863123689398995 3.2742888893545365
Cu 9.18821452373956 3.989366600983281 4.158196248600133
Cu 4.304554654987304 8.896248450041446 7.1352194821645725
Cu 6.083803694711028 7.538223554211188 3.289800959533976
Cu 4.4918832796928525 6.541333334888216 7.082379077565068
Cu 2.5116138129355274 7.118623094409216 8.537182220261577
Cu 7.982646413950033 1.9941551785193283 4.746522480606729
Cu 3.9116395650832136 4.9637371837662805 8.788463220662344
Cu 6.620358335488728 4.103408496647964 4.604190594321216
Cu 7.413048950698008 3.569547648858312 2.408055699650082
Cu 5.883367003133328 2.290382923198149 6.044019232753369
Cu 4.22113841831906 7.682005834398701 4.829048958641935
Cu 6.175642832356761 5.686110366132829 1.6761125591501032
Cu 2.275083092632675 7.775452072270782 6.234004406822911
Cu 4.354536693121029 5.023538642528635 5.068597358317353
Cu 3.7610044648308407 3.328512999214872 6.900022299977357
Cu 2.3206006973897293 5.369746504546573 6.891037171691119
Cu 5.942406299795698 1.83513498430001 3.5327075665710828
Cu 4.083375982926107 6.21027896005747 2.8389861302195345
Cu 4.964179416790121 3.8745821766507076 2.6577529645394224
Cu 2.2120601721387776 6.112672358210065 4.483688674163576
Cu 3.9059679388908286 2.588973723441556 4.537754356604941
Cu 1.9002466290029274 3.7042220487951667 5.2625979765317314
Cu 2.640942207764873 4.208324175908375 3.0397736301539386
