31
Energy = -88.25680231 eV
Cu 9.552249684086044 6.622724287430147 12.606672944819195
Cu 7.1294584026199646 6.306348018712957 12.037911899375358
Cu 8.82791035731858 9.433480866978051 4.546325345407749
Cu 3.9994381301400157 6.937681916351074 6.8275677796691205
Cu 8.490069618536316 8.197978954553587 11.036808150105989
Cu 10.31392451284831 6.368660033158792 10.298503574679081
Cu 5.558621319045057 5.912837848169043 8.67308979556906
Cu 9.726964869768729 5.899367330192336 7.909673548230316
Cu 4.433526142149687 9.275244755557141 5.986833770816864
Cu 6.860805399165729 8.388767652993229 3.183919605602538
Cu 9.014264214750929 7.091771588075898 3.846466545513966
Cu 7.288949356838866 7.767277755416496 5.434283004089268
Cu 6.523391230122308 10.10315961108144 5.059963524124031
Cu 6.008021107551679 10.638492858982495 7.383648300516421
Cu 5.463802470454509 8.39308593138474 8.029500550830463
Cu 8.838272188696433 4.591608921935721 11.612395760174076
Cu 4.710136215297632 9.486394592928892 3.5231064364805844
Cu 8.139894683959694 9.571815097045475 6.933703347381559
Cu 4.968589312678708 7.342365889732483 4.604374187720248
Cu 7.483857003498159 4.606987400199728 7.846086982237377
Cu 6.71887166998745 4.2430382484286895 10.222115920285638
Cu 9.659155866813318 7.746826872913373 6.253157970076257
Cu 9.272178961580344 3.99659275619154 9.340152276480897
Cu 7.379682857548432 9.461779956004165 9.218850685843462
Cu 6.0081085881571745 5.772006202757877 6.235883931814037
Cu 8.467897159432951 5.590524017150797 5.794862754146076
Cu 9.506582547076395 8.218180123904078 8.765771063664614
Cu 6.844711285443148 5.935877166578129 3.876982215189898
Cu 7.556108000190572 7.203668178854529 7.725166368188365
Cu 6.169306401979842 7.668187304413053 10.288173595440036
Cu 8.01859711866434 6.119380243441783 9.817555091893066
