33
Energy = -96.19967315 eV
Cu 6.483723641588958 9.424974201262955 6.737051934907679
Cu 7.209086858177722 7.590382588701683 8.497385509794823
Cu 7.116686326298523 8.40108865873999 4.436363177601907
Cu 4.813828431973593 8.040132726823863 7.69102783355595
Cu 8.61924996949407 8.498621121609306 6.383487489289263
Cu 4.795727318933438 8.631561324153404 5.213615721873909
Cu 6.66041815957964 6.858489338692653 6.327677908678501
Cu 3.119681275332374 7.663673617402302 3.7749706583772173
Cu 2.8317534165144025 7.47635659141762 6.2020571580681345
Cu 5.442457861097512 7.682779445415701 2.7185022174117353
Cu 5.336782908434604 5.949036964979347 9.001734083669689
Cu 8.841329756496094 6.57891368119729 4.90544101610213
Cu 3.009763641968182 6.76715175280272 8.588835246426719
Cu 7.355772914408072 5.02810765060797 8.031228716136404
Cu 5.0580682869945335 6.237475086821742 4.536449820409669
Cu 9.166616599042523 6.427772328672574 7.38805823709269
Cu 7.7911413566330685 6.8221113451482545 2.727831098989913
Cu 3.358616043095692 4.347709486519092 8.665590138032337
Cu 1.8920078722179248 5.287948152516467 6.985405885383395
Cu 4.397346934167342 5.606433585596037 6.787726285445101
Cu 8.962847124540046 4.4320780563874544 6.064197444873767
Cu 3.7477070654709888 5.684569686095218 2.5281345421618178
Cu 6.49703122339254 4.452711601206003 5.570059080611229
Cu 2.6439000173553464 5.413027650862261 4.729803959454934
Cu 8.233500509832773 4.5705427818091975 3.6361751528883652
Cu 7.562904723884588 2.738594612939235 7.234605900787819
Cu 5.401544013466757 3.526876469648353 7.796433601571158
Cu 6.094272064861857 5.145947816924835 2.5209496822990776
Cu 3.406354657090959 3.4035797622985977 6.277560267727582
Cu 4.38897183218332 3.8384334645083813 4.063027196802571
Cu 8.036421845298078 2.482089226416623 4.923866050495884
Cu 6.415322170742165 2.8877146528725532 3.27763139998986
Cu 5.574627197731796 2.233047902630043 5.615131172206244
