37
Energy = -108.55984262 eV
Cu 5.151497351921341 6.407902016095535 9.366014723748231
Cu 6.847496590361228 5.214495738064686 10.553923483823201
Cu 4.145702131115889 5.014414328289873 7.63012221404481
Cu 4.903388665129553 3.8737527628880764 9.608221869084046
Cu 2.971133374351702 3.0253179307488085 8.017632445932634
Cu 3.6646610881573 7.550002703759248 7.4986096556606405
Cu 6.82905874742176 4.51793546448042 8.249201295094695
Cu 3.64684490347057 3.40129655700436 5.6422567673241035
Cu 5.351909158474809 2.7747933446978523 7.373925640840845
Cu 5.849947448614808 8.60011073479989 8.37168677500949
Cu 7.581234782814324 6.818779023038646 8.784298849895519
Cu 5.885803536025849 6.605879750111001 7.040742349712406
Cu 7.69318387371379 3.1062698802293216 6.389666581272061
Cu 8.71344172595469 7.028061341921989 4.502982967866183
Cu 7.687761008829379 8.121990614446096 6.518235635007844
Cu 3.067211540403073 8.894890114393963 5.4644622117151105
Cu 8.188334438761645 5.669192515448414 6.569890331729673
Cu 5.701855613630716 2.162124173227556 4.993744938302553
Cu 4.700474625779099 9.508725728887091 3.7545482081603283
Cu 5.382548542135203 8.833112274237601 5.988777734971987
Cu 6.335464332052174 6.703633807508067 4.6314674598338055
Cu 5.937877736798075 4.544466924760732 5.657792692019759
Cu 1.9890691379952135 4.888858507171127 6.519493240234736
Cu 1.7117785706147604 6.957777145253456 5.320708720130189
Cu 8.340734432280826 4.556464609926347 4.435434891624192
Cu 7.074975800745698 8.943886878415897 4.196859581184347
Cu 8.016481569995127 2.1601200763334227 4.116490295218811
Cu 3.9981003759725304 3.1491544381304113 3.2776235033139924
Cu 9.720820494912534 5.6746148852709375 2.766528952309477
Cu 5.661489316655112 7.683424023372017 2.49713464557829
Cu 7.296231915217251 5.825500331785585 2.529498909691484
Cu 4.002059118672148 6.2051675904563135 5.473576789033682
Cu 8.537952560907868 3.648381359742463 2.1661017136950322
Cu 6.3485305203259745 3.616530808872902 3.143614598193095
Cu 4.798638068206033 5.461457279447545 3.105589781370199
Cu 3.355939914183784 7.449273875679032 3.4715023517818673
Cu 2.522250164835414 5.014123638539827 3.9835203730282918
