30
Energy = -85.71686678 eV
Cu 3.4108702035270984 2.5570820895029045 4.955483942110402
Cu 5.718275604303449 2.4018326975891218 4.024438752239812
Cu 3.6248837993574807 3.745190455748284 2.8613880657176494
Cu 1.8162618097422085 4.360682655396445 4.459195129256119
Cu 5.338453273986943 2.7270940929806953 6.523308718548009
Cu 3.123279298852726 4.458937157973302 6.448495927248295
Cu 7.163131069936151 4.339870104835225 3.2374678495375186
Cu 5.038472588395198 4.520956250211601 4.728929458450347
Cu 3.0550550207788194 6.120819154309815 3.367059740614339
Cu 7.386761494094232 3.541686075597709 5.476451987496582
Cu 7.255050071667298 3.6672570129932742 7.940017224210889
Cu 5.2241948905869195 5.509022320463283 2.4075798932750976
Cu 5.324451793877828 5.027681619399949 7.220845801550563
Cu 1.9653045922476446 6.531180064922436 5.747937640070498
Cu 9.43331154715952 4.146424483704938 6.6065255590026215
Cu 4.355445461760569 6.677817187772251 5.492043627113581
Cu 7.527925779719173 5.79529950601487 6.674140129247563
Cu 3.4360833453096675 8.544581385994437 6.6531331935109055
Cu 6.6203227185883495 5.939670320848794 9.026610447938179
Cu 8.972614912112943 5.400814269034334 8.640605184783773
Cu 3.507935888576035 6.4558374101681375 7.8702987072417105
Cu 2.8718694566369973 8.367329857647253 4.3368441605963595
Cu 6.550907498008201 6.494214931339646 4.3370799501909545
Cu 4.822620364352521 7.784359886064561 3.0798618169978704
Cu 8.801106705200283 5.523964267691944 4.617879999105318
Cu 9.784082262974314 6.631867078821508 6.598619030214984
Cu 5.768850800200812 7.574093583088011 7.360176766862935
Cu 5.59459056742277 8.75025800832981 5.199320118178638
Cu 8.12005517265202 7.691908061140952 8.127315743347282
Cu 7.903898193272115 8.000588483296964 5.688211617115481
