32
Energy = -91.9773723 eV
Cu 6.075915951485244 5.9300419260444865 7.11530014617903
Cu 6.755695186288958 5.607948270416925 2.809110572239296
Cu 6.401491625059918 7.464126658754728 1.384405437392476
Cu 3.562353836751543 6.064663486283152 7.112795064348073
Cu 8.489213298267241 5.0041827607536975 6.772331955023719
Cu 7.505923358224652 3.3182940645115977 3.2624902587499602
Cu 5.9475023124434765 6.640248766244141 9.44352954674104
Cu 2.750068058397518 4.10444663280063 8.139265110412966
Cu 4.391752403497592 5.760107924227791 4.800925272788916
Cu 8.010499691674152 7.642599537327203 3.3773428698354366
Cu 8.914883172686885 2.972319783470938 7.985632085585465
Cu 4.457469334390514 3.8177006690238375 6.314237747105571
Cu 8.385357315571596 2.9289190616674246 5.49753032858772
Cu 6.601970287137227 4.650352235796269 5.132092894509702
Cu 4.987630480927981 10.058157416154527 6.93754301392124
Cu 6.725595850159503 9.236816724239336 5.240371526495967
Cu 5.025341261761896 4.35941711937697 8.753153042041978
Cu 5.9763437014917615 2.315641917224164 5.015899800215779
Cu 8.747727522136797 5.3549858221304705 4.237607125187279
Cu 7.674379170308954 7.053909539338746 5.693911023617727
Cu 4.421317510938444 6.148237071242554 2.3640601374906676
Cu 5.611146386690678 7.854545241307773 3.598208560620139
Cu 6.596538410111642 8.399467330714986 7.594157598551305
Cu 3.221743248796575 7.66947050272887 3.951211829397643
Cu 3.5165734774961597 6.095286245241801 9.53484495447791
Cu 8.217886486076152 6.834079435627563 8.29791673835726
Cu 4.771983328312139 7.857032702991785 5.968882168687079
Cu 5.028633861151665 3.901139380635405 3.4042510823453247
Cu 4.284817737497868 8.122595437162284 8.388930181046723
Cu 4.368960811563009 9.790140648071079 4.581788894039884
Cu 6.6353240146885275 3.2155981723515836 7.246169797972116
Cu 7.453971262199689 4.667788616647321 9.018660409746824
