36
Energy = -101.98546835 eV
Cu 2.9583959959673285 6.096628374288714 10.360099201796697
Cu 5.661443692633058 8.327542836691654 7.673465719027665
Cu 2.651581547270073 5.141320957023933 5.735127168397666
Cu 3.6400421046066604 2.957853826707269 5.384598496097107
Cu 3.83307574551121 7.1910470805993265 6.328299516507763
Cu 3.1535221930779773 6.083428395211552 1.6399391944147348
Cu 7.503227446005563 5.380514481129588 5.1866989389372185
Cu 5.164315322926658 4.948234244766769 2.1384638949604398
Cu 5.081944839753778 4.9638405170459645 5.0914313143686885
Cu 5.089757514909607 6.5642069626787976 9.374971618105224
Cu 7.89709464863619 7.772776614861739 6.809758556691902
Cu 6.698815873396865 4.556570593292552 9.188667518955834
Cu 9.131938918787885 5.087362359614606 9.602827765232723
Cu 9.795769566664406 7.037997002703995 8.163993813011622
Cu 9.68107241364053 6.474477092786367 5.744362581645732
Cu 5.14576335399283 2.9509936212094576 3.5657803055564763
Cu 2.8382020276685243 3.4448237916546245 7.571800916152218
Cu 4.291817546126915 6.816369610180834 3.6476795982131547
Cu 3.3516158818538586 8.02959847318535 8.6083290012016
Cu 9.049753023728552 5.873145120367705 3.4656000982042596
Cu 5.288245899675175 3.5771763424147793 7.196065417632934
Cu 4.28910612162454 4.283493078407174 9.343418482282944
Cu 5.964788230464778 7.437779290441669 5.292670768307176
Cu 6.071858184412765 8.888331712847164 3.3857453452400597
Cu 10.680620997484043 4.972861351787065 7.374947717580173
Cu 2.773938823870252 5.792975801929849 8.035472153392012
Cu 6.094170366481427 2.8425016822843725 1.4052145773659515
Cu 6.726842858479807 9.652303111495488 5.765266970698229
Cu 6.721940995255143 6.569623067583191 3.1106214984519696
Cu 7.28267967929345 4.175594046090469 3.084432917863575
Cu 7.483896492310609 6.88399499576947 9.049372594931606
Cu 6.0414721941726235 5.894985058117484 7.202420665284872
Cu 8.327280118463618 5.081081436708638 7.401970591231859
Cu 3.1812724738656923 4.521229990833229 3.476644038322876
Cu 7.851617895721423 10.438945687944566 3.8312554946640223
Cu 8.275975155389839 8.097131103962733 4.397660887011316
