33
Energy = -94.73321474 eV
Cu 2.068468059789631 9.869985063297397 6.40537217815626
Cu 8.152665876293575 4.679454889605642 4.8961223227414035
Cu 6.591558609120992 10.236984534540893 7.1674773810607455
Cu 8.573269940908938 7.637361508254752 8.601317574370366
Cu 10.537301465846511 4.625207539432847 4.527014904160468
Cu 4.620503041821 9.974210732865133 8.777855794319825
Cu 3.586758498625191 9.15062653467234 4.310852669308695
Cu 4.362915959832683 9.29091147027199 6.529139346729105
Cu 8.88325901592991 9.944370260256797 8.180387338775338
Cu 4.90584613407414 7.565562020480229 9.362930075354223
Cu 8.700155075786732 8.942854851034806 10.768616583432426
Cu 9.627735660800356 6.801671021864683 5.055569132871977
Cu 4.7690573733279695 7.163828544610983 5.04792220915273
Cu 2.8413099013994922 8.341382430076482 8.207511505710176
Cu 8.030600649815 6.1598708144241305 6.8333916125022665
Cu 5.894227672411862 5.25021927221132 5.999886550137165
Cu 7.167398870940372 6.962029261994866 4.646213444079987
Cu 7.488629329264546 3.819984383036827 7.244817214943111
Cu 7.112439112690692 6.908724507452823 10.371828081761628
Cu 9.83542978858261 4.502502048691313 6.841912421848596
Cu 6.244951948026115 7.77846430783585 7.220448058531217
Cu 9.581412731275853 6.667382770407574 10.632964984125275
Cu 4.134104713063461 6.395472442447441 7.330322400952916
Cu 6.137598039288812 9.182633519894353 4.899361841758599
Cu 11.632029530669053 6.0727692665316395 6.203281167020105
Cu 8.253742941338817 8.678806410442386 6.093170104409389
Cu 10.463802593621436 8.153727264999377 6.94778895255862
Cu 2.548960402688571 7.567883153028679 5.895889466146848
Cu 6.196881010579381 5.603877063382926 8.475996300934264
Cu 6.766206116931575 9.209308317900923 9.388987301336705
Cu 10.669932563533742 6.2086501389313025 8.436031168171386
Cu 8.571660905976959 5.095101490328637 9.057357307418059
Cu 10.678778848969714 8.551929596056663 9.368249305237384
