33
Energy = -93.82627018 eV
Cu 4.47888547142024 7.995813918966609 8.356762658310691
Cu 7.889141328839501 3.87797369383812 4.156519886492232
Cu 6.869949399381212 8.773845422221127 8.355947863625408
Cu 6.306402304597573 6.9891528749714285 9.867072822350378
Cu 8.376312435578567 6.496640433725358 8.380716940200186
Cu 8.420327265573139 5.949430233548052 10.757854229604364
Cu 4.529382494275467 5.478557271262075 9.046723815246915
Cu 5.9606607100734195 4.9130867458126755 2.947478772760471
Cu 6.874015893688435 7.104370083495529 2.5070190078682044
Cu 5.807186208543112 3.6581943821825536 7.531041441994545
Cu 5.574140636502267 8.657367121622107 6.180506992550551
Cu 7.392578075954489 2.520453992419833 6.095171834632438
Cu 6.426596970242382 5.588773808762674 0.6893434810711798
Cu 5.9353606665814675 6.295349164860679 7.323127842920045
Cu 7.775234439056853 4.933623689343626 6.412364883591917
Cu 8.275994903163596 5.10805976316156 2.12322629908891
Cu 3.874153967093916 4.777604434398871 6.750066530098048
Cu 8.50053584010713 8.247903451616848 10.053770659019992
Cu 2.5282621576075948 6.4181974884303346 7.911251025932345
Cu 7.789528141163733 7.555763205129991 6.243640095159742
Cu 3.7489348486858964 7.12387365606158 5.960415177005162
Cu 7.226762834299684 8.6979005222153 4.264075074313565
Cu 9.297345031710343 8.688251356736664 7.747146495739513
Cu 5.943973683829271 6.60163271280437 4.803701598310746
Cu 7.531661109790071 10.04538944240189 6.430324993909743
Cu 9.856856088923692 6.421719184973924 6.417321618821396
Cu 8.437850716031045 6.273549643947056 4.263149979606891
Cu 1.9284393061331777 5.492128857061884 5.596952203214236
Cu 5.624604351900348 3.9150177572806126 5.1452762676001225
Cu 3.219874985048247 3.3185213217366556 5.022560857814055
Cu 6.952906395923045 4.751671015526325 9.250463216356993
Cu 3.904373524439077 5.448436686162809 4.146128429213688
Cu 5.256067799133212 10.396046648612192 7.777176990867576
