35
Energy = -98.70233464 eV
Cu 7.19334225993227 2.907709350560047 2.091714735956221
Cu 7.318662714854275 2.326214824974897 4.481004509858572
Cu 5.474670952043664 3.660607739944985 3.5624868320175107
Cu 6.420698407009938 5.26486865373805 2.0195193921918375
Cu 8.02034033107727 4.508594393131111 3.7077790114813967
Cu 7.202390093137864 1.9841434164104292 6.893295434156295
Cu 5.195858567438031 2.528079197436376 5.660043035581692
Cu 8.504742744818127 3.8331513974948668 6.01627532508567
Cu 3.435637577304321 4.051978304273163 4.773839240401935
Cu 4.3473175453855255 5.803412330202983 3.3109657338752068
Cu 7.761390018059306 6.8953052288754515 3.2726711027549604
Cu 5.655092997339086 7.544398322270247 2.245404494646229
Cu 8.90878593261325 6.118174992603025 5.271255385855134
Cu 5.292758217487524 2.922241153094863 8.064850113526898
Cu 3.148139920777266 2.750806772796246 6.895944638527584
Cu 7.527788361712353 3.9506575072961585 8.275195044347353
Cu 1.395458537446045 2.8645969495620314 5.253521080224754
Cu 8.849899805662973 8.482869181951104 4.762499054943273
Cu 9.201416447152097 5.547246408055627 7.586336910278446
Cu 5.686923009144122 4.733706491391055 9.63818289390537
Cu 1.891762563313196 4.794906787868809 6.5721949874781425
Cu 6.480996566322942 8.757786162670593 4.158705511342204
Cu 2.711874871266817 6.425471960598949 4.990788664555406
Cu 4.093651814436921 8.15737740470583 3.986316746692781
Cu 9.717561878346837 9.780636585524741 6.591443816439983
Cu 3.6699800799927598 4.731495005167302 8.276341586191704
Cu 8.459145992310392 7.7921678051634125 7.110763974225021
Cu 7.176227435035445 6.368158885257093 8.63186733944334
Cu 7.357309650977237 9.79280326663658 6.187953645287407
Cu 2.815754101844579 6.8242781672867965 7.420624535765865
Cu 4.997584854998859 9.329743675809805 5.969080188709718
Cu 2.674259019785828 8.683787373346888 5.896022117541912
Cu 6.246004730316309 8.499711705766968 7.918477126716596
Cu 4.771920404391052 6.837821431210812 8.90437517179452
Cu 3.8359863939968104 8.907631798595817 8.046712906854573
