34
Energy = -98.61305523 eV
Cu 11.60904808742825 9.291178461164423 7.741386853137505
Cu 8.052312669685303 6.415232908198288 3.395881182416428
Cu 8.66819005636601 8.222749067982114 7.2074269705562415
Cu 4.943196046984209 9.440607637662186 9.799242670154785
Cu 7.929774362258705 4.107103342794463 6.666976688890151
Cu 7.380616500176546 5.4925461515224185 10.455650952571741
Cu 8.195528979535165 11.485283158361513 8.576211633726222
Cu 4.813057220286007 6.844628051334791 6.709266995536678
Cu 7.396510544814627 6.39308483119457 6.160882884895823
Cu 4.224894264366063 7.218036459833711 9.128696354086284
Cu 9.674085341542044 9.596684408132033 9.180672856744783
Cu 10.122722264317527 5.4848526531540776 6.738317286337773
Cu 6.550084398474598 7.817054550967346 8.376915455551776
Cu 8.057295123829668 8.51007329925301 4.61123894340411
Cu 4.971663362563921 5.322470711349002 10.340332056448903
Cu 9.915831500516699 6.979800814984368 4.8027584081675725
Cu 9.268061944098545 4.641036543646281 4.65880813185711
Cu 8.5588422019881 7.603446610574991 10.07155401738263
Cu 3.8816381934766655 5.017267786363338 8.083704676725556
Cu 4.242853457194819 9.048495781046512 7.495935052066176
Cu 6.206571390891593 8.732982704219866 6.055128795320872
Cu 6.239641057586493 10.334640882306966 7.898949787574369
Cu 8.504338959307399 5.897890613583068 8.379690784856356
Cu 7.34940896867272 9.67938129533109 10.024467450756426
Cu 11.660154918722702 7.324708943939063 6.382454208142438
Cu 6.251033280153606 5.174436723581988 8.275389711474709
Cu 10.505334780749255 7.268203803239798 8.554745043291646
Cu 5.8554463460002575 6.829375551733677 4.428280235657878
Cu 10.141510049615485 11.126609510946954 7.277099410907146
Cu 8.061096888067986 10.424060641200285 6.247786886412236
Cu 5.407829372973361 4.630967866033216 6.085373266597607
Cu 6.131667596533019 7.545075271746069 10.799359494471302
Cu 6.9206838935093895 4.522558940386523 4.290374677472282
Cu 10.234155738952204 9.291043977579628 5.623041485628653
