34
Energy = -98.70754929 eV
Cu 3.757150255759584 6.09164082660667 6.526104083801327
Cu 5.581436923166921 4.707257102270975 7.314390726022093
Cu 3.9208647625194213 8.410292724406245 7.786646574602378
Cu 6.834617250541419 9.781469225347562 7.332266909942676
Cu 10.209504901955714 3.7624941991656695 8.548627961926265
Cu 5.8944826054792 8.34755802677726 9.335270570468472
Cu 8.337232948611977 4.861287776991573 4.179352258092033
Cu 4.051112260891897 8.09542608893431 5.249567247460595
Cu 5.840896845608482 5.6665606829179485 4.76910386550936
Cu 11.400582497528104 5.487477287290028 7.135767413326097
Cu 5.966021772809279 7.406227115252959 6.921103548683111
Cu 4.629677597483186 9.921936222650134 3.7694132483955016
Cu 6.4475068230161146 9.061455370302303 5.0174951219792625
Cu 5.970057426499329 4.207556361182737 9.703369125342878
Cu 4.287609149656204 3.958889989888203 5.380819921673801
Cu 8.461872790332205 4.576971976823686 10.130704680747137
Cu 4.672275616333969 10.221875324230009 6.261664894228751
Cu 3.5804449667344 5.975750083528557 4.068063665926291
Cu 7.012312384991637 6.137893255525877 8.895180243313792
Cu 4.585654100817483 6.303786813678471 8.864897420742913
Cu 7.736503620860385 7.165741422966208 4.244487638172474
Cu 10.517510140803159 7.9062717427947495 7.46115864401471
Cu 5.413428949325017 7.587813324604087 3.3241103140560853
Cu 9.25738947955445 10.0858842673576 7.84806118417817
Cu 9.368585569101883 5.957465771587843 8.276594324832628
Cu 9.872895364132358 6.458508624151989 5.468335879511578
Cu 4.973753694449966 10.466946907009678 8.730647720353787
Cu 7.3761326549565265 10.371041389739055 9.544348476204183
Cu 7.7727059134638194 3.8013605307999834 7.977238026649739
Cu 8.297306868017357 8.142481044811765 8.72915605636785
Cu 8.475152661212983 8.339536309018417 6.233026541017226
Cu 7.69619180481495 5.81989773251758 6.36974980968541
Cu 6.902780939535956 3.5545056067896867 5.640085510935384
Cu 9.487891935998002 4.119245621073971 6.2272975893293046
