39
Energy = -113.89838753 eV
Cu 9.265645542004474 10.147635415939613 12.799384145370679
Cu 12.10352219983205 13.92395171105023 11.757494970901222
Cu 11.40922450707948 9.78633083197025 16.49754289096936
Cu 13.14962044988873 14.159115626296755 14.909341247676902
Cu 13.983607084354759 11.293369475438569 8.962283468677391
Cu 13.410028361915318 15.807095103214463 10.744414351372892
Cu 9.976913133091498 13.554658104041605 10.45011359610828
Cu 14.354559603870637 13.33127148564852 12.66401754037737
Cu 10.170932952358616 10.955696599590937 10.525119549626924
Cu 12.93083128291334 9.912746372308863 14.565477645659602
Cu 13.811874451499431 13.571433429056128 9.81108593800085
Cu 12.307358415530372 12.133919167941377 16.07958926879406
Cu 10.552926612976862 11.139589471461576 14.705092031758983
Cu 12.516127750601305 12.129862065659596 13.5801981832469
Cu 13.793814576494686 10.369071159827106 16.75783188532738
Cu 9.612162490768155 14.495699812315179 12.764763432744383
Cu 11.660933957392123 15.660552920389643 13.639530406057874
Cu 14.321361127113267 9.684956471244163 10.804948061691535
Cu 10.670661355793236 8.785314871200297 14.337275719106561
Cu 15.195174272904769 17.128680543278538 11.661454592845454
Cu 12.1322777387377 9.857764196213516 9.734949265051288
Cu 15.575901015899543 14.208831306099661 14.636547390437247
Cu 10.932894132845371 15.979537846989672 11.284131183120236
Cu 8.595882418507681 12.375989877714927 14.063603285264367
Cu 11.739432646487346 9.926282674661307 12.348248577199668
Cu 8.586392817786033 9.912950174295705 15.128520953967481
Cu 14.128346222905076 15.801042819127082 13.367071849033797
Cu 10.751772926983685 13.59015441981443 14.715947288463184
Cu 11.69659125150926 12.280579974470504 9.107182571733597
Cu 15.608292408162036 14.702368844376814 11.036498331923413
Cu 11.742723513367702 14.726819503390637 9.30497177056253
Cu 12.706228375340485 17.469850552286168 12.314427984685762
Cu 14.60641235601982 10.783056357916985 12.910928327116109
Cu 10.382524495553994 12.257324435085033 12.461580435341213
Cu 16.705206287409123 13.13171859903722 12.692748124270812
Cu 14.540061785857255 12.002690588436773 15.017468770326118
Cu 12.959261061885384 11.659702727323408 11.173142032711617
Cu 16.587756306246494 15.630935873637538 13.006479946724806
Cu 15.468697100140416 11.987870303732917 10.845065590345431
