31
Energy = -89.16270546 eV
Cu 7.828011825935041 8.828133036180965 6.336458101644697
Cu 9.31066175958163 7.203001254571022 5.254030479668355
Cu 8.14470306106523 7.825954456735459 8.681153231993918
Cu 5.514229188606503 8.90946095790519 5.508530697997027
Cu 7.114584254349164 7.510388478618557 4.266844715902247
Cu 9.441069446627766 6.144752672436307 7.44327487383384
Cu 5.947924194589827 8.640622265421529 7.959100576479615
Cu 4.729478715551824 6.982238126506402 4.010469639755787
Cu 6.330347106182456 5.61046224791795 2.599187052338647
Cu 8.664763464045475 5.926281396888954 3.283413943042004
Cu 3.114133374940968 8.437801178046273 5.0457277864991505
Cu 7.011050566632381 6.613587787335345 6.832715609605814
Cu 8.80472589622143 4.836070494773015 5.483586031864389
Cu 3.7774967137410234 9.35726111757956 7.222129233630732
Cu 6.0888977729100855 7.077704800322122 9.818762525733392
Cu 6.295423076342343 5.286453715884508 4.951688376368336
Cu 5.7019239279564635 3.22205684458661 2.3651781388501227
Cu 7.754872966130157 3.699373953737737 3.5201928745396436
Cu 4.483289788879015 6.954931619449885 6.548154124745974
Cu 7.617842944586801 5.354053593462192 8.890249584684735
Cu 2.067923188739147 7.6391162166175794 7.085901138991377
Cu 3.844169926366762 7.472462388336008 8.876342528601008
Cu 9.02144192374956 3.716467249574914 7.641424912966474
Cu 6.706041402867357 3.9822324505044353 6.999340803221439
Cu 4.224419141542664 4.562824270699098 3.7588492382737724
Cu 8.09698008214415 2.524769173190081 5.660166882779151
Cu 2.7048616623175405 5.951111080771527 5.234856475308885
Cu 5.806741074820953 2.8954129432414444 4.834251236658098
Cu 5.191929451878682 5.393178511193744 8.36576751566693
Cu 4.368740000604633 4.366776193464078 6.2352356307863674
Cu 2.8242951962635585 5.467462315021197 7.741013098992033
