32
Energy = -90.98730076 eV
Cu 9.958889005556385 6.925240128475254 11.680693884797234
Cu 6.193640807346345 6.961573954370479 10.09648260560948
Cu 8.242642642277328 9.044863186692522 7.374296193711865
Cu 7.839166453475779 8.459582653801219 11.32474549457653
Cu 8.495291625260172 6.159043536005803 5.591563837292324
Cu 8.789038534801426 7.443369983234516 9.404692360169367
Cu 7.451706168917389 4.870792189658811 9.371503036714543
Cu 9.714390605637362 5.068182821043884 10.184130091890342
Cu 3.8521091776323204 5.756644316025575 4.315984909498507
Cu 4.935235235553214 7.710846082568898 7.975573121336688
Cu 5.524874720458197 9.652649656097608 4.3743422547019195
Cu 6.5749516836328095 9.118402753751162 9.159045310286528
Cu 7.596097248528789 8.196826834363675 3.51345340633269
Cu 9.330147555958344 8.442249604829478 5.201860622665011
Cu 10.034117022568365 7.290180502979934 7.14793431837726
Cu 6.467798277628049 5.517323784740598 4.424859278169443
Cu 5.287848667631167 7.420714605963229 3.497252664182501
Cu 9.27957679777239 5.153246896102676 7.8027988783944044
Cu 5.7884890139238925 9.752258817856609 6.886059018036367
Cu 10.587697233369827 9.251879356503256 8.366183880759882
Cu 10.873875297358676 11.142265786310698 9.849293861213175
Cu 6.676698218283508 7.8652854371499705 5.643924774430173
Cu 7.66807876792655 10.168640027602846 5.231763009363978
Cu 8.671301656478057 10.150194189713234 9.626736301936925
Cu 5.229673981767494 5.287034747336805 8.585399547550624
Cu 4.153257989238082 8.038209421080326 5.633982320030689
Cu 5.069152905502025 5.9019771907650505 6.316985246149367
Cu 7.799421879031168 5.933846763107961 11.537178608627224
Cu 10.435991549816123 8.99485692513958 10.766356002727067
Cu 7.037454035727484 4.513046791816145 6.7647756581200715
Cu 11.112240980757202 6.91973434518212 9.330688758016846
Cu 7.16864476760413 6.7116677174270345 7.730252769769843
