34
Energy = -98.18419298 eV
Cu 9.355733229493133 5.006738337922272 6.367410491599634
Cu 4.46330798464895 9.08097781339213 5.910149066105457
Cu 6.357977279219188 8.875517033089547 10.408315782187094
Cu 5.64006403738599 11.15255894000183 6.455374937506652
Cu 5.790001871003547 7.41835371702374 4.6685584926211
Cu 6.68625555122124 6.607961279524474 6.923721551594785
Cu 5.045785097525978 7.223215708960983 8.903742591124882
Cu 7.214205761321645 4.014082852200284 7.034226026002722
Cu 5.143451174065998 4.905341588804158 7.898200998347765
Cu 8.241422451689315 6.445071721373258 4.540552458773592
Cu 8.819935831576327 7.61097301559859 10.633288345873224
Cu 4.81039915755977 5.155496895164498 10.28017176254949
Cu 4.237519718890196 6.737770191839649 6.492561426555565
Cu 8.581702300216701 8.926540869020846 4.661433603248081
Cu 6.912875409339096 4.169869423967469 9.47295365438363
Cu 10.739464671298206 5.515588774396299 8.660401020783258
Cu 6.906561995428322 9.026321824506471 6.424271640011632
Cu 6.262190524682412 9.824641249200676 4.256414854977394
Cu 5.596394247418177 4.980617676802502 5.4174574414970715
Cu 7.328820326334557 10.802837067947234 8.213166265146477
Cu 9.055010620155619 7.422110843014966 6.5461042612851355
Cu 9.263914358902444 9.733542278627871 7.155123503857741
Cu 9.014476374180585 5.107905206711526 10.582868510073096
Cu 7.69821843828359 8.329620749722247 8.591310719125948
Cu 7.705770350208205 4.080783274742081 4.667756613342542
Cu 3.1616341423240715 8.395841689018589 7.8378444357181705
Cu 9.147026532867352 3.6775109331337354 8.494785610166655
Cu 8.433858831317965 5.99718125815318 8.484317196053539
Cu 10.17386602927723 7.920554777801927 8.633047749307602
Cu 6.8059857033251845 6.431786479896776 10.376567768440232
Cu 7.930448872407895 11.128643670276933 5.70056089667529
Cu 7.257215573669924 7.927593301552617 2.842556951517065
Cu 5.237323999518647 9.568715294121883 8.31239933258825
Cu 6.457686603801325 5.576300694841457 3.1651973954722887
