32
Energy = -89.47401659 eV
Cu 11.468792355623435 5.317858571494761 7.570249782934851
Cu 10.342040018792675 7.2164363261490365 6.774490212828977
Cu 9.531460863359191 5.0734892888933745 6.252593817830164
Cu 10.164334042104642 8.710479299597422 4.91326491922781
Cu 8.371951878403786 3.3854521610012105 7.42813334543609
Cu 8.664872534062573 8.927520377651772 6.829218467420199
Cu 8.325519124062144 7.040132891144718 5.104984004729692
Cu 6.720931534120308 2.0624004987719333 8.812241870536724
Cu 7.945855411286936 9.503297239944757 4.586959736507596
Cu 7.86940407424941 6.451935969547408 7.527953862641112
Cu 7.217818794358956 4.836954693295998 5.710634788109866
Cu 6.2553382026743245 2.6289346747327356 6.502079246804911
Cu 6.991837354691132 8.696126629812323 8.5323259823442
Cu 6.432542697212913 8.219667745305163 6.196980114645308
Cu 5.2646536706624625 8.602362324431622 10.208169922897447
Cu 6.414796567802504 4.432448361729648 8.294643218925302
Cu 7.243219365496035 9.804912130964219 2.2935054871923413
Cu 6.05652180102931 6.579613185413671 9.200682674581168
Cu 5.812644632458615 6.411727763242702 4.415287552379883
Cu 5.191133259207012 5.973086601156846 6.746248608726872
Cu 5.766608562659229 8.85893302005959 3.895325230463879
Cu 5.00946747100524 4.07387374338555 5.032749875648221
Cu 4.106481928136528 7.989745695039732 5.523082297345718
Cu 4.4951001172707485 2.8790412434655432 8.170585055993804
Cu 5.0082833425024855 9.217708855410605 1.6825153666080932
Cu 4.028204896964156 5.2476034092455475 8.767861445390437
Cu 4.578140810394611 8.081952457684284 7.956387369023052
Cu 3.9343717718420987 7.5492586515804 3.1013368694424557
Cu 3.3507957670291693 5.821481130021757 4.767565479139946
Cu 3.9335506649244785 2.0568184531505787 5.920610575905887
Cu 3.160630871995918 4.229680238607463 6.679211793280578
Cu 2.8030490768074694 6.579419831258147 7.062474488247938
