33
Energy = -96.18629743 eV
Cu 8.319922073037988 9.02588573752932 8.984460713981223
Cu 9.141824512799511 9.847950429401413 6.544185218019882
Cu 9.10131335069169 7.350717187347032 7.133957451277942
Cu 10.6719504956651 8.829161221291635 8.219733498698384
Cu 8.343224466377096 4.051144878690245 5.696260875481767
Cu 10.014106025627719 5.8744092174483535 5.465827913277096
Cu 7.098321587475159 4.0197527446858885 7.856591207039996
Cu 9.543645962113363 6.965023548503047 9.49969694505431
Cu 7.0981744358838315 6.513710976366815 8.363361628594847
Cu 8.28073695998699 4.980131405930431 9.912495491250006
Cu 5.9156594377479115 4.97998542495739 9.912413025795804
Cu 7.098111207146077 7.3381975133154835 10.532178970625274
Cu 10.816258234849707 8.216551455024764 5.712707936891704
Cu 9.37375975988558 4.945643859943781 7.741158756972256
Cu 8.29775980892488 5.742489559344535 3.8098963052150703
Cu 11.276594748255095 6.503485076071832 7.585622638359369
Cu 7.098193186686071 6.167727469793724 5.911245948042173
Cu 5.853576245719456 4.051053101462292 5.696140253752247
Cu 4.652646717377157 6.964792080295055 9.499676040974116
Cu 5.876176337108821 9.025782402713086 8.984424389774608
Cu 7.098092785142982 8.550012171887813 6.7923621166829
Cu 5.0950195829597185 7.350596971112038 7.133936335008957
Cu 5.7087589006811355 8.03175372044224 4.739598223545083
Cu 7.0980133832481735 10.777219091446083 7.633878273162213
Cu 8.487499582533378 8.03180751864034 4.739584945937425
Cu 7.098079669252014 10.146815455986104 5.059847137421897
Cu 5.898830719068908 5.74253700795023 3.8097511153526935
Cu 5.054303380630799 9.847797933663234 6.544175575128512
Cu 3.3799822664199755 8.216234986293637 5.712701037460232
Cu 3.5241623229272867 8.828803873527049 8.219670007942998
Cu 4.182501963914453 5.874191610282897 5.4657413122231135
Cu 2.9198162580695555 6.50303108207958 7.585571638246295
Cu 4.8228326601785945 4.945452570660829 7.740996484748009
