38
Energy = -111.53506352 eV
Cu 10.560893282688465 5.312792642032435 4.230626464362129
Cu 6.0399209596452215 2.5100716328243275 8.052437744661393
Cu 7.235737636712475 3.2693473502087267 5.927981876994539
Cu 10.774263916116867 7.759051218329537 4.255103015374667
Cu 8.398900948216586 3.120150617824581 8.092169656991459
Cu 8.31211682807937 4.351207500726475 3.938345314524616
Cu 9.452070313230825 4.223682397424228 6.151287042312756
Cu 8.648934660128143 6.784602875779649 3.7184632868559584
Cu 9.661486100351423 6.646210082550544 6.11294755820319
Cu 4.887382773444434 2.681881143078137 5.868467293447663
Cu 6.020140499738874 3.5342063954159317 3.755073734792309
Cu 3.7771846345047697 3.4648179225884097 7.874245823151818
Cu 6.833042638837762 4.373446794253183 9.519645327028213
Cu 6.367666213719304 5.914797156566967 3.2431318790834647
Cu 5.799250639807493 4.859332915671203 7.382560732768007
Cu 8.791599351961255 8.796289145651835 5.2458003146952965
Cu 7.267222180968055 5.864074100460476 5.6426596008477246
Cu 8.334803112636747 5.530261788185756 7.944993501698793
Cu 3.700930084077832 2.859337410292112 3.7386312516477593
Cu 4.85022459376362 5.168785796068102 5.180015398232023
Cu 7.830809476905245 7.821003279645457 7.264239204915766
Cu 6.649492917553196 8.079059304989595 4.388988315024872
Cu 1.768781493257473 4.223759327004076 3.320715321355645
Cu 4.458870109006328 5.302458760413257 9.377497037453374
Cu 2.649648469048901 3.8202355730764417 5.688276282705341
Cu 4.03345057182499 5.088694994695588 2.880057675827387
Cu 5.41317082301493 7.362821114274413 6.52544114813295
Cu 6.3906782925627645 6.7531674781226725 8.9829967428141
Cu 6.677537092561138 9.719867450530343 6.232153921522166
Cu 3.3447332330671653 5.7660359990321615 7.1180914536910445
Cu 4.370734021486628 7.307886437937488 3.906410554845227
Cu 6.143938693421036 9.104709445846986 8.540599251470665
Cu 4.0792571265188355 7.620058901098067 8.57471821028885
Cu 2.457977572946304 6.032900917036743 4.707765069566416
Cu 4.66105546868539 9.460046033210578 4.89610431655464
Cu 3.0501188805615254 7.949469993481529 6.056087215506923
Cu 5.736282000938442 11.397107352919313 7.667553800430916
Cu 4.2085463768773455 9.668460376291998 7.24444733942852
