35
Energy = -99.18613272 eV
Cu 7.469396407593133 10.479046120575461 6.7333480123789835
Cu 4.526635019412664 7.876694565531949 6.171715479552698
Cu 5.972115043441141 6.670600091789339 7.827171113877729
Cu 7.8641467261407945 9.922962193031687 9.153780189420544
Cu 4.129845822295906 7.706028474276796 8.970032844827722
Cu 4.50911627483401 4.630489287070683 3.6558381331664447
Cu 8.918261964654041 7.744208942836306 9.842629811110696
Cu 6.443430997647465 3.2976669550582707 2.436930740947817
Cu 9.318592115647665 4.82026072854509 4.733964191173578
Cu 6.551804855265476 7.862740000925517 9.771485907192606
Cu 7.725316346464816 6.333389524301159 6.039706822948944
Cu 6.077154311745847 4.295619408417519 8.315813132986737
Cu 8.063439619760349 8.15016758854443 7.605743325881769
Cu 5.8539190424089 2.698687119619847 6.4475120907506245
Cu 3.3670283410222437 9.557429531107097 7.4598256091178925
Cu 3.817313152345722 5.3842297534828365 7.8067653853127155
Cu 6.32494660935895 5.720451648580365 2.16151082248614
Cu 1.9006836739830597 8.630071530368273 9.153666011829365
Cu 2.385991652858313 7.269160784608328 7.256567677087896
Cu 8.126276485293474 5.802050952081973 8.505730015695098
Cu 5.789579332729125 9.24022671378172 7.891862935924193
Cu 7.481513495907228 2.302753884210478 8.160501721571558
Cu 10.818550652623012 4.56565153079724 2.910498420236116
Cu 5.145202067800129 10.252105664535058 5.803843818694712
Cu 5.124311616559431 2.3672500273485673 4.19455240519919
Cu 7.971144597365602 6.9137877946029 3.6770073175334965
Cu 7.917896198801726 4.032901960680241 6.610731820052524
Cu 3.6095858216712156 3.5792411599279395 5.78354081666094
Cu 8.530110881043568 4.655870663281964 2.423746207312198
Cu 5.524846425321537 6.84817344843806 4.206513439529444
Cu 5.39202116552666 5.1530703007525585 6.048187842024461
Cu 7.634132126931979 2.5235789361193524 4.647899444167678
Cu 6.942057275600566 4.7515386218221805 4.286652860212806
Cu 3.242286455548663 5.98342798151078 5.3241960447582
Cu 6.859918824361807 8.514877486449542 5.439505535652214
