39
Energy = -115.13487855 eV
Cu 9.086397583076344 5.019565359102245 5.724057846332479
Cu 9.028653362066139 7.46570038740291 5.123288833763679
Cu 8.397003528466904 3.204376302998184 7.332959716978333
Cu 8.145083984947247 6.554201975328132 7.249551709646347
Cu 8.185131772346072 5.145348720650297 3.489447496560783
Cu 7.818860378452885 3.139729143957211 4.858003370305177
Cu 7.638253975253321 5.009981258553458 8.989411717466957
Cu 8.056167853449201 7.516393291025085 2.8244185144510214
Cu 7.206134912861641 8.619719937111293 6.669604658449815
Cu 7.484516260953547 9.30639749307291 4.407716733017591
Cu 6.780781609330056 6.659875370710803 4.906115769566899
Cu 6.216151415341705 2.248521894336767 6.556072243800027
Cu 6.658145970472017 4.679504894075041 6.6505508705162635
Cu 6.417732826095329 2.9260530139522745 8.884107179785763
Cu 6.623344498419511 3.4256114237091544 2.444289035230898
Cu 5.442643333227477 6.809940212558444 6.973477257029115
Cu 6.142392663250112 5.961005080739091 2.4860822467338872
Cu 5.727269491856631 8.266336410273736 3.1505667309497407
Cu 6.0846088313457605 1.6090429778655357 4.189533849071846
Cu 6.5864348418882965 7.2906833362396135 9.026218649006944
Cu 4.2350727691911105 4.829372646025286 6.218862861998674
Cu 5.065212628384438 8.691349858075176 5.405695198329236
Cu 5.603332607222002 4.219577721011214 4.36249735211359
Cu 3.881494903307072 7.200289456281216 2.0823075538778144
Cu 4.0849142363733515 4.783995900063767 2.2887438865870946
Cu 5.21673050321931 5.126646387229425 8.824926241084055
Cu 4.06901928415085 2.4104690380040923 5.44276146840551
Cu 4.365688879372882 6.405577452605013 4.343857643953154
Cu 4.226316643599374 2.480869931081864 2.961982604835917
Cu 4.204090296906718 3.1052842272313264 7.85709079241765
Cu 5.105779857929888 9.055428113794443 7.86313611972236
Cu 4.089483700999786 7.281254978846602 9.178829453527694
Cu 3.191976713934888 7.786270935572533 6.849955451223578
Cu 2.8291301745373305 4.102326160579202 4.229460343801353
Cu 2.8057062379764264 8.177818691116267 4.390635356265778
Cu 2.8551251744969104 5.543103107014115 8.023465909660848
Cu 2.024083197719806 6.104890957288704 3.159494752515297
Cu 2.1298234369001414 3.6667621835832276 6.541583455530248
Cu 2.0670541464416408 6.023382975938103 5.61679656138888
