33
Energy = -93.86225162 eV
Cu 11.19193226365381 5.511834453329697 3.9595089159375134
Cu 6.537073406885866 7.4846397945098655 7.367044540718091
Cu 8.900578665731066 8.048216422656688 8.081639940378087
Cu 8.295910132925771 6.842170502990816 5.8126953189040265
Cu 8.022400752584538 9.46610561472549 6.42143934116007
Cu 5.785182154307285 6.091327459473315 5.440444909487342
Cu 8.311641656034428 7.151775184369556 10.150744535835695
Cu 4.132808624249405 6.55365570930757 10.333921782951801
Cu 6.324677042966028 4.122243696848889 8.096086201178796
Cu 6.366788248544576 8.445829815684768 4.9828328278438985
Cu 4.957463474386739 10.480193173847043 9.28931513015224
Cu 10.320301667861248 8.41900669858903 6.182279469367457
Cu 4.551742841184075 8.18355430428899 8.68688525904292
Cu 8.867364226574209 4.865572201090392 4.020153267458937
Cu 7.279301186154179 6.677365605034527 3.5110427814496523
Cu 5.633018660267514 9.75516479291099 7.032123908423688
Cu 4.606688968420316 5.81565721698797 7.6837359924171835
Cu 11.199768511759142 7.943574412589378 4.036065550140249
Cu 6.3039914102192585 10.21111587800359 11.248565183364576
Cu 7.0487189471647875 9.225840933863983 9.097881251039935
Cu 6.487060823180479 4.338522578430524 3.9445153910031543
Cu 4.285125855751944 7.844432658567523 6.275587515015791
Cu 10.695313592127889 6.537804342489732 7.979556647370565
Cu 11.980004245369797 6.6212154076149226 5.942495101519849
Cu 8.7908973538098 8.62522289104516 4.176648989845962
Cu 9.557488239259456 6.793312123920874 2.7067232678775968
Cu 5.1700911369637845 3.8595783512963404 6.014580574679564
Cu 8.36188546485445 5.639065788176705 8.088514210849432
Cu 7.632504811260469 4.399337034597452 6.071412478140178
Cu 4.027915276971097 8.96558407863121 10.98875857233292
Cu 6.143246705665739 7.87138438775343 10.970190337487308
Cu 10.050893061722062 5.060865734777988 6.1680154681573045
Cu 6.301057183030748 6.043403266973448 9.432724756368987
