32
Energy = -91.76509291 eV
Cu 3.0953756057068325 4.691918412222538 8.461072721227612
Cu 5.615807046595116 1.9921039957980289 6.241065404572501
Cu 2.475642288906882 7.068846765501996 8.420578713450178
Cu 2.715192442418692 5.824705756163225 6.304657277578085
Cu 4.698011033508749 6.450408024799858 9.21013531669833
Cu 3.550008970319074 3.447742356873856 6.326961372931656
Cu 2.21816138479658 8.21792179793618 6.2799196407981235
Cu 5.05349024407296 3.2076225793569453 8.273326955051964
Cu 5.111010495483385 5.3159708011016615 7.098732319505429
Cu 2.6277292554132274 7.069620141299282 4.138301762696139
Cu 5.5802395688520745 4.080909613170048 4.962667192836533
Cu 3.3309822440806887 4.728689394566617 4.21596708546129
Cu 4.441340598947387 7.875156895405977 7.219787543696663
Cu 4.132786733193303 8.909301572281963 4.93581335782775
Cu 6.673259516319748 5.023850664132065 8.979609966509612
Cu 4.84039157372456 6.572963139255543 4.940273309834134
Cu 7.215006969541468 3.697822035529517 6.986081492116546
Cu 6.7315176414237134 7.2229816137561205 7.9239323592922775
Cu 7.595183232617986 2.6627519882608723 4.812056062263058
Cu 5.340384539324704 5.393034105230117 2.8729599612521755
Cu 6.4308798403917455 8.449501864631715 5.7863433319136774
Cu 6.185218105486314 3.0642826998725563 2.851783438460414
Cu 7.129575393018302 5.961980726146157 5.7640497251461635
Cu 6.121537894124787 9.522518684043908 3.663426774360608
Cu 6.887152259084955 7.204272732726101 3.5475262831882293
Cu 8.697594098122384 5.635739200250703 7.695725702323252
Cu 7.6762191711523196 4.819337189391339 3.539200365607134
Cu 9.152079035971026 4.445554768238346 5.519182498782654
Cu 8.712894251587878 7.780443990348652 6.453804234576114
Cu 8.408939241608325 8.95213452720946 4.3299257208218345
Cu 9.180145270314757 6.625186411417355 4.2768748127189085
Cu 10.587678118917802 6.283199339888223 6.20914437387071
