39
Energy = -112.81193454 eV
Cu 13.324740351639075 14.981371755729356 11.239989993550003
Cu 11.584857381832391 12.59263567263072 8.473218661570797
Cu 12.094927094497903 15.808537324135832 13.289672275742586
Cu 14.803409775953464 13.122472942003908 11.855544266400726
Cu 12.29864967824193 11.868141287542672 11.697237263496634
Cu 11.200547284635894 14.013212380977711 15.04113784327758
Cu 11.190571706417446 10.481015424121908 7.352107612149901
Cu 11.06008409805761 8.109315658651898 10.959196872785933
Cu 9.34758066838717 11.644884466056975 8.585114089166622
Cu 14.59031290472415 15.353643118697097 13.258010811991982
Cu 9.589291466249481 10.194069481053333 14.390468596613186
Cu 11.119388867484265 8.307074136271316 13.602439576242038
Cu 9.834675099713373 13.972995751401962 9.493451235798979
Cu 9.171269793490339 7.4731224585511 9.489261665322193
Cu 11.235525758427654 8.319159474157644 8.508007373959702
Cu 14.320393005179799 10.879112923975486 10.759018327624783
Cu 9.129933741723278 9.2877759417579 7.743639953544623
Cu 13.598074272026716 17.083393004751635 14.630170639490157
Cu 11.488450574250017 10.436644897478338 9.844284641258838
Cu 13.610290255460935 13.014759515863068 9.736946867148802
Cu 11.1239380219225 9.233717041721304 15.958948518861785
Cu 11.279305315624812 16.34229729050756 11.000271671217494
Cu 13.120980612033732 12.311540441586676 15.467431995111795
Cu 12.876890808131071 13.488130211225057 13.364377177253827
Cu 9.85748667580896 12.065801887244367 10.935239420640247
Cu 10.465146643088692 12.352462395109658 13.388354709243666
Cu 12.856156328761216 9.392098826935728 12.104985124767783
Cu 10.46490405989484 10.138302542040694 12.169163052081307
Cu 11.027312967296869 14.091434076774261 11.705530285591436
Cu 12.04211432021797 14.85843358419489 9.24334408950438
Cu 9.114834451797623 9.762182807599192 10.181131530138268
Cu 15.121217164130284 13.229804732313843 14.362089814056649
Cu 13.489716361887277 14.806764913583939 15.395057200252804
Cu 10.763011973109888 11.727704891431955 15.831806253104382
Cu 13.404036555925252 10.910073694127858 8.422195932679339
Cu 7.203521432782889 8.828748555682935 9.070971668014156
Cu 12.071517378933317 10.500816302752645 14.168868089584535
Cu 13.3002679981819 8.807770827555487 9.781438359734544
Cu 14.192192410609133 11.23251307510989 13.281117462365128
