32
Energy = -89.83988703 eV
Cu 7.552717220229982 3.131251697613119 2.083480432777387
Cu 8.266819190118989 3.5115467163220795 4.396374005262974
Cu 5.672698492569599 4.702168236156269 1.6194438412428307
Cu 5.8934976127580905 3.5391096491817318 3.7378281177044292
Cu 7.6274047728204355 5.37609587187479 3.0369965580934113
Cu 3.802955117862863 6.305062246089868 1.5845971204047928
Cu 8.098510099845255 3.707158756051519 6.7836679512507025
Cu 3.7679185853791113 4.7028818372234555 3.353509103281828
Cu 6.553662393201002 5.2485845278142005 5.402775635836242
Cu 5.500802854646628 6.475382001756803 3.3221324390669467
Cu 4.376666340288556 3.92666267555149 5.6007229526925855
Cu 8.917711930679886 5.716465149022448 5.478565256999935
Cu 5.8395743482022695 4.298923535557549 7.566562103589095
Cu 7.534106302972639 7.431358486328351 4.357090959524824
Cu 2.316522970242303 5.232412007630637 5.2455658652238295
Cu 3.876231516962494 2.6893329084462274 7.666866639310028
Cu 4.253673640175696 6.5757191378021185 5.91821871916183
Cu 3.187523904966653 7.092782919569318 3.79518178390717
Cu 4.41639210205726 4.262887365180071 9.493212444428917
Cu 7.88616372303389 5.848587135463022 7.694578391555265
Cu 8.744547055789452 8.016129087543845 6.623731665153356
Cu 3.3086022770355767 5.017966358800693 7.479296161248646
Cu 5.131488519578486 8.483903390369386 4.645650608754075
Cu 5.067372110323399 6.613145162693075 8.313482443629772
Cu 5.189006934419205 4.957565453277281 11.568370027328253
Cu 6.617918727094727 5.398050154271817 9.720640093079131
Cu 7.1772980460352525 9.632773819385841 5.36738664450873
Cu 6.444610985536658 7.515013707210631 6.53725499761306
Cu 9.064228412323798 9.245748408680203 8.67178886128652
Cu 7.248187602192571 7.682989658513005 9.0327636154579
Cu 6.911360399350919 9.650811258528778 7.729566099344722
Cu 4.634247628417593 8.8919524972008 7.053120278390075
