30
Energy = -85.09896646 eV
Cu 5.237106027234949 5.046016248623262 1.7493668301385301
Cu 6.740877845763166 3.1935031905647757 1.4769329389259371
Cu 5.444147684723969 1.291592487441676 2.0960617804408574
Cu 6.4439851919845434 7.274553761014116 2.514404843373927
Cu 3.3109597652001925 2.1687755755955584 2.842044616419923
Cu 3.8296332522494616 6.903226438675563 2.8457337170451913
Cu 3.4640088006393994 4.5216007217390555 3.420005321158074
Cu 5.5763860211524925 8.152407014090661 4.673345116360511
Cu 5.556554078300282 5.715676757951262 4.006082971867462
Cu 7.532785989453033 4.970555298147799 2.9009815628584397
Cu 4.812695503490012 0.904536358239919 4.37677150707524
Cu 1.4134894597445455 3.4413302152309577 3.8694818455283952
Cu 7.757699792433625 6.773876474311515 4.6933144581652
Cu 5.607602377694408 3.159925480983384 3.6676755582005183
Cu 1.6672735179748368 5.9629529864348605 3.893748747211198
Cu 3.2057766603855895 2.4477451891309614 5.261646602483103
Cu 7.1682746527568835 4.3431721415502285 5.383556315494206
Cu 3.561476724659927 6.730956230044184 5.3312664067223965
Cu 4.631405659154847 4.383728246378307 5.722545745939973
Cu 5.664238886135237 2.32453899864623 6.184496415231755
Cu 5.900033603093027 6.352711005240052 6.300639924865061
Cu 7.200886361939075 8.277029019284218 6.6499963776613855
Cu 8.090275561692273 5.956959784443712 7.075231306476813
Cu 2.2444849718868576 4.67007922136415 5.904912668007062
Cu 4.589559825045481 8.189432511526562 7.053875843350829
Cu 6.128794984377194 4.350330421319321 7.735905301428327
Cu 3.795528094067276 3.2809768618680506 7.613350237805935
Cu 3.888723588039228 5.781047685208008 7.669913674424095
Cu 6.27123268663096 6.773022624082471 8.597917758122044
Cu 4.109144380097772 7.502782998870026 9.333835555218117
