35
Energy = -102.84284767 eV
Cu 3.0834188320252305 5.280911421949967 5.641414575287835
Cu 2.280899176365707 6.8795300500231376 7.219675402545214
Cu 2.985177981072992 4.6693222928202776 8.030472285563715
Cu 3.80968837109451 3.6456332019034523 3.9130793898988347
Cu 4.133301761305187 4.6277858478463925 1.6340016540406694
Cu 4.143592110099381 6.062553683037978 3.5684448112695373
Cu 3.3176086613658464 7.749976644461233 5.136105830581434
Cu 4.140980096570827 3.17501052498501 6.463587190708345
Cu 5.763467951357764 2.3559536119347317 4.686307897730648
Cu 4.183595697878282 8.324833222525923 7.450871435115701
Cu 3.608633503619689 6.715022977871195 9.262371918285668
Cu 5.293580720349573 8.20153056414288 3.4598123268233016
Cu 5.551461833556398 4.739680602417646 5.2606900998001604
Cu 5.214640803024283 5.7449943896520566 7.625319078145759
Cu 5.052324519741721 9.520614344482945 5.522703058256789
Cu 6.095426389795766 4.147363550998378 2.9563654853530927
Cu 5.6399301804241295 7.136469170559097 5.652758988246541
Cu 7.443610283824538 5.550687089764892 6.518853054404027
Cu 5.898056957289538 6.352767682038022 1.9214611059639297
Cu 7.82362551534561 3.732992836876678 4.712866862485431
Cu 6.583966661742347 3.0184422441338556 6.883407214145595
Cu 5.594824469593903 8.101022529327421 9.379664927299096
Cu 5.777744821010508 5.71408368431911 9.980623940180934
Cu 7.378380083286267 6.090529948182687 3.9482026157907395
Cu 6.6654898972842105 8.791985773415536 7.260067626674533
Cu 7.552173045352817 8.04365358001155 2.4945212746312775
Cu 7.323081353087617 8.810581365136827 4.829502775985724
Cu 7.475158079286256 4.433221095693999 8.719979397323431
Cu 8.95093546970567 3.578560467375434 6.871922390825833
Cu 7.527023409956005 6.923514641956712 8.615988624082933
Cu 9.531684002480144 5.497700774132582 5.326424073997971
Cu 9.504951612328062 5.731944471042307 7.83856147549821
Cu 8.743589364477874 7.670009029380967 6.507921081032336
Cu 9.3134202469268 7.592373619367177 4.123459167722197
Cu 5.11434359833741 3.5954158850906763 8.767119936390564
