36
Energy = -101.15200446 eV
Cu 7.007581325363908 7.289284208641527 1.9279849267952607
Cu 7.07543738473815 5.878688085590021 6.602755403581124
Cu 6.879527606214355 3.427037925624869 2.6555121089009845
Cu 7.057500869201466 8.887192844874688 3.922364026634001
Cu 8.50066856472497 7.097985902058185 8.128988644836387
Cu 5.184753383369025 4.417976914878112 8.751100525116396
Cu 7.079954826306543 6.508878512249293 4.270130554773977
Cu 4.9892164753134365 7.671468331399744 3.439680146828727
Cu 8.262539568732786 7.948615856112114 5.847783089247749
Cu 2.6596790786397375 4.916381057705888 5.461327204868841
Cu 3.339055792127544 5.893566431933684 3.2335062077711934
Cu 7.8288885275848035 4.258760962302079 4.841329806230926
Cu 7.530485258594964 5.057065606194761 8.866482910467099
Cu 6.9026541456462045 2.8067898339598747 9.302309973475163
Cu 4.516191952422481 6.9567802552402505 1.1775162185593397
Cu 8.394505712232526 2.1379427644368136 3.916804232520973
Cu 2.7446810488811684 4.467677704149206 7.900613108706262
Cu 2.127444312470438 2.69628647320284 6.308656106852049
Cu 5.525283669222176 5.345747856754734 2.4985182726636292
Cu 3.9288639503275546 8.160245528923582 7.49722296713063
Cu 4.519694831753291 8.499963789851545 9.79005176173283
Cu 4.52166384058121 5.897711183235675 6.849635312928617
Cu 3.9791949092980436 1.3714236556141164 5.369850384218979
Cu 6.971224191476019 5.105033612386446 0.6837225940668513
Cu 8.425739759510014 5.308915905327575 2.626982390060978
Cu 6.1167494079130815 2.437635786974267 4.856206889074633
Cu 4.414982467427191 3.3564295307682293 6.511631462138139
Cu 6.044244895606539 7.059560940595387 8.497796610729994
Cu 3.7279181491071105 6.361445402357093 9.1804815410989
Cu 6.792749264177913 3.493738789080859 7.005814053656087
Cu 3.2674040307513557 7.315204655948685 5.296161461143626
Cu 1.2669696305702471 6.446530641128047 4.216359441057613
Cu 5.684450531762117 7.908077610028966 5.807051201501526
Cu 9.082336128872948 7.514261534269695 3.4991978639036887
Cu 3.24108996999378 4.293317508660006 10.227937978394921
Cu 5.363314658219334 4.819838162640561 4.820018475163389
