32
Energy = -92.50620364 eV
Cu 10.372223217261967 7.015704311106125 7.6954132361838745
Cu 4.862766419420316 4.777128505396807 7.573106127158071
Cu 1.9519745738323937 7.921362810072218 3.6446504584914607
Cu 4.382134041061118 9.466913462657745 6.737712258984783
Cu 7.18851045898547 2.014986220252828 4.972474017963029
Cu 4.551887168660675 7.198431347418794 7.545880358791926
Cu 6.163474029768554 8.220007828525732 5.62296442128704
Cu 8.456128213189059 7.757289941929033 9.12111006051461
Cu 6.423543407649486 8.643868777198394 8.038551077633349
Cu 4.569385583000631 6.134016425598745 5.291112456078058
Cu 6.409742261175209 6.338020097611142 8.93515416801361
Cu 7.837702235131906 6.852198145212488 4.440813160256042
Cu 3.9259889147262688 6.704725676808002 2.9051857247456434
Cu 4.708803837687994 2.002274559612592 4.556486550255829
Cu 6.21570960922603 3.1254299149093736 2.973529770748778
Cu 8.057164400060179 4.381962688903674 4.271773567625255
Cu 7.951817456761615 3.6480234421877493 6.632363605745974
Cu 5.638622938976561 2.5162113600696356 7.000304145017754
Cu 6.785438448512121 3.8855618556427522 8.717906971772198
Cu 2.658961767649647 5.636814919771083 7.019304849801902
Cu 4.029845157469644 4.256167490163776 3.4714140801484157
Cu 6.109341379483424 5.571103254664392 3.213352152280511
Cu 2.2856044035103276 5.674696805998083 4.589629082088808
Cu 8.367514955920852 7.800917207523011 6.68685714982696
Cu 5.8368520511914435 4.0410964382824925 5.189981674715186
Cu 9.360584973216742 5.615741060451355 5.936742878785407
Cu 6.070301365315834 7.971871662608771 3.1544380684345596
Cu 4.118377560069053 8.730847805609544 4.339895089369793
Cu 8.597306985201216 5.472585393963777 8.269183372794261
Cu 6.782644068190953 5.908275421358002 6.479481476803431
Cu 3.454741655632203 3.704099365879785 5.7925945862965245
Cu 2.6579667424727513 7.7947260830235665 5.963693681797302
