39
Energy = -114.29600648 eV
Cu 9.411790365678202 7.756262488644064 6.92124573584429
Cu 8.23462625784945 7.295177686739374 8.984740766549994
Cu 9.23054468560822 5.455594326224926 7.852312959859207
Cu 7.272635285047673 8.83826830930779 7.275899239027921
Cu 10.308604967055116 3.860166349220013 6.310140758901057
Cu 4.931177997239121 9.691254976181513 7.694180818088632
Cu 5.89875003560852 7.6050757452097155 8.810161877977828
Cu 9.225096188792234 5.8716123647259115 5.406010235349921
Cu 6.825365833370919 5.1863129516612725 8.79567158744006
Cu 7.983254306970729 3.5904621544134128 7.035508615323355
Cu 7.8384410698273355 7.981096553951383 5.053618781013565
Cu 7.055594817150684 6.090705703211584 6.56848602809282
Cu 5.989062667036736 9.643698827448373 5.294538217736422
Cu 9.111862033143472 1.9143239283914362 5.604335325173027
Cu 4.735667534014242 6.069440266121678 10.172784705273056
Cu 9.23214459474259 3.848349751619383 4.054281244259598
Cu 6.9202305968749815 4.179148945777636 4.811693612006817
Cu 3.515088256830985 7.743954921672274 8.581815903692762
Cu 3.94748336284098 10.92100309937512 5.844274706685082
Cu 4.547213255349806 5.64331489909741 7.863475509014549
Cu 7.789102521865531 1.9197906922918135 3.575585748298106
Cu 5.095771906065539 7.689486205574134 6.419850447967394
Cu 2.650158779829069 9.073630549928724 6.701271848986612
Cu 7.359320538690276 3.9666340939580094 2.351496703800469
Cu 5.562404838915275 3.6526762134332005 7.039746503980725
Cu 7.6986824033323815 6.075383012173999 3.518597615909387
Cu 4.897754285772146 5.48162062117327 5.3818301151335355
Cu 5.700674437166805 7.460610969045715 3.980888417516284
Cu 3.734362023685818 8.844556194575828 4.5447498129675825
Cu 6.632624938468078 1.885226217235624 5.703141118207267
Cu 2.7870703336893508 6.643216875038101 6.4322102411155635
Cu 5.468224343053331 2.761273726984015 3.4287675372982336
Cu 5.361723107981269 5.2321908141821885 2.9407736755666125
Cu 3.0920897661100404 4.183268464803194 6.435825486558926
Cu 3.3697342979972937 6.567356060598396 3.7312188682528666
Cu 1.5131231987160054 7.86665981163303 4.832135129847384
Cu 4.256825638139975 2.2939194683768376 5.469922990498795
Cu 3.4281867634324272 4.040114840003283 3.9449919017385846
Cu 1.5711777438344239 5.360806897772554 4.815465186821616
