36
Energy = -105.13205683 eV
Cu 2.0019091080969713 6.243764607375888 6.49688487507146
Cu 5.932849627372033 3.8309972186673416 7.252044952990148
Cu 3.896172873892288 2.6064808982986665 7.7412401123559835
Cu 4.33259600571012 5.349574963381843 5.519420636915244
Cu 5.931648020254542 1.3310956760185977 6.841970727137516
Cu 6.113939208348798 2.128836945525087 9.122668927331892
Cu 8.282421052575312 6.541676675019163 7.635171574011746
Cu 4.69617225984802 2.806137892764658 5.36780691594796
Cu 8.205696599520317 7.745937627678079 5.331663320372922
Cu 6.048975362097122 4.2891876187519475 3.884180310205172
Cu 8.492812269860968 4.763112827958413 4.341945729907117
Cu 8.013132346233675 2.2681257255651635 7.694158297246154
Cu 5.202266108146314 7.5832575911583735 4.899134836002336
Cu 7.064721696768105 6.484703461406232 3.3125083472800916
Cu 9.507604321102573 6.795988682537914 3.4980589539885654
Cu 7.5674893475036304 4.41965180421693 8.938000516838848
Cu 8.054710693377016 8.698718388132452 3.078169089804103
Cu 3.6082394112693073 5.033095335495183 7.8595007306926945
Cu 2.7753019822364844 8.218960370792365 5.290685165494907
Cu 4.243699815828133 9.840698993226393 3.9600605558892528
Cu 3.1852303433147617 7.953735122222477 2.8938620939385635
Cu 6.7305283231167135 5.744315392818269 5.858758706740929
Cu 6.585528099824047 9.56034872203072 4.823804091399929
Cu 9.976715846597509 6.18209734328508 5.838920189499433
Cu 7.286548750710771 2.8808612285204553 5.396693248441626
Cu 4.638693171258974 6.059032598734173 2.977426084510148
Cu 4.602678417891948 9.552159241616314 6.352734902919159
Cu 5.054144560719697 4.203004634882913 9.557802820266081
Cu 5.885562078561546 6.123148048622417 8.257520913602383
Cu 2.366884447886053 6.013723879397236 4.123399078452832
Cu 6.475721682337565 8.133239803839455 7.000092332678696
Cu 8.76329121107463 4.329155816651438 6.773341019543733
Cu 2.4810682251537526 3.8476297281923566 5.931126726600253
Cu 5.636676527049525 8.389116022700653 2.615409376128358
Cu 4.0723620929102635 7.352146746742944 7.207553892809159
Cu 3.556690941804432 3.9669651960278367 3.5969627772383155
