30
Energy = -85.39534819 eV
Cu 8.191222313180392 5.216558496434601 2.2321218097544673
Cu 4.168636922671964 5.3174577966010785 2.7098993040792694
Cu 6.202214793741052 6.76981797893278 2.2516697820559384
Cu 8.558793685700447 4.526048375592413 4.584967257733057
Cu 5.1088802487152805 6.9174283975160655 4.388295799317553
Cu 8.368953163686363 8.734015083459289 5.430421112710121
Cu 4.554252743604269 4.76587742361817 5.585647139902673
Cu 4.408355551114688 3.059815386745862 3.9392911496115857
Cu 6.575036278090151 8.809892663326824 3.8053035774757578
Cu 7.914952115344753 6.848014114941584 3.971685211114799
Cu 2.2364605265532007 4.1348607794696495 3.479718794966882
Cu 2.4705541831110853 3.2961340851963405 5.722511984595079
Cu 6.290189556908417 4.756262156282553 3.6570847230929218
Cu 2.6937816449924967 6.353798583170044 4.398810941923067
Cu 4.548312036249145 2.313775219182349 6.37681267727502
Cu 0.8230241225355668 5.0476982078465005 5.305505236705271
Cu 1.1459406073834366 4.093845322989796 7.582720020414321
Cu 6.101581577099259 8.23557456028642 6.211372429756503
Cu 9.22893994628155 6.417766384579054 6.027757249432882
Cu 6.800584657447439 5.768309735572335 6.014786617036338
Cu 6.633127607284446 3.153299345596559 5.43982530053458
Cu 3.6771411725298235 7.922505093607936 6.033715600192352
Cu 2.4911998393057595 5.954156369739186 6.810122838797103
Cu 3.5542097500756675 4.050710752738401 7.852030277208015
Cu 8.014206407627158 7.792218725061576 7.609824917972818
Cu 8.391534156592268 4.20608497693387 7.025630457940642
Cu 4.857350359102343 6.327395190668948 7.479398118214031
Cu 5.909321095933665 3.9004616647326578 7.606573671112927
Cu 9.460653897961496 5.961809245734938 8.395874414726935
Cu 7.073296735584802 5.80111557985061 8.523329280754774
