34
Energy = -95.64476695 eV
Cu 5.204768496725471 9.632180667997131 5.335936582585683
Cu 3.7380917516829233 5.670165269078635 3.9256745101466923
Cu 8.902335844502812 5.759125862211259 8.134510166524636
Cu 8.681835031845432 8.173696564393063 5.016172370332756
Cu 7.2565709667056595 7.081107797508666 6.619816021515813
Cu 7.340372208201823 8.94482513198223 8.821666803831883
Cu 8.226676048072093 5.2644374383386925 10.547210296662424
Cu 5.749086605037755 4.940020763056994 10.411701516907572
Cu 9.219384566688515 8.174781528448253 7.4748119087385785
Cu 7.396152032590025 0.9979757340109225 5.078999939384833
Cu 5.2959106288034175 2.056422168167015 4.669470146826308
Cu 6.458611443505069 2.5770795352443208 6.816667361693644
Cu 5.353807739436838 5.203753033927585 7.852374965935113
Cu 7.248045978484723 3.9217813391793506 8.778757690221912
Cu 6.388585569209179 11.669724828499175 5.828869378910133
Cu 6.7781846876543375 1.8992577430781377 2.7899869409292997
Cu 5.512371053357112 6.450324116920858 2.493991403419782
Cu 4.08853128263952 8.100402550026967 3.7480548959454647
Cu 5.008234438124741 6.806861868501975 5.672970621035646
Cu 3.400000555886818 6.592025713737308 7.492747070087644
Cu 7.415168966608099 10.242156105937772 4.2332538952219
Cu 6.852429573718503 6.640209607788993 9.150843695462827
Cu 6.504753246971502 8.07634550753415 3.9666441683739637
Cu 5.555186462960569 4.0599452125860775 3.0984086574636973
Cu 5.020541866200007 4.335527583876705 5.599605045856825
Cu 3.3931052242154887 3.3086623314832075 3.9936216495221832
Cu 4.509497818818385 6.8941408712089 9.597808560922463
Cu 7.003470492870599 5.758843472085471 4.373701732442893
Cu 5.240138027332751 8.281793374242994 7.658655198656963
Cu 9.05273472523302 7.492614809848511 9.85146327271045
Cu 7.405370232590438 3.3477372748040044 4.571283063293813
Cu 7.4428880178749885 4.722715567685743 6.520832639250668
Cu 7.326108039490792 9.569963280633885 6.541379010725129
Cu 3.250566517262476 8.475224558747557 6.031753822652907
