30
Energy = -84.81609759 eV
Cu 5.054032452756798 4.53553816347074 1.8612669140409992
Cu 2.7274432035792824 4.414489753810754 1.106619072816633
Cu 3.3745102026285125 6.6085222888030675 1.7879520296311888
Cu 5.299557805760518 6.565388905515365 3.2585147093398823
Cu 7.254008530753619 4.989248980775075 2.881644839617929
Cu 6.190308964026318 2.5826125949797447 3.1285453696578327
Cu 3.583158493779129 2.710899046370676 2.7093580289340413
Cu 1.220604519383118 3.605579533673474 2.7443182657388774
Cu 5.512119490024243 4.326516988158343 4.472855549886017
Cu 3.140809163503265 7.441626053397062 4.125117878494292
Cu 5.4076039750258555 8.308021323401157 5.0389530062239265
Cu 0.17714543289798676 4.533039972947805 4.729047162285159
Cu 1.3115605828042547 6.047821223371343 3.134764383889166
Cu 3.3380645143796217 4.962638636242818 3.6289741777661546
Cu 7.037540275924983 6.42642343766292 4.920464413749736
Cu 8.021547569250032 4.17642894148242 5.029242372616422
Cu 2.1715889296462225 3.1178782146893034 4.922737347299765
Cu 2.139276645659777 5.526690797719264 5.730758266847972
Cu 6.521276839465481 2.4674216751256077 5.882873914572367
Cu 4.374658638664658 2.105395407532301 4.878603327876565
Cu 8.495405029018606 5.864665181701393 6.7887914084146175
Cu 4.482090136016135 6.231970168606816 5.739568113509857
Cu 6.2271746876463725 4.695637573035084 6.775595183078313
Cu 3.9130254163695537 3.9461502824395027 6.439188360031558
Cu 8.223531949412104 3.5817209340472123 7.511172749136393
Cu 6.361023619779979 7.232612367297584 7.136460291000084
Cu 9.377386013951982 5.233866751381185 9.005320388635957
Cu 8.458450093154006 7.441769020465172 8.55529796285044
Cu 4.549499353071838 5.712212967446942 8.140334095544441
Cu 6.980925986623284 5.532541329407228 8.86098893147112
