34
Energy = -97.55864035 eV
Cu 10.3077147662183 2.2256095663758693 7.1378424772820015
Cu 3.9098364285933425 10.457023775379048 7.024174607506575
Cu 4.3427748928660534 5.8571633239983445 7.955109620349936
Cu 8.589919566374627 9.585512510292128 10.505291406170363
Cu 7.387602159324683 8.566810153127028 7.745586116730286
Cu 8.345595510348037 3.1627432860983893 6.021928164347016
Cu 6.327715604348857 6.476407186799669 8.998428551230388
Cu 10.03960092288493 8.476796945949557 8.827684226122136
Cu 4.8169926985262235 8.307187036018519 7.923366217549103
Cu 8.609686246508733 10.560738503071725 8.309971320188064
Cu 5.577291944093841 11.429286320795025 5.410608296326096
Cu 4.171116859839569 7.4970887706352975 10.025525762923332
Cu 8.224201126272458 4.8730917699277905 9.361426784517526
Cu 9.674613306702327 8.898605925317442 6.506765689082278
Cu 10.284805611654658 3.5980341130293034 9.078027141154086
Cu 9.888827615948308 6.844209987476858 5.121833153321898
Cu 5.611519217819518 9.085359593839526 5.810809519158952
Cu 6.713900312681397 4.520002861337029 7.4525234615831595
Cu 8.684550846673705 6.601111500678304 7.423481635081829
Cu 8.170838099526133 2.711516359286733 8.341179828642618
Cu 7.933114911327344 5.42305180693827 5.423434192357894
Cu 8.359631405478968 7.236194674366022 9.978534692999483
Cu 6.127488060930487 10.71216314378598 7.745074628627881
Cu 6.909484873472291 9.91520575401819 3.8929552360651156
Cu 7.711437005230054 7.9095879436565655 5.199946983413565
Cu 7.855257483169242 10.440424044934296 5.971351270180725
Cu 6.116555589377656 6.723040726235477 6.52252485262538
Cu 10.366380077945733 6.015071742292798 9.174249722479377
Cu 6.704222094899871 11.051478400047593 10.033662591319466
Cu 11.159454815307088 7.014129988910093 7.139975674186117
Cu 6.310877215218191 8.68279919598035 10.082635558902792
Cu 10.093054464308059 4.6858093616159335 6.805841818650317
Cu 9.325968028242963 9.27568747667034 4.1256194143051514
Cu 4.434659991103059 10.110098067397399 9.50040539855004
