33
Energy = -95.5665792 eV
Cu 8.936623734556472 5.422022142278335 6.387439722036415
Cu 7.211911862209806 7.298842984254892 7.4411820580343075
Cu 7.516508222059823 6.9766866219045856 5.06480181140382
Cu 8.301133338874093 4.791069164209138 4.051322075546892
Cu 8.39799412160849 5.669818777235666 8.753046848635856
Cu 6.933054585516716 6.535439349521423 2.7374507188461883
Cu 6.344199933410545 8.70352555707397 3.7835532337623965
Cu 8.041691258294936 3.4610143701220446 7.845310587417357
Cu 4.825920521531441 7.828204898124856 2.1808074493953207
Cu 7.075461849410965 4.270391995146195 1.8906168878328207
Cu 7.557378360113601 2.8975917119755645 5.573598222979506
Cu 6.58293429372912 6.934261484257858 9.776136048686126
Cu 6.615207316935526 5.015075966694319 6.354598910501008
Cu 5.62303248981121 8.568866937992679 6.037317253374857
Cu 5.062406563526768 6.584927404048389 4.469957392098434
Cu 7.134577512621444 2.3229753534886473 3.317544034673463
Cu 4.8407988821028525 5.401358596173129 2.0244817673125874
Cu 5.150648380045897 8.409708106470786 8.423587748292691
Cu 4.913526564646888 2.9307421659010666 2.4403773746421984
Cu 5.942311821924942 4.3789024318210075 4.063201275600677
Cu 3.72506705787734 8.592272873881624 4.335994010526965
Cu 6.159260728858246 4.701261610230117 8.882030081061
Cu 4.81036890315961 6.446513684044474 7.046755278601703
Cu 3.219392403004939 8.256876772394882 6.7480054269360155
Cu 5.050127976483613 2.3530567729983125 4.897483461389996
Cu 2.8848498642760267 6.63692912873156 2.9253166627043123
Cu 5.705347581496297 2.8268279650399104 7.259118021584781
Cu 4.272031729004624 6.23781620373033 9.42043378908123
Cu 3.423497652943249 4.3874554930592975 3.7737208912511604
Cu 2.728377076040778 6.328244980736043 5.280613305762447
Cu 3.9029009499761163 4.014572689118268 8.43321533526522
Cu 4.095954044758977 4.326442647084799 6.062689095470584
Cu 2.568461605723439 5.897396210187011 7.628855832545259
