31
Energy = -86.54591043 eV
Cu 8.230310998617336 9.27489338729057 3.397133802952184
Cu 6.311213622743405 8.212307395869292 2.3015837590828925
Cu 5.943204346595293 9.931159662323704 3.9688927937137137
Cu 9.554558198151192 7.883606702613541 4.910227096627866
Cu 7.680463498680939 6.878266883178094 3.7806247997628
Cu 7.302983374580632 8.778482560810096 5.583912851226977
Cu 4.3830535390921055 8.030991517549136 3.8016171577338254
Cu 5.50809548084831 6.041878017692622 2.999455837797467
Cu 4.883359297411703 9.033955072287204 5.956723215357599
Cu 8.341120993886204 6.94769464792809 6.781134484646624
Cu 9.13967136261788 5.429860481404954 5.113782063261091
Cu 6.978937539488777 4.60064482618967 4.241893388488723
Cu 6.212482387014933 7.778673873437523 7.556957026473239
Cu 3.269034110859378 5.880027737606474 3.958228837034608
Cu 2.9343906196694367 7.541756272440766 5.7098164361463555
Cu 4.66444988718599 3.883632504570047 3.8239196859591797
Cu 1.5485705202597253 5.478134906112846 5.574114639431574
Cu 9.19697184706508 4.79005938196629 7.5281653856120165
Cu 3.830897388790622 8.1234546549448 7.920892336459049
Cu 2.1848014878570154 3.7386583502195876 3.902851397513594
Cu 3.0643678286439506 5.844610708191985 7.476917012197498
Cu 8.237355053125622 3.299892324867582 5.835957872567384
Cu 7.340195271556195 5.934312667588752 8.727201013250657
Cu 3.4555208584421755 4.041526328469964 5.915042912956901
Cu 5.77532646798965 3.2727914330619643 5.915217587356598
Cu 4.9354493075793515 6.251435928824072 8.984939122883487
Cu 8.55409105940889 4.120593993320274 9.810345594328425
Cu 4.690234967915732 4.047055876374905 8.001734559275697
Cu 7.116239966519761 3.510512377988152 8.023933127683609
Cu 6.06562760942151 4.357290320502925 10.0302822604469
Cu 7.078268553157769 1.473086649550663 6.877749386948171
