31
Energy = -88.92503572 eV
Cu 8.754133224487575 6.994256135527648 4.821336107336307
Cu 8.693619147256582 4.709930598339229 3.6407432987006945
Cu 8.764350070920901 6.652345836166453 7.504045723367281
Cu 7.629859560838604 2.668334500925474 6.638494261133254
Cu 6.526171314136612 4.638233662611295 2.3298001844630822
Cu 8.103783625822402 6.665245373991316 2.45719485141817
Cu 6.892079809864467 7.562548014539814 6.290633652673191
Cu 6.780300768210439 3.5292290726933113 4.569309942483398
Cu 7.794126483002043 4.457561975538114 8.415718729356282
Cu 6.899292458820639 8.331141171195801 3.7691208123011632
Cu 5.8069006683978115 6.969653875894906 1.9404443455255265
Cu 8.279784559425167 4.921123465342284 5.995968555110317
Cu 6.449671302896215 5.989413950276645 4.378326457726293
Cu 6.503973635325968 6.582867184828702 8.524332665115843
Cu 6.0003449771574005 2.5216290555147927 8.334163432900317
Cu 5.388654228041431 9.232018694782337 5.411437019527157
Cu 5.929155707279655 4.69437633389635 6.820883973970678
Cu 5.1806763657731105 2.3683820410349847 6.001733500349923
Cu 4.403890582988293 7.837648895026768 3.6664796096304033
Cu 4.905615543296737 8.290986204388789 7.703877653062442
Cu 5.596078026596509 4.536318919768686 9.50621771023492
Cu 4.297558416505157 5.440658143152963 3.0740910669111337
Cu 3.9127139620694438 3.644886819151399 7.794384562016146
Cu 4.5463847281921765 6.660908833490774 5.985886665040168
Cu 4.805692186463045 3.0483364135673523 3.411045239094078
Cu 3.9599603714632283 4.334012244287143 5.2681434065131665
Cu 4.097665564635284 6.078949164454334 8.505518025285275
Cu 3.0842527444641323 8.656238400217196 5.541861655166956
Cu 2.4507351251862066 5.321763502406618 6.86670718052611
Cu 2.6041058469559193 6.3678363110809 4.574747387164461
Cu 2.488354056941178 7.597524965811598 7.598205521821176
