37
Energy = -107.70945765 eV
Cu 7.070583009671646 3.5133310475568584 3.0930508287560703
Cu 4.87024614994245 4.216291116672064 3.8847208147785977
Cu 8.326862488426478 5.44188236147347 2.222298590045969
Cu 5.816752221443286 1.9318551066992948 4.450083931147099
Cu 5.816483134793582 5.543975337612447 1.9520478789912183
Cu 8.23038676185706 2.141892253761356 5.144498697014315
Cu 8.988123743470856 4.389657103212172 4.325301724794843
Cu 3.046838501940175 5.079935996918124 5.127420336204191
Cu 7.271085458199086 7.582440824071591 2.181932003550683
Cu 6.751090406198869 3.8833018582560075 5.669780022886109
Cu 8.801030784537724 7.0439408753329875 4.115634685894759
Cu 4.8766052201718875 7.811599076825319 2.198986902428074
Cu 3.4670394110240337 5.842356580808741 2.723406639603495
Cu 6.381548438331936 1.701208320563174 6.797216757370854
Cu 4.316472783304184 3.097799237016036 6.038708796455156
Cu 8.182105639182994 3.3029888211737752 7.479635067426292
Cu 6.809671681261894 5.77666114116792 4.133605656442014
Cu 8.563647814294274 5.654167150929979 6.29181157294162
Cu 4.554590295299063 7.0666488298831425 4.469684674405309
Cu 6.306836068392556 8.812868106048878 4.020921944047499
Cu 5.579020625175266 3.587114273577034 8.053742879928631
Cu 6.977583412084083 7.4369256696315995 5.848977416658112
Cu 5.266701559726422 5.652471508751357 6.398856860967418
Cu 7.130597581989109 5.410293682707708 8.169511317990567
Cu 3.3184972089349887 4.741158797221879 7.593826540601696
Cu 8.282305768002235 7.559065320319847 7.971939289550099
Cu 3.230911411592692 7.043036637219794 6.571741073057478
Cu 4.848176621696808 8.949429387067823 6.027635119330342
Cu 7.1413837331859975 9.580151407111723 6.864587346523356
Cu 5.749035527735079 7.673726416721264 7.9305093776619175
Cu 4.933947543801917 5.689287015576348 9.207064544055354
Cu 6.904994427235997 6.9202412458471 10.040849938612332
Cu 2.790537415564093 6.752437748949564 8.969558205542596
Cu 7.152734305792757 9.215376028199294 9.378695337275312
Cu 3.271630611631725 8.907981151934003 8.01358298437414
Cu 5.251736767066954 10.132145629118526 8.263017603776774
Cu 4.688194028443079 8.137195973279614 9.977042529640968
