32
Energy = -91.5965651 eV
Cu 4.47571561074651 9.650491801258305 7.437365461187915
Cu 4.435731724022717 5.094705673147523 9.146944601446643
Cu 7.798873503585315 2.6234604683621656 7.241921152081176
Cu 4.208045546242161 3.11129117649144 7.617389956776294
Cu 6.937598179522986 8.943143751190473 4.387412045227693
Cu 8.448804563247162 4.743123153820807 8.548070509486186
Cu 7.611355161252766 2.603456161660302 4.853187926297603
Cu 5.8626285551292945 6.297739381797587 5.1879164851296125
Cu 3.262929384535034 3.9611164722809113 2.9172530709139766
Cu 7.385287046610433 4.843143199245993 3.945340993602679
Cu 6.001832053360896 4.000422276971135 6.1016559466594575
Cu 5.293431621228672 5.3485520817176235 2.7581470968667188
Cu 4.565386384371399 7.383947336986059 8.276409900174805
Cu 6.418000403453757 5.894644786059473 7.699103683664015
Cu 3.9578605675481398 7.766956771532518 5.936631711970377
Cu 7.049967215647929 7.036618371031485 2.932446492448327
Cu 3.649479702294029 3.476028631509704 5.296984817541881
Cu 3.4610401819809913 5.8329873151561396 4.473467471997667
Cu 8.546616817107425 7.024140903075704 7.489062985393043
Cu 8.295194487857431 4.8389879955092185 6.194200766584768
Cu 6.373659541363923 8.305417223930812 6.721404446691632
Cu 5.499865737422187 3.131436541845414 3.7790028034247363
Cu 8.56089412310065 9.162116548311214 6.233757115200931
Cu 4.403990297289452 2.819575788448569 9.974497331415884
Cu 4.872341348453671 9.841460854729618 5.0806623536559545
Cu 4.051577439419716 5.462982492995108 6.798923959725483
Cu 4.742702275197816 7.865931866548515 3.5672734595554103
Cu 5.28369335583203 7.2740097986853 1.2770786336470712
Cu 5.497698800449156 1.7239800968529189 5.918408305193307
Cu 8.21082429723592 7.014301292823715 5.101690291636515
Cu 6.306506384445806 3.5950578369379587 8.771246875377864
Cu 3.202189504781133 6.332220600322798 2.1147692408465826
