38
Energy = -110.98307918 eV
Cu 10.760788270615494 8.418958919217205 5.584526699882303
Cu 8.843438095947327 9.099283221331497 4.155916255136587
Cu 6.776770050244841 9.6526844905845 5.326278888269957
Cu 4.873154941980143 9.331802196054008 3.9317745226125527
Cu 9.195312569710083 6.802903647029583 4.767307136934003
Cu 6.881283191390277 7.538513867918798 3.931671674024309
Cu 4.324815320357083 7.076439198269009 3.414644088154561
Cu 8.64951319221543 8.87901166293843 6.626675604221507
Cu 6.280289334391796 8.971865155892361 7.6204663585745465
Cu 9.785558552488606 6.797610932537286 7.241011561526589
Cu 4.480905252968304 9.993799805087287 6.2800733848463715
Cu 6.068185076312106 5.693810027821005 2.523971590982028
Cu 7.492235904734386 5.100730130377689 4.358873022665885
Cu 7.390981192503258 6.716498891633979 6.45012205455185
Cu 5.2225818119091585 7.671103053785313 5.785111644803248
Cu 2.9455782649883187 8.231761414744957 5.251632218457612
Cu 8.958713868011943 4.727445266232137 6.2428027891299855
Cu 7.990252828475665 7.658082636510387 8.70107428357383
Cu 3.860303741735952 4.703954020092028 2.843830945687091
Cu 3.848396482252512 8.134191373140771 7.76461655581256
Cu 7.49207151547609 2.8048850357656274 5.3698237478135695
Cu 5.752262093392412 6.6169782841784945 8.23327011884509
Cu 6.473724313112837 4.455237167208542 6.823529355979222
Cu 7.974559832733998 5.239336818298932 8.61537034160424
Cu 2.283191559265608 6.051509498334317 4.232318047202851
Cu 5.08430635679996 5.309533422898995 4.978504966050607
Cu 8.341536581337632 2.9289758665477783 7.687369486487387
Cu 5.921260324727032 3.4208321852801498 3.496109275904339
Cu 3.2008652786322687 6.121269205766468 6.520250539965039
Cu 5.038238620609629 2.680373104964137 5.657335684111532
Cu 3.553005952905506 5.899482883209166 8.924010047792892
Cu 4.093638325013325 4.033109047881893 7.441234176860879
Cu 1.655442213882602 3.837212348609556 3.243399670580505
Cu 5.587562276879573 4.466493291517451 9.305890129692992
Cu 2.9331229467004682 3.953870744999106 5.294258880539737
Cu 5.955319743502055 2.3984104694052046 7.9575599376549775
Cu 7.44750813868832 3.1303085414416523 9.879258549195274
Cu 3.6899433015660525 2.388176436055764 3.578845876902667
