33
Energy = -95.51813101 eV
Cu 4.320642703642524 5.182791906060327 3.007665900123246
Cu 1.9743660304513206 5.678633775638256 2.6713786431765816
Cu 3.64270633643977 7.37314446107394 2.1244146372756094
Cu 6.7157467725669955 4.708621555670574 3.3922755352598113
Cu 6.0300947931120135 6.899828442303704 2.382089035908571
Cu 9.08676445532483 4.246004595699547 3.885811987631174
Cu 8.380885457102199 6.3564634886301254 2.7757085935582557
Cu 5.032300859942273 3.974181630020945 5.076526173615851
Cu 2.6574841651873737 4.538200716177034 4.717282594950077
Cu 7.428921532155026 3.498853527892453 5.536041255116996
Cu 3.1317364624802386 6.950615991485328 4.447783896729651
Cu 5.589281860517589 6.457283138741352 4.821087125472976
Cu 4.902244734001351 8.659827853255342 3.8194676188104064
Cu 8.110742707196671 5.985715400759161 5.219516106830779
Cu 7.319999760033628 8.139557182707282 4.094668454183341
Cu 3.3611462310005153 3.356369609325356 6.788238479511761
Cu 9.570363724949843 4.32092032782473 6.337095539720809
Cu 7.909267064467516 3.709826301689926 8.005349416175147
Cu 6.988857504724576 7.691500146786051 6.5674201154074225
Cu 6.252916726701095 9.801158938798272 5.554110841146135
Cu 5.734569833442448 2.7908930164323853 7.178572865284735
Cu 6.272689534941493 5.270029611800409 6.918019245436418
Cu 4.521723718298695 4.573489760257616 8.601934262389682
Cu 4.40341273457902 8.196463582232933 6.190686281260865
Cu 3.7907981172691216 5.788006797256521 6.548144216764185
Cu 4.04650216879265 2.154625423686086 8.79089800097812
Cu 7.38037126770666 7.859371114343442 8.981764844031183
Cu 8.048891482335655 9.68713678226251 7.351165027232816
Cu 8.536316351606763 6.0815037978654995 7.738419894260731
Cu 6.744175088227144 5.493771348552169 9.379583131873018
Cu 6.156871301037472 3.0937990661057357 9.579045380357178
Cu 5.729169930364368 9.318148419247347 7.903560569692134
Cu 5.095159482633485 6.987970190083174 8.314819811874454
