39
Energy = -114.18059355 eV
Cu 4.933030774373873 5.763490274842717 0.26482671994325735
Cu 0.4821758970390666 3.0578026995899212 0.9801551779728384
Cu 5.313653940418647 3.3624239448335085 1.1417441546634197
Cu 2.872296255118421 4.383472042973823 1.1217094062883497
Cu 2.7590234605492 1.8176764499585383 1.4769058136942301
Cu 7.074453089115498 5.160580170625829 1.8440511291927897
Cu 7.862265634906812 2.646853023953941 2.4160692650033626
Cu 3.1208704270551717 6.982926214803504 1.8269662780203046
Cu 5.688209844287579 7.438373575900225 2.1442569840563683
Cu 0.5659666933013378 5.297764204570659 2.222050251416689
Cu 5.599903325260823 1.4366939289078826 2.9290152724451985
Cu 0.5368014364925492 1.1307198764794018 2.709604308199487
Cu 4.777540089175993 5.366796028771707 2.5184087915576883
Cu 3.885667682446813 3.1291713707248094 3.1135184216530734
Cu 1.5049707685789908 3.2071514537345704 3.052907884423808
Cu 8.364322690641638 3.275980007784218 3.1471224186736952
Cu 6.182459048492125 3.681139878675871 3.5537582527293132
Cu 2.5738814840881794 5.3120068527052915 3.5062171705367713
Cu 6.528403180608153 6.145188855513227 4.2436765566875545
Cu 2.6823425842610877 1.2182987514295376 4.112628267486266
Cu 8.360666000764562 4.239325237510478 4.431367099190753
Cu 5.3557979352950085 6.292305357697313 6.539270915671694
Cu 1.36152189509318 7.1832777042627445 3.9450371223616534
Cu 0.5375897837868617 2.2166215334606174 5.126673132332769
Cu 4.779482122636781 2.16041909247539 5.265332376176052
Cu 6.384889515263974 4.0488650635456525 5.924722362179142
Cu 7.927908032343781 5.728209880104618 6.451760932403883
Cu 7.249312726706303 1.9466844391952407 4.908647379300548
Cu 0.49325782553759934 4.80263122789661 4.8095700436937765
Cu 2.5974653913902754 3.4786067876096816 5.214828823068631
Cu 4.4876037332226915 4.8678169467470696 4.882389256716214
Cu 4.124443026682116 7.1885739905556525 4.235095956707675
Cu 2.746835295929338 1.6910472698645596 6.679820400123501
Cu 8.36432269064164 3.318239641993202 6.902287671372668
Cu 6.443176508050811 4.576132038495685 8.184485076098962
Cu 6.074408782498913 2.1913277869662315 7.361679249957951
Cu 2.5433165695515467 5.9066828635440665 5.9530711620702155
Cu 1.3042989210084055 3.8562279149512686 7.079351979473336
Cu 4.124657925470654 3.876568400011645 7.163089320122476
