33
Energy = -94.46203677 eV
Cu 5.386286970638823 4.123219573905787 10.873331394657603
Cu 9.164774895935832 9.28385705128412 10.02086278499248
Cu 8.6559647429716 7.191313949777743 4.728284301099127
Cu 7.277390699614446 7.960305874145951 10.730417828118155
Cu 6.8952023198300205 9.46114175275551 8.82746589323658
Cu 5.464899099944789 8.567345895061342 7.028604554824542
Cu 7.369526972285059 5.39030053598419 10.24162348935654
Cu 5.753884747232445 4.558701326785751 8.475722426846822
Cu 6.494769250584485 8.454087000260028 4.878800438438657
Cu 6.997773023385384 10.406025921103163 6.441145902027475
Cu 4.000439285449536 5.734476663770188 9.713106254760044
Cu 11.02158064811771 10.578047915858793 6.813930591794316
Cu 6.8056988794845985 3.5025604636741505 6.5285013728013235
Cu 6.047882573545526 4.473052020067749 4.423249792636134
Cu 8.920966292299942 10.506431661979523 7.97206647424487
Cu 8.50129578966103 4.851007801778358 5.382004937149569
Cu 4.5665495768269 4.536033644976504 6.289023710135879
Cu 8.157290664758127 5.025129906586663 7.886887219270679
Cu 9.808518854371975 6.459104204572457 6.798537178775961
Cu 6.6272361489160305 6.119742454793404 6.219096977281193
Cu 9.04608677479141 11.672647786167008 5.854497434332209
Cu 4.798682309290794 8.095949702784461 9.515850730779444
Cu 9.010075207500332 6.973344421675087 9.16293741705018
Cu 10.49005180391727 8.541500386105335 5.629198367395022
Cu 8.086449483322998 8.220522856925506 6.920997166995964
Cu 4.685663070104229 6.747889229043863 5.05608280027839
Cu 10.450923529798416 8.551438014925088 8.06459243721389
Cu 10.730265967430336 10.661492298338896 4.390155470699077
Cu 8.55010101100965 9.659845982847798 4.644722539838143
Cu 4.2931146616530516 6.564675787222834 7.508255714913787
Cu 6.729728455058692 6.499376211505711 3.4737096519936768
Cu 5.516223243449033 6.5126504567312224 11.373822767465189
Cu 6.622457367031774 6.955822804561662 8.538974785771046
