34
Energy = -96.87471963 eV
Cu 8.05136207578655 4.525879358139895 9.696669893003609
Cu 6.484086880208539 8.41867083154845 3.270299536650052
Cu 5.054075513111557 2.735854928673307 7.53891580249387
Cu 9.939821820274059 5.976628413484638 5.101467855537064
Cu 4.87494429951217 6.863023541050671 7.883969818999897
Cu 7.170964107973659 6.114020813882458 7.997524766794857
Cu 3.508145991447047 4.8010155676944795 3.6890951390464464
Cu 8.753016775487874 7.329037550591942 6.676497900347921
Cu 6.265368602014877 7.086212335799521 5.447809006820092
Cu 5.254335145600913 6.387118256024648 3.0933374749392724
Cu 1.8261796309874172 3.2857070731110376 4.707541761892318
Cu 6.3249037684137415 2.612605413633408 9.650354701889986
Cu 6.2786529414842285 9.692994755402117 5.2934597003358785
Cu 4.422993872300565 8.743952359575626 6.4610377391343095
Cu 3.868766967401824 6.91307164462453 4.998303167749503
Cu 2.6098441598063205 7.156597718372528 7.130830539752988
Cu 9.005427560785897 8.098907495092597 4.402218703948
Cu 8.086399438983078 10.217945142999382 3.7210302608134977
Cu 3.314718210724176 5.019416505953242 8.288363600822372
Cu 9.3565937824331 5.098379619002052 7.559291321984252
Cu 5.433914423215909 4.897856663011057 6.503515921237785
Cu 7.743726151847047 6.192173314493737 3.467790434145462
Cu 8.502531884371146 9.701074930757867 6.172782898192605
Cu 7.805428454906459 5.105501931307753 5.662353078392803
Cu 5.531670452811323 4.751441134422789 9.133368158740945
Cu 5.998734691900098 4.433165058166273 4.1850112005765325
Cu 3.7902245542409942 2.9256254935492234 9.512472185090235
Cu 6.725684693725695 8.508329611596274 7.413190404843213
Cu 2.629002358501783 5.0750338195642675 5.963809436993359
Cu 8.543087548918407 8.42661449234066 2.0768772529412636
Cu 7.320679917520407 3.643603377941919 7.610299656151494
Cu 2.639753247351956 2.9442369355384646 7.190731771939635
Cu 4.182253075060279 3.1363553903357673 5.291088145027289
Cu 6.7723363486645125 6.940649830640215 1.3194530642393794
