31
Energy = -88.83530827 eV
Cu 8.424255174885698 4.6478454842792605 9.902969829234193
Cu 6.018194998688068 5.1414731172887445 10.063475207543622
Cu 7.584957682883165 6.683626195429225 8.97013201007415
Cu 6.8673279982473385 3.874146771860887 8.179750624492822
Cu 8.908207646711254 5.125801286343541 7.512016964022616
Cu 8.433329535994465 7.400961932948321 6.672048962998925
Cu 4.488688671160887 4.683117201577319 8.228219343840335
Cu 4.9543072601004905 7.017641399844298 8.812114811812004
Cu 6.366260355455381 6.049392245834692 6.975334998345993
Cu 5.253860773616004 3.280007559110287 6.384184958046227
Cu 6.520720817484022 8.531256641931957 7.7115125612208075
Cu 7.503640481437531 4.073985861349697 5.788097610737928
Cu 2.727490555959803 4.1483491309865865 6.607582943294648
Cu 2.926851399284418 6.443610003986961 7.523285619845157
Cu 9.349148106614324 5.664741859275406 5.101644495625024
Cu 8.906235030789057 8.089174195585741 4.40718979285924
Cu 6.671022109084977 8.59975453361479 5.301425895922034
Cu 7.046190504136348 6.248609779892195 4.584965573162983
Cu 8.117225960112336 4.285825039772365 3.40289916783579
Cu 4.616695131584019 5.406085143311142 5.462712363018182
Cu 1.7642605335901635 4.7074250905826585 4.403897689712109
Cu 5.823792556325285 3.881669269470838 3.9556740492403026
Cu 4.608233240046777 7.793510151531514 6.386787184691962
Cu 0.9109812880003364 5.784128812656113 6.375911280287836
Cu 8.696310537313376 6.4590185690315005 2.6637006848628406
Cu 3.6063205677302643 3.1810185524567562 4.545872073723932
Cu 6.959973678893643 8.10747304137168 2.8760637642779585
Cu 6.199419475384529 5.779953535527824 2.3759358410739537
Cu 4.886039922596428 7.381248394812679 3.9527569124492627
Cu 2.6875518601870896 6.834285279952713 5.07069136730182
Cu 3.8415099039193716 5.2714218856183255 3.145396256055977
