33
Energy = -93.51132488 eV
Cu 5.844262904404914 3.2462818907384654 4.645670117829787
Cu 3.749951262393597 3.4766862866383965 8.835604571335487
Cu 6.5374614031284315 5.881930240838767 6.823747048130477
Cu 9.3473910199428 6.105164313699086 9.485824283265742
Cu 9.234044227120872 8.39892423808034 8.65091797150141
Cu 7.679154010197776 9.523625067792922 5.0615796546294956
Cu 5.70675230488021 9.985564795530566 6.485842108664991
Cu 5.0209431452601585 7.93839138290409 7.66512419473279
Cu 4.837555648314352 4.581744394828179 2.6672759338028746
Cu 3.99807105258537 6.823531384641998 3.743642285806393
Cu 4.513654824916584 5.733542038477233 8.481034047866444
Cu 2.4614738730651236 5.276302523730859 2.7649722287008736
Cu 9.069256580791757 6.3903784597633155 7.0685569758267315
Cu 4.8234689244512685 3.865157429024715 6.73133001952101
Cu 8.418645475025158 4.342020291431551 8.010901586795992
Cu 9.619738935739665 8.654507548915571 6.259036863327936
Cu 1.999130285766339 6.297400283124188 5.042164956014489
Cu 8.109963884538876 4.5364882418163415 5.461674203389334
Cu 7.351330378770367 8.220525359602098 7.177340582913519
Cu 9.573359876956928 8.642325189056525 3.881879335370007
Cu 7.014373378752014 6.503141609884552 9.029345690454027
Cu 10.360332399545879 7.892257137020202 10.654711906365522
Cu 6.993417931838244 2.779447594179071 6.792291708387954
Cu 7.330015680431418 4.2348105976282495 3.0415192417089436
Cu 2.559860794235453 4.7661767987444446 7.03090502421617
Cu 3.511938254356384 8.524426742779701 5.6566203300309175
Cu 6.182467212178786 4.038584160000717 8.783362358154903
Cu 4.167015186429194 6.2747268241491545 6.126812906006634
Cu 5.7813815398185575 7.930039324518936 5.178910313942073
Cu 8.200364870537573 10.428855963854623 7.27608278749747
Cu 6.071927473432623 5.644982445418999 4.444560299448735
Cu 8.100344107084052 7.013394392601052 4.917582455948457
Cu 3.5431396943475746 4.36119227423957 4.702394632097551
