32
Energy = -91.88362604 eV
Cu 3.1196482545181077 3.044386734696558 9.514844877331246
Cu 6.366878299635793 4.023253914002069 4.240824904631991
Cu 6.91962233341406 5.99681997866788 2.8273858188566323
Cu 5.742043825625899 2.6551847221541283 6.192837992014613
Cu 4.660213144431664 5.052542783569911 2.7357760871162466
Cu 5.503937143166443 9.629621000709053 3.5393922180902844
Cu 3.451024497860684 3.2431578407008548 7.079958943910371
Cu 5.241549065740806 6.408284639771621 4.837075061788497
Cu 5.67909066630245 5.02489239236498 6.743900431732969
Cu 8.05760127950268 3.66056316562119 6.051099567960064
Cu 7.281826183875851 8.331758222814406 2.406276607502698
Cu 8.299840266478554 5.663747465745184 7.646784057164612
Cu 4.348229119069913 7.242358980509662 7.644576414198208
Cu 3.073382948986255 5.583686075658389 6.421413585088464
Cu 7.5698514592103505 5.912526117374035 5.309977066005288
Cu 9.03049018215148 7.017555063158066 3.7637343178097384
Cu 8.755497847057537 4.543708324989506 3.657913960521983
Cu 3.2280364919524045 8.8061175913552 3.874948080421708
Cu 6.21565292331253 5.964606974181422 8.96426721854628
Cu 2.5653119795493415 7.9100923528185465 6.027375363645787
Cu 7.0217603147487635 3.6593174923851404 8.297717119416236
Cu 4.8918442592690745 7.478640102919812 2.622090493800992
Cu 2.990123577964725 6.369982832971871 4.074130837103651
Cu 6.65550538924468 7.444574221801088 7.01408887839635
Cu 9.053819331256305 7.63353929709492 6.202860965733956
Cu 4.863212701298946 8.725944255977998 5.744544950318034
Cu 5.3838883015486285 3.9355675298917236 10.151858650303712
Cu 5.104595313584298 2.195384027569615 8.465559739442432
Cu 7.113541282290803 8.321530538585693 4.7810563407408555
Cu 4.029966296808355 4.047235549911411 4.859388325884542
Cu 9.886088427395034 5.373133228489681 5.639622648423326
Cu 3.916121460950318 5.120481149741259 8.686913044301864
