35
Energy = -101.46849309 eV
Cu 5.484841869060052 3.3320443156802693 6.057358514081108
Cu 3.8972415725619096 5.116756203326608 4.765811641551644
Cu 5.193742737074918 6.0400148359812125 9.242788513442111
Cu 3.0813502488840285 3.1039399893569706 5.721310131385344
Cu 1.5885946458169404 6.27946333760682 4.761003748530225
Cu 2.7371139088651977 6.144398251163112 8.805806824679172
Cu 1.9422025380511403 5.003545261116036 6.736596415454829
Cu 6.3759103150004 4.65974796730949 4.196032924293746
Cu 1.8409734701281089 7.411474155068905 6.912672540150594
Cu 3.1759235876533713 6.624394130061535 2.979216903677872
Cu 8.870209095121524 3.9879042989219466 8.264028939295267
Cu 4.893225468521534 5.026479325761216 2.3258661436385575
Cu 3.571867447697376 7.626914278389823 5.201060916422552
Cu 6.591721185299893 7.60837770076493 8.053553455690032
Cu 5.4674065055903025 6.966216020885299 3.8309611215782913
Cu 4.234505747240611 7.530535055268983 7.526940510449416
Cu 4.142178836980067 4.649104479261586 7.520718993715267
Cu 7.3059146989770385 10.33760962582075 5.1656997161703195
Cu 4.684603628225343 2.9403252864662153 3.7474181440820082
Cu 7.159841139814398 9.883392469384992 7.538436857078891
Cu 5.809663853969296 8.537540133744415 5.821821999417037
Cu 7.302273632878185 6.016292544468019 2.4406139200446773
Cu 7.44594032301079 8.31537452034851 3.7818723677031683
Cu 6.700487038525108 3.3802193495173096 2.1837931041096192
Cu 5.8842668508445755 6.0513091622314645 6.184710246380459
Cu 7.763081988413189 6.020025081446124 9.482572341644707
Cu 8.289349688158866 8.304985502109265 6.124369324133577
Cu 6.564710494664762 4.4342780870039915 7.990234189457527
Cu 7.356052971626649 2.1878435586750657 7.088827854859526
Cu 8.192992361887729 6.2560585626675715 4.760021425214546
Cu 8.831984375972217 8.177419825850686 8.540820883840059
Cu 7.0947788412666855 2.3276586998896054 4.462095129161387
Cu 8.631914664315953 4.123623792187434 3.5182467596821305
Cu 8.532820781593164 6.150492787378131 7.196871208335717
Cu 8.070239880427245 4.102208168720743 5.92963955392838
