31
Energy = -88.88284103 eV
Cu 2.96905573375284 7.02847271356077 2.482059667511401
Cu 2.6342987387268066 5.764772884202574 4.5410704252471445
Cu 4.187640870401787 5.023194592277908 2.718016987249165
Cu 2.796384547378864 8.221684505398388 4.673655207650281
Cu 5.730681346695153 7.012457899978379 2.001841122635459
Cu 4.200060367602837 9.03763209202247 2.7667541897822985
Cu 4.7631383565603365 4.737164399238202 5.111768928557354
Cu 3.859909300360065 6.777506900679344 6.426327470933627
Cu 4.911063026076356 7.077855894016095 4.178758732377345
Cu 3.7976090194171475 4.511022978321853 7.443044924614642
Cu 6.591666109683131 2.991188152493428 4.782018281520927
Cu 4.436990385746445 2.498485159797948 5.979526376036646
Cu 6.488174539685326 4.998761990985555 3.3431304900618994
Cu 4.889195211526162 9.41019245913663 5.124802033675328
Cu 6.532861955231096 9.046209000445412 3.3287770066751285
Cu 6.566061059131797 1.5930952766275746 6.8586589474838915
Cu 4.861562175971453 2.3635362895099323 8.333007641247887
Cu 6.428226260447642 6.419060802391572 6.063098105616277
Cu 5.254392900977951 4.29672312148027 9.598584746219947
Cu 5.36204582289185 6.280449565272359 8.309840431180096
Cu 7.612915338330205 7.023976514990794 3.893886878825231
Cu 5.388390209513442 8.496500017541988 7.274700018329992
Cu 6.193484851317087 4.083270938285186 7.003173546676852
Cu 7.227819662168055 8.762974675156633 5.677978931280168
Cu 8.134431380861278 4.876619218249871 5.145947222235223
Cu 8.474651719595057 2.983779489091647 6.577170654441327
Cu 7.3581967493667255 3.1810294524485645 8.843316500825123
Cu 7.287328308893779 5.614754490743072 9.641389294578453
Cu 8.909099612944155 7.033102429855571 6.035138636964223
Cu 7.544922818732857 7.476685875500324 8.015253354059947
Cu 8.449175824921962 5.190579208606577 7.586388408592598
