37
Energy = -107.81309071 eV
Cu 3.885216176423356 4.535763190413536 0.014931364299180941
Cu 3.592874484530694 1.8839669542002746 0.1569924070026729
Cu 1.6674110493649044 3.5995118521119074 0.8102682932118185
Cu 6.205548991072133 2.975667626791039 1.3095637434845468
Cu 2.769104521580322 5.656297446979233 1.960853314046694
Cu 5.30856439924581 5.30847133739292 2.0895911278208485
Cu 3.816544721886911 3.262319240127186 1.958519044879763
Cu 0.32181342956588893 5.231785296775012 2.3601844189608627
Cu 2.122033325759228 1.4441661775119714 2.185308858736883
Cu 7.904403683331215 2.701593201861224 2.382649930923988
Cu 4.791559883223151 1.0743620819033461 2.4644991926924695
Cu 6.785082786713012 6.967764935091582 3.3970136104099287
Cu 7.523768526422546 4.420767978613538 3.0237496873097225
Cu 1.7306174938689942 3.620795986511643 3.2871304033225104
Cu 4.170895320293853 6.948162499680244 3.7120751483630148
Cu 7.513299479239149 1.8030975283908621 3.383756904905208
Cu 5.577439317771742 3.0684836598385914 3.6044065519532036
Cu 3.722858777342784 4.535846219115573 3.9433321460091677
Cu 5.632269704697901 1.2034117478041473 5.075012560932106
Cu 5.862773260078133 5.245973815514447 4.625350235216734
Cu 7.304115555151179 3.4703447916149823 5.42260614108523
Cu 1.7662458830215846 6.021202171436864 4.3897751510803875
Cu 0.8765698896569427 1.8048732516066168 4.508190223094598
Cu 7.904403683331217 1.1799618575715942 5.78917320761123
Cu 7.823860683774625 6.010853771903166 5.5519739164467055
Cu 4.607128380291244 3.2826666796136723 5.98212731024969
Cu 7.998760577062316 4.208072252921634 4.643387013941098
Cu 5.632016740899858 7.373169171578895 5.802395967840757
Cu 1.772661561385755 6.002011399375473 6.99040123352548
Cu 2.121364138792412 3.7445140279601654 5.805350746418764
Cu 3.353619313045113 1.9902771543179 4.303401327629248
Cu 3.0286503256092305 7.869155699052378 5.767467624839274
Cu 3.835749323933376 5.685811692697483 5.943365594230358
Cu 6.002664391735464 5.018388005304735 7.102312208351766
Cu 6.340021060913312 2.3676401279365393 7.335628135431269
Cu 4.156952365239108 6.924331406415213 7.859499623756248
Cu 3.621791153423955 4.420071051045943 7.919308918967401
