36
Energy = -104.18479345 eV
Cu 8.04830568415085 7.698913930737387 6.607047830548282
Cu 8.27559137226635 6.843586754197749 9.416115266348845
Cu 4.580192862920364 7.107489925741874 6.9825085473398545
Cu 7.951520845329518 10.401086718077142 6.731632883566019
Cu 5.131752641163065 3.581758020260177 8.40659887466298
Cu 9.157881853605897 4.528717259257965 3.8775600148362757
Cu 10.107562412590767 5.601377401370745 5.919591951761858
Cu 7.025987155351846 4.565418281265558 9.714609919261912
Cu 8.972221230635267 5.000354267736491 8.006956662471877
Cu 6.511474508969629 10.562020280364187 8.70004901131382
Cu 4.9645844482745565 9.218534624626498 10.20239538277365
Cu 3.4678662577438777 5.200135021399141 7.917221054296388
Cu 3.763946091467822 6.365055747944632 4.931896181297539
Cu 10.802147670046201 7.842246709559482 5.397513850395809
Cu 7.191474190376884 3.47098745606715 7.334654448616693
Cu 4.4724506566363615 8.824556923761248 5.352896273174804
Cu 3.994059827630832 7.201491696112289 9.28826836430706
Cu 8.70093999381394 9.1522622991072 8.670218021509674
Cu 7.312217008217571 8.899899048518872 10.56393709830474
Cu 5.181486832306323 4.715318908233544 6.153843167330676
Cu 10.286838279707522 9.593569223236639 6.97121557316404
Cu 5.599331100981244 10.775211784627395 6.361164367209005
Cu 4.50217925768469 5.009472981240038 10.196371063973572
Cu 6.083932335643099 6.77708948490349 10.535929566291898
Cu 4.290669147553372 9.394576030410011 7.839525562655671
Cu 6.814890046109725 9.178546321721287 4.953786270668968
Cu 7.65683034988633 5.118413655510244 5.610023695979164
Cu 10.78840502417483 6.205956226674672 3.632931569753129
Cu 6.324496363386294 8.178136874059138 8.436889860957681
Cu 9.145402779819287 9.5009717331895 4.8050635395887
Cu 6.602258288776115 5.878480033194389 7.764044885861763
Cu 10.157553984660778 7.24298150975457 7.780118423184526
Cu 6.1360102702838715 6.866585910193128 5.112841630959374
Cu 10.332976968440772 8.47181431661281 3.0270812250210666
Cu 9.267914246163022 3.3609549058794257 6.095137321303409
Cu 8.531438232466863 7.092582452130963 4.209736865056103
