36
Energy = -104.6191825 eV
Cu 3.709838439247017 1.4886005364006323 7.148317260366682
Cu 3.0234231509409217 3.692974482923827 6.334174246433762
Cu 3.356919768953518 3.2436424641695734 8.757390165735691
Cu 5.034482786488835 2.554605161774924 5.4113057813116
Cu 5.593098418889945 2.879734529118825 7.779555679641762
Cu 4.193254482738684 4.480176986033929 4.2165242022909455
Cu 3.0122258380555134 6.07423677135005 5.647927010517429
Cu 3.0091623978754374 5.518968498226557 8.058631271888041
Cu 6.383521014282537 3.4292824796698573 3.5703603868284457
Cu 5.074958646934571 5.044867476790319 6.668487085412279
Cu 5.180106992570013 4.816619498291417 9.266352653668104
Cu 7.14780277626697 3.7526320479838597 5.930708330529164
Cu 5.521068099469537 5.264394466833473 2.237632080588729
Cu 7.6981539323368615 4.269012844379249 1.6832162851530468
Cu 4.219030879500401 6.866034748891637 3.56544615033818
Cu 2.88707806922772 7.867574865019169 7.286510341840872
Cu 7.4326954011886235 4.43191768778643 8.256351059211356
Cu 2.884412191453218 8.397684400224858 4.904425479700619
Cu 8.46808561647792 4.715473118158473 4.011434817461822
Cu 6.302069805421203 5.8114850592800735 4.6334115009108725
Cu 4.424949898421388 9.242607393383253 3.253837442460049
Cu 9.23734863996947 5.946834332342226 8.717600621650329
Cu 7.638940545500019 6.523829479826049 2.5342304609612385
Cu 6.996760643371408 6.508710457207028 9.563285867631187
Cu 4.910497674431844 7.027532676135423 8.331049636001783
Cu 5.571613313689569 7.659458027399615 1.6966170960835054
Cu 9.02708374126688 5.273332074743638 6.370911999410015
Cu 7.012180742065207 6.571290452733856 6.93584919754686
Cu 5.052867859486326 7.754715311425836 5.917669901986244
Cu 8.484219237922998 7.099411739769159 4.800980857656008
Cu 6.494269940666552 8.219913279502014 3.8516720628220225
Cu 8.847037429055773 8.194310803365289 9.425526393836023
Cu 6.696704906058814 8.649137102718232 8.319671277040328
Cu 9.2772626786368 7.714071173106881 7.044896314913104
Cu 7.3125004091388615 8.952388752164147 5.980855601384749
Cu 8.639965909670469 9.942781641839105 7.747616845332156
