37
Energy = -108.02491898 eV
Cu 6.733139639345639 5.4971957228984145 1.6724673357600528
Cu 4.34727063069146 5.143162168810275 0.9263251762984122
Cu 5.27822196962343 7.529597796888525 1.1607436898737646
Cu 1.9319624742580588 1.2490872574665226 2.482670895165308
Cu 5.270777537531559 3.820111268138774 3.008573540712481
Cu 5.110646674586773 2.651205568459987 5.086143696021379
Cu 6.882639871968155 7.5788908271107 3.120102060895964
Cu 0.37971099088009835 1.683021880814039 4.392569963422499
Cu 1.8384115692661898 5.0003521013085575 1.039507571610354
Cu 6.95473003253877 5.317429954348327 4.390259598635857
Cu 3.7222108687734683 1.2159141667203008 6.3995052115458
Cu 4.946141746617398 6.2670599929109585 3.1123579401000057
Cu 7.475423674249672 2.986034885187634 5.232986436216816
Cu 2.881201720927911 7.069176909483579 2.035593504110479
Cu 2.9670766123344854 4.844366236136952 3.0772236109010622
Cu 6.582878133536639 1.704698892694077 3.1683247970087596
Cu 3.458102423490594 2.896675619477971 1.5904128006651352
Cu 0.9242305637966962 3.468206195055345 2.725293948725898
Cu 4.533701860823366 8.558396403674607 3.3706474779939772
Cu 2.349529025347947 0.2883450811713341 4.680194699259627
Cu 4.26144447277907 1.082954964760851 3.3292577992470416
Cu 6.062975712127571 3.1187778504872474 0.9966850753508245
Cu 2.773201681612013 2.7728983369882965 4.368957462116227
Cu 4.372962495661777 4.93150729920646 5.022180062992793
Cu 0.037223952186061476 4.003849140455609 4.920944071700241
Cu 2.9976071662758996 6.974263902415929 4.617934918292927
Cu 2.0087576186853333 4.969556254412882 5.7548003543593635
Cu 7.8592967195357 3.6775458839699673 2.831659287547146
Cu 5.5045126623095335 7.130055470168253 5.333818286519785
Cu 0.6831499669375848 0.26812844897289034 6.375869259659562
Cu 3.7503861533622116 3.612319221086988 7.004095967282839
Cu 6.064826787713019 0.5644756453231228 5.293076007087454
Cu 0.9258230250777046 5.904152972193164 3.547387617455843
Cu 6.105369369330074 4.634280977925629 6.629231175597445
Cu 5.939034838929808 2.2141674614744984 7.227911684671363
Cu 3.8961765546611113 6.130225186220025 6.9526243047879905
Cu 1.5132777049325858 2.5659469578852576 6.445697613111255
