31
Energy = -89.20154245 eV
Cu 2.7584689936213755 5.651616569434618 7.538259716395296
Cu 4.047145864209108 5.536116836162612 9.554470491233577
Cu 3.0528146568067362 4.149153292784522 5.579435111090258
Cu 3.1647572271009867 5.442319326162797 3.393693447617476
Cu 4.147775058842994 3.6666674559281733 7.920073293818386
Cu 3.7646057028476196 7.87048967465476 3.728241512411432
Cu 4.582981084719466 3.2492553177727994 3.7560470314447136
Cu 4.090057798871516 7.7629875584080725 7.875969314118709
Cu 3.9610997882093937 6.449085112057593 5.635820744727893
Cu 5.490429674925466 5.886440396386911 7.659662199870639
Cu 4.759644624946624 6.9280642127803125 1.767617908338995
Cu 5.855600831076156 7.144270221312408 9.673754279919171
Cu 6.319694038310769 4.364400282799834 9.257774132831637
Cu 4.505523395940641 2.139202466965934 5.978848875227368
Cu 5.486105513649335 4.373593268542056 5.792008769482822
Cu 5.495149650301475 5.631575371650048 3.6817847829390504
Cu 5.059268653007209 8.67428542794322 5.680923688164364
Cu 4.842524360718386 4.519438178389976 1.6482794742704305
Cu 6.3142639402097975 2.6278295441344848 7.524906616211565
Cu 6.6788730722302025 8.153376710755552 7.570298262710373
Cu 7.860957158377685 6.2436221244521315 8.610737511720956
Cu 7.1409588747186 6.037274497612409 2.057491905404715
Cu 6.510293525139336 6.686865535563737 5.573443677012812
Cu 6.18749810027065 8.124108672113012 3.400831480512531
Cu 6.8822286427375685 2.6388987130847905 5.037400355087428
Cu 7.675312821622127 4.522213205246296 6.969155256150768
Cu 7.549021276230569 8.885162932968703 5.358453608066647
Cu 6.831780736638869 3.6418988240568178 2.7653273829298706
Cu 8.718397088271988 6.739861355937145 6.342933963046349
Cu 7.884957192830675 4.895086772789966 4.518998321740775
Cu 8.366249748389148 7.150095257696337 3.8615879334307928
