30
Energy = -85.58614112 eV
Cu 2.4681532084273092 4.617973406397534 4.30742424897583
Cu 3.9825161322027234 2.947000040207959 2.7629189987362657
Cu 4.196605498273416 5.28130352123603 2.5603165448704446
Cu 3.1304000501728018 2.28510951389296 4.970680141738916
Cu 3.3629896209900187 3.8756802245386823 6.8498381338483805
Cu 3.8214878847791662 6.668508523997184 4.496826359475653
Cu 5.623532551501194 8.362341960932332 4.747187128737506
Cu 4.089284366460356 7.831481427052775 6.658993804770893
Cu 4.761701692217724 4.084678335089741 4.775724751576787
Cu 6.4028317925842675 3.9107356347105124 3.060069389122722
Cu 5.561304316471235 1.8081739585327337 4.2016697971088846
Cu 6.114662709227791 6.329385973271639 3.566289295182697
Cu 2.4416049801916477 6.005526789877718 6.356032757788399
Cu 4.939045445437949 1.9754612254291395 6.558167509187088
Cu 5.5572203368565045 9.722052108095852 6.792408690233726
Cu 4.192149218392033 5.890451075636063 8.178570020358908
Cu 7.518197630824905 9.7707963090984 5.344597705089373
Cu 6.888907995434477 3.211234719135578 5.697711954295155
Cu 5.581302978400208 5.870439768964023 6.14085275246478
Cu 7.243159829204684 7.555647706016918 6.428293737660385
Cu 8.228085791856758 7.6034879340381405 4.254052336314851
Cu 7.811142980269857 5.213532992290857 4.755239627290052
Cu 5.631546017576327 3.9355347784709265 7.738266671383076
Cu 5.769826447437023 7.885915244166983 8.43643043674342
Cu 7.681384668664555 9.390723071977515 7.9354268567425645
Cu 7.767181062965649 4.997611185040217 7.223030323343035
Cu 6.529832573432433 5.761575771687842 9.147970161356511
Cu 9.410586572644606 8.641623933412212 6.347896101429701
Cu 9.479275002832381 6.30113961946136 6.1310185496230005
Cu 8.505384136833467 7.047138914871219 8.386344096862992
