30
Energy = -85.56743806 eV
Cu 3.296970570773444 9.48553400689001 7.915624198120505
Cu 7.535182653312276 4.778022971123512 8.373378449923484
Cu 8.217657680770367 9.244995362294404 4.434231841792631
Cu 7.694324207467599 2.6992175516004537 6.868162539008413
Cu 5.885302813754916 4.607978436615631 2.568682434040342
Cu 4.20959262558793 4.469293972325311 4.454002817988501
Cu 4.833968638484149 2.4353299141695035 3.2663422399948545
Cu 8.391510650280988 4.676420716774862 5.799543723244335
Cu 4.561104637040987 8.007091156844657 9.520545674498143
Cu 7.097407742146697 7.179081084159801 2.922804294676438
Cu 4.470322660532924 2.440525558371403 5.7121550540612605
Cu 8.255310183744752 4.943207949188609 3.282793588929573
Cu 9.717776264346952 3.9629508758072314 7.653315675291343
Cu 6.89107521350948 6.518329854687292 6.83884143728222
Cu 2.520794578942182 6.37112705988254 5.165954406926091
Cu 5.784718001465769 4.205041600478635 6.7090133238394065
Cu 3.3852614802143055 4.540149034759816 6.856054897516451
Cu 5.440053059882367 8.521357472570624 7.381888812586063
Cu 3.129936744281553 7.1039079693369755 7.661876402925952
Cu 9.166417500808357 6.415253700055161 7.477126522492924
Cu 7.904427394858439 8.686178776775844 6.83048105886584
Cu 4.530454853313142 6.846841438226221 3.6546897798246394
Cu 6.461715338820021 5.649379224741611 4.610156307201997
Cu 6.158284105519067 8.207513608948432 5.0377757963867245
Cu 4.678701285462359 6.379946751209095 6.022683742074208
Cu 3.6486314990033315 8.537222653739848 5.625006280162643
Cu 5.1496111235115585 5.841488295519472 8.474577252497276
Cu 6.674099323251748 3.1926806999476534 4.585101103241295
Cu 8.55196657805618 6.976668699964218 4.9802116368203135
Cu 6.987464463199216 7.417236237077249 9.016676050654256
