37
Energy = -107.4776963 eV
Cu 9.318613001831368 5.80484455499979 6.7929117557542895
Cu 8.504083391994985 8.04137035860808 7.536675135001302
Cu 8.446312597531023 4.1310524838491585 8.421349289785633
Cu 9.58629934573283 7.582447682664784 5.211303551270212
Cu 8.953898546521806 6.403978251872223 9.288757750554316
Cu 6.979555039658112 6.054523152829965 7.93951523412845
Cu 7.92188746847752 8.06289145443584 3.528629749983582
Cu 8.476638179465743 5.501938977058773 4.049165739557148
Cu 7.771943574380522 9.285788767163542 5.588351921811695
Cu 7.458969802828915 4.384237021127243 6.166021402163207
Cu 4.980920950176752 5.804334845025246 6.614352749159817
Cu 6.948814370115612 5.175544418788899 10.140355395426168
Cu 7.424424296610504 3.19096960247683 4.126872008610116
Cu 7.2248948617016575 6.868401211872275 5.627498995545504
Cu 6.032699754973359 3.746455710743641 8.102804742362846
Cu 8.238263581255865 6.457918521230351 1.786506507670396
Cu 6.827992137971126 7.773550424757925 9.536372978785911
Cu 6.7814818496218985 4.59177697855319 2.240654112391401
Cu 5.817609863502246 5.097703870679688 4.411216934306168
Cu 4.682112116238749 5.313158312209848 9.29678485631527
Cu 5.978088207851097 6.889458262149005 2.740431570342204
Cu 5.592448714715008 8.453908836927024 4.712163209139095
Cu 4.318555715560382 5.089550579622733 2.332028274388085
Cu 3.9231152115617363 6.809558609430179 4.126672160256437
Cu 5.439263053978237 3.038661218308947 5.8277637889587774
Cu 2.847738152619311 3.074658495336028 2.534175429802837
Cu 5.11149803898687 2.9582460936271318 3.380614521119965
Cu 3.746330486250452 7.8651956051828185 6.365004959313807
Cu 4.472280974341173 7.736911154610153 8.80533956414585
Cu 2.793202312718153 6.170350612003525 8.069616572921632
Cu 3.632991370621284 3.8940488687038606 7.3609982077694704
Cu 3.03688521910929 6.632338791972164 10.411378023063394
Cu 2.2388627336389555 4.880019670552882 1.0982688744318176
Cu 3.2338892993997903 3.4845935831937744 4.9136037732477975
Cu 2.1513215491803734 5.20108564658677 3.481739109952383
Cu 2.5870648568403496 5.632926725593894 5.791303994501913
Cu 6.050942352766074 8.447493625979861 7.17469013678952
