39
Energy = -114.62962877 eV
Cu 4.969717258722236 2.610763368170297 3.1788185596990846
Cu 7.079643122264729 3.489105917799514 4.026407386895256
Cu 5.8270084760150525 7.295886665030844 2.2212341879985398
Cu 5.371907026416589 4.989422431329467 2.967045512346467
Cu 8.035004571497334 8.177905124814519 2.8519205717517173
Cu 9.60924365133757 6.887967986821765 4.308444632317445
Cu 11.136190411571262 5.609467314754966 5.752255883766136
Cu 9.18473933175102 4.4747158669005405 4.831897248307165
Cu 7.586660735589505 5.856676917062937 3.4370787012000883
Cu 5.420903969961752 2.2331572757006404 5.536505718231972
Cu 3.2570826329706715 4.202867079853781 3.9062035168502343
Cu 3.5423728102863867 6.596904288797292 3.0224895823215165
Cu 4.00227478198825 8.896944942778262 2.2630878226929494
Cu 5.961525865177296 9.29324139124268 3.708516755715695
Cu 7.484780691550549 3.4167802722503486 6.417312458324585
Cu 5.435907765197759 4.690975603081486 5.507625144165436
Cu 7.7943211753275445 8.352291516021223 5.206330094696777
Cu 5.653798989720841 6.981637337962797 4.638872243872221
Cu 9.383073174964869 4.813709782397122 7.261571297490956
Cu 3.3590421871829808 6.132998074256598 5.4105398776332105
Cu 5.5711324251187415 8.989751842173904 6.135666529818708
Cu 5.335109533698718 3.4511725735208327 7.662644863196272
Cu 9.579985786552486 7.239711270514494 6.700683958666623
Cu 5.382979815643935 6.5999945046750454 7.20862690057408
Cu 3.1938721581955107 1.7986572416198745 4.579559828822088
Cu 7.118041008090531 4.993216470882506 8.292874443746081
Cu 7.541632828072518 5.96733449630575 5.993687278827638
Cu 3.6803018582038356 8.53120261726351 4.619361394066593
Cu 3.296675063617644 3.5213085648317635 6.262960854650651
Cu 5.2968550722453305 8.91343959363187 8.507220849907949
Cu 8.8089691386475 6.570877728751155 8.93031410167332
Cu 3.2149516116309047 3.3276346566576187 8.735641966618294
Cu 7.414164426103384 8.035423378274908 7.597104379605601
Cu 3.4227596782195713 8.022994019560477 7.031868153230343
Cu 3.215406887986623 5.491529164804302 7.716272447838223
Cu 6.412965171593467 6.988336786798256 9.595707452321482
Cu 3.849700856254961 7.202761685122841 9.31748220431144
Cu 4.846326734343365 6.532629582103369 11.364799064262385
Cu 4.910322689889191 5.005956039082423 9.480717505187258
