39
Energy = -114.4188269 eV
Cu 6.006382927281241 3.5003295041304963 9.106322666101835
Cu 6.61842392288334 5.89745990703271 0.6157517724749645
Cu 4.093934202572515 5.228454414935715 0.13962142999973956
Cu 3.7980661593453657 2.7409413253588015 0.9063643387661571
Cu 1.1565550486238119 4.196530775637654 1.0198803108136565
Cu 1.9934671171666496 6.620745512275062 1.589601929665448
Cu 7.795042750600048 3.642060502026769 1.762581967993141
Cu 4.632740777245159 6.7449671479820195 2.1381094744119253
Cu 5.528850207466956 4.322978048738059 1.89688431632583
Cu 0.9404379484022957 0.8552921271748537 3.8353845777141884
Cu 6.03163285339015 1.8289918063530417 1.9840163458962021
Cu 3.09545061636225 4.735939181746221 2.2754943979274143
Cu 6.928923550762781 5.9581927660037195 3.1549627928565105
Cu 3.5639562270458853 0.6501768871211177 2.817985726028206
Cu 7.878803252518611 1.5556789330538778 3.6023214495934557
Cu 8.941420675605388 2.92343734516657 2.7471143937807305
Cu 1.9582320458299605 2.5381239474831885 2.6076152466564264
Cu 4.281976093987936 2.8173371885459977 3.2894793575839563
Cu 0.8142654833001887 5.040632404429962 3.352370313288554
Cu 4.839705477920354 5.17335066866627 3.989488160496059
Cu 6.761971132575939 3.568789568372423 3.9835125061944856
Cu 2.7545866603693394 6.611610021386073 4.065674693633034
Cu 2.947765232785247 1.623661971981326 5.087758593138889
Cu 2.6856774507788406 4.104006831353175 4.591619584147773
Cu 0.6630038832148278 3.01857003197128 5.013798415066664
Cu 4.79338008402167 3.301027252939267 5.581448014647948
Cu 5.139206403871959 7.319159384230703 5.010406476863979
Cu 5.59582019664381 1.2032837739657367 4.512086434834104
Cu 6.929850804455728 2.6109053567394556 6.243651122432899
Cu 6.472400945322898 5.263199894540228 5.8176053952494025
Cu 3.912046560212956 5.494789326281599 6.127197975505303
Cu 1.4297846520814401 5.5302680673107805 6.01737430930097
Cu 4.533458094889232 1.7857318022228976 7.3127591521468895
Cu 2.5727878817707435 3.3895068075408936 6.907423436032044
Cu 2.9922363064764457 7.554856520413499 6.55950156647255
Cu 5.330249978264051 4.202154867395042 7.77830641945585
Cu 5.283379361711078 6.785707918964409 7.518311115406257
Cu 3.110479780201599 5.515882146383509 8.30253889964453
Cu 3.562294996691685 3.2208861324129523 9.106322666101834
