36
Energy = -103.60912932 eV
Cu 4.041802290886755 4.8684800027342705 3.6527650951926995
Cu 8.743987641693371 6.157011286202489 4.261778358156802
Cu 8.12723339618363 9.692782193551414 8.60221769723944
Cu 10.645695181810881 6.62750793678451 5.6562148352650965
Cu 2.4646462376523237 5.568545436571061 5.37020836566646
Cu 4.986049259768117 6.699057476910222 8.879870597223118
Cu 7.959499384525172 3.9429639848309748 3.432450977459885
Cu 8.984067644349961 8.386027524183552 6.5619005336520475
Cu 4.259957041950483 4.323573220487931 8.106974174809475
Cu 8.828603811669712 5.958023454950245 7.037958011911738
Cu 9.665877223621376 4.211250309973392 5.399924789705062
Cu 2.3348816324446924 8.02731734664217 6.113710035223608
Cu 4.682303256261496 8.095467724789057 6.732012332939501
Cu 3.6398071357846726 3.4038467771503704 5.765895702029717
Cu 8.00218105298412 9.877555446810861 4.793898668478329
Cu 5.7235770263546994 3.2793312173683957 4.385193324746239
Cu 6.7115148382131204 9.471654427634427 6.74518382601497
Cu 6.293229376502001 5.794071308216313 3.679516634721503
Cu 7.524673546577755 7.996244260544029 3.308712532880156
Cu 6.843128940193806 5.728324642948781 10.158535696490326
Cu 6.074521542982792 3.512623322603312 9.449952731213429
Cu 5.90981779388819 3.003609658958343 6.881947746625242
Cu 5.637222729428012 9.082625474523473 8.893553161621469
Cu 7.8089109251107995 2.3248557413921698 5.321793585600898
Cu 2.9996797783463984 6.273818787400168 7.581683113787332
Cu 6.7868917980450805 7.056387996017206 5.8521496506806585
Cu 3.2181232352236737 8.462048500404837 8.566113352735341
Cu 7.336497084594492 4.613432853742181 5.64328837236412
Cu 6.614551417389622 3.958408137816327 11.71659689620654
Cu 9.791352056627407 8.373083502459584 4.219605924027098
Cu 7.392423568930791 7.453859994374758 8.38267531034078
Cu 5.697706121195276 8.954742170653681 4.592893135612535
Cu 6.631050059881491 5.207637893724522 7.837343682874847
Cu 4.9198327368487815 5.412450553746508 5.99859726660893
Cu 4.049353410921436 7.186688752123038 4.509099094034235
Cu 5.26639678524159 7.6117376448587315 2.5048317499447545
