32
Energy = -92.68099186 eV
Cu 2.416516010111631 5.162995064941543 6.8007437415061
Cu 4.612610187717994 2.727501631752924 4.144924659610366
Cu 2.505904230142981 4.149787471596575 4.481846390321134
Cu 3.0103993934736284 2.839129838096806 6.420747280582028
Cu 2.314239610789725 7.578718882704608 7.048485310741324
Cu 2.7928025012252555 6.545788407955401 4.788692536048022
Cu 3.396982543807331 6.374362532842079 8.814034890547912
Cu 6.940761182136053 3.145121883184188 5.225110654737371
Cu 4.758687639412072 4.468844397610306 5.724234965693158
Cu 4.359236588812565 5.121988360314559 3.313247162045266
Cu 5.294230955942386 2.282138449756347 6.774934242714194
Cu 5.784839658993495 6.205085339121466 8.707230322395814
Cu 3.709966053332419 8.824017377451296 5.584335072568151
Cu 4.584721748529322 6.697079970724042 6.531399423317472
Cu 4.245415721593198 4.199159958998961 8.155018012737777
Cu 4.723432417096925 8.442132261608558 8.115974728411286
Cu 6.591834621034178 4.191488236042785 7.464669341632889
Cu 7.138171275843283 6.4931567030957025 6.521636800811446
Cu 6.096626924623866 8.717168219936164 5.937432416687213
Cu 4.982422966554037 7.40755321009793 4.110390931421175
Cu 6.682395253155686 5.520243277268647 4.400543119836606
Cu 6.049377734512312 6.429393341755748 2.1775927035131124
Cu 8.791664551198792 4.056598089941769 4.000516651223485
Cu 8.134071019781258 5.6224218710904585 8.627490268790792
Cu 6.536864203688644 3.7947993971328318 2.800484976590369
Cu 7.316094337612096 8.217293442580262 8.120702393467289
Cu 8.750058780112997 4.57772675998586 6.373542917588727
Cu 8.490772888928603 8.607002318652404 5.868761972950405
Cu 7.367635222828923 7.865908797888452 3.8557584479197375
Cu 8.338766998575492 5.920990827287902 2.566606378478418
Cu 9.520194478278121 6.868539709285831 7.152543838199733
Cu 9.165952867946784 6.428376667176537 4.79180379201263
