32
Energy = -91.83854837 eV
Cu 7.768459853156668 8.524782049615409 5.7708218706248635
Cu 8.150667502082241 6.214574728089013 6.753412022189439
Cu 4.308663398944132 7.955812716969155 2.559508080286087
Cu 7.940306431239702 5.963611893257607 9.189582934060999
Cu 8.099504916643594 8.50098003377402 3.3223581806850566
Cu 7.660628893296945 8.180116440048709 8.26867266992564
Cu 8.330770590770586 6.300729865974368 4.320101249291676
Cu 6.351920866668019 8.964447288450456 1.6815211511464982
Cu 6.069008894514283 6.764602475060401 5.232775118007999
Cu 8.428068458309658 1.9139996504905974 6.54653689352741
Cu 5.810995597702289 6.712089285832626 7.687785559042514
Cu 6.446619102768802 6.785174679806152 2.722094917322503
Cu 5.872085577092291 9.042767093188758 4.066852770178203
Cu 6.52031875991578 4.609091506735941 3.8987347886039987
Cu 3.7822764813877696 7.9083157846227765 4.965283331549978
Cu 8.457332848928559 4.092786981726187 5.390511044641152
Cu 6.572160000776525 2.4626676167319337 5.125470860479787
Cu 8.227830501412223 3.9520404958865267 7.88532747327611
Cu 5.413563281895935 8.947924369582449 6.430774228433958
Cu 4.569498820890967 1.6233781735188308 6.230246135551107
Cu 6.228208513160628 4.588455718260384 6.437813929546853
Cu 7.03789117973112 10.312777363923514 7.424788649603787
Cu 4.334159576541275 5.797584286272737 3.718815543839018
Cu 5.380105920172685 8.935246967563586 8.836812339122236
Cu 6.334177266967331 2.3990428436123987 7.678219864272655
Cu 4.415875487772768 3.691323994299033 4.957855142735221
Cu 3.932598659511862 5.775987674635759 6.229445000228702
Cu 4.1736299790011895 3.6621907767642923 7.510840156891417
Cu 3.541993985783812 7.853967736836888 7.487661329859333
Cu 5.814593557050325 6.828757766583185 10.060890865838257
Cu 3.8786679632374916 5.762360662818983 8.793112219337118
Cu 6.006500365126395 4.513166040937795 8.998780509530086
