30
Energy = -85.27960613 eV
Cu 10.223367529103372 5.57474524547866 4.402534686993134
Cu 9.648511601439811 7.113093629838518 6.287342404485524
Cu 10.13671656477767 4.754490093686101 6.823701264137809
Cu 8.212828967064208 5.316388469757827 2.9646873210639217
Cu 8.418300384865905 7.405769438055631 4.22535531828559
Cu 8.190421450078025 5.195139784031088 5.567358030212012
Cu 8.290851889803065 6.087820223657154 8.01443708010882
Cu 7.1428290857849115 7.476616064080429 6.364854629794563
Cu 7.952197343564297 3.745095869454701 7.513689534257774
Cu 6.3355954453624905 6.104081001950668 4.381433466503742
Cu 6.804491765233984 7.284634310987624 2.3537923002544057
Cu 5.992551888116414 8.49734004973074 4.479136561947811
Cu 5.850508177991104 4.916698127077072 6.5155225970310156
Cu 6.2965510686985136 7.367811928153865 8.664241785790807
Cu 6.360333652191033 4.954896608040824 9.02338527091995
Cu 5.187883891603982 8.794195227933304 6.958099205757649
Cu 4.585176686966598 6.3635420362285675 10.016563555949713
Cu 5.786253503259446 5.011711386917203 2.2182718399468593
Cu 5.7276965391992265 2.869810227200804 7.843670893476199
Cu 4.466852736821294 8.756122498315055 9.355151093751655
Cu 4.0342707874436385 4.627840613251145 8.324223767652441
Cu 4.448647916147046 6.899084548004387 3.014739964963048
Cu 4.426406804099053 4.695428097014807 4.414263267213663
Cu 3.7096744893086835 7.013729901577572 7.87935750415495
Cu 4.265366653043948 7.098993116180001 5.488059146217782
Cu 3.915577538652257 3.1998926540377615 6.276105638323934
Cu 3.3310811112691034 4.664970444333038 2.304839143784591
Cu 2.7895874346148046 5.33838935015471 6.337194616280481
Cu 2.4080012667692237 6.129826030977014 4.082475131632896
Cu 2.2902944925364324 3.691158264295055 4.438511553339063
