36
Energy = -104.73266533 eV
Cu 5.182816819642412 4.673211663476085 0.4673201798754201
Cu 4.236024571353123 7.02530616529001 0.3680075330782656
Cu 3.4039797289249814 2.7291559818064184 1.1280930690013
Cu 2.9564934205515114 5.363668698153637 1.4641100403417298
Cu 5.867749049297706 2.0807212057996867 1.7231001744344856
Cu 4.158688723958736 0.1974800113609085 1.8412931111583806
Cu 1.179738766897602 3.8340326166219776 1.0272810743237384
Cu 7.133569340001906 4.136487485564206 2.3925432254157752
Cu 5.437740018162386 6.398783149454502 2.385507840048914
Cu 4.818779484514883 4.023998128835493 2.693016195428639
Cu 1.9342852222761124 1.1579266901049152 2.6246704377901335
Cu 3.29631708380736 7.653633845171885 2.6454164952107444
Cu 7.870122963920365 1.7221254273990612 3.1524432115474963
Cu 2.1732520593691538 3.5786280320569706 3.170287931589829
Cu 4.035705610890911 1.8654354046900914 3.409247155684261
Cu 1.220721419158771 5.903686351411283 3.3654942413592135
Cu 5.8854950218864985 0.3748008214841466 3.803030958003844
Cu 3.540514058207665 5.664884747700155 3.8581197466416635
Cu 4.030611795558086 3.5817319012071605 4.965821900312173
Cu 6.063878570718667 5.303134156016327 4.529808631389002
Cu 4.906709794103681 7.478892148595342 4.749649758470842
Cu 3.434362775183208 7.867069036850848 4.256030029305956
Cu 2.408577909327195 7.227227917764121 5.272317409924308
Cu 0.26369731047761336 6.230055783896601 5.754756613662205
Cu 6.269932407611643 2.8625484640723626 4.384970948185516
Cu 4.726979747493112 1.4236170739051495 5.871006657496489
Cu 1.8316671444659651 4.503897280020831 5.439358053645398
Cu 7.196031321479245 1.1771282566650723 5.73346204774649
Cu 2.290805824650471 1.9306454169983782 5.168703703932231
Cu 4.027079931462494 7.590760464529052 7.241559537980778
Cu 4.108747384739667 5.554610334704389 6.180941523730841
Cu 6.211401087342505 6.367011308740137 6.799437088053263
Cu 2.1259269469021036 5.87078852640328 7.481500381607708
Cu 5.7793961349021785 3.7558768445615582 6.700913869827929
Cu 3.249008554475648 3.4238660276336828 7.24408983729158
Cu 4.492690351814869 5.304851195541888 8.456187742034752
