32
Energy = -91.02586821 eV
Cu 6.112314629571977 2.890955619438734 10.46894505240437
Cu 5.745802411033602 7.900160972496096 8.19128542186335
Cu 6.3890914326995745 6.256362977234319 6.182712639465006
Cu 7.678941402958693 4.741868991075481 10.548575672686281
Cu 5.754098000246998 3.9363586287138874 6.504585604462515
Cu 4.3966299959897865 9.147213115258621 4.063990805823352
Cu 4.475530211187117 7.657473480634994 6.007994567156826
Cu 4.7112575329581645 3.3682486224305945 8.548984498595098
Cu 7.231578460609231 11.070484374745023 5.773882767039102
Cu 8.950909088806753 9.353486812091155 4.854612538359362
Cu 10.240621685562742 8.706350713122445 8.80831977076951
Cu 6.8830623905570185 5.621624388841947 8.469341331381319
Cu 4.521723353131991 5.722625264172394 7.761485522809063
Cu 8.096142227845302 4.613387590221472 6.391942051299579
Cu 6.638943326127466 7.065933815610147 10.42532355471232
Cu 5.1799169741787825 5.114036550253584 10.152667786872325
Cu 10.255421937580223 5.641321363517712 6.2730600611237355
Cu 8.593622481548858 7.083902069281175 7.52624349442361
Cu 8.886793899288136 9.92662822280888 7.2531740185007445
Cu 10.95339807853541 6.4990221406083375 8.38759138869274
Cu 5.226123534591219 11.440001047108117 4.4094829437361085
Cu 6.124339793549522 7.390543211586903 4.0945151078590625
Cu 9.255581858639733 4.74164409296902 8.508425572985253
Cu 4.923995991598457 10.021735316235008 6.304026106624243
Cu 7.249851757391213 3.1909958124390374 8.348860994543271
Cu 8.493264373169644 6.918053258388893 5.063462569790824
Cu 6.77492567294151 9.695442584911047 3.8089173931196294
Cu 10.436341502018413 8.138206131190845 6.363885629107975
Cu 6.56709657262266 10.34303873311381 8.007793722320763
Cu 7.014036747100008 8.622738450497884 6.186380563346966
Cu 9.033395371287515 6.72561065502144 9.962612917939778
Cu 7.841291948417442 8.792140725717958 9.24733611003586
