37
Energy = -108.49759234 eV
Cu 2.5650496742073665 4.975714005463512 4.5451282367680115
Cu 2.888215396908284 4.891068307371981 7.004164960840887
Cu 3.485985531689566 3.39341765000189 2.8593113151216696
Cu 4.089243132269311 3.2884124792804013 5.2871221463879765
Cu 2.4977436081143884 6.397317305156865 9.006956437051306
Cu 3.1062896538212317 5.847916828445821 2.307531480763278
Cu 3.786770027040714 4.2593634167679735 9.304500429824527
Cu 3.2666276825153595 7.6755746435797505 6.850925801835558
Cu 3.0525837101885456 7.3174675373746725 4.360667277165519
Cu 6.216879608721641 2.114761517930733 5.97519661187246
Cu 5.755472632014295 2.5960777356964893 3.6364718109426857
Cu 5.176177913578319 3.8737156825910755 7.348698235233103
Cu 4.67004131753158 5.987155385862644 5.754185572513113
Cu 4.67407996574967 6.195489575697658 10.548276267924495
Cu 5.011460445379881 5.049767929772957 3.57562027320239
Cu 5.3864617505768155 5.4873527627978635 1.288127873894436
Cu 4.709419918614053 6.191607531725009 8.16760424419411
Cu 4.148762183137459 8.236963664713448 9.275972673422288
Cu 6.854804126092136 6.264353667239897 7.010834255770933
Cu 6.400572264995588 4.773674740207996 9.278478083247705
Cu 4.941103942138523 7.470684109392408 2.767769921210622
Cu 4.992740804344114 8.558405655549208 5.074501660346664
Cu 5.64259165669643 8.432319602295458 7.383784604368469
Cu 7.556629379190323 3.4350887780643453 7.565301093402583
Cu 6.734855796399192 6.752096177263731 4.574613482471125
Cu 6.664948466151989 4.406951653211497 5.317926753568304
Cu 6.6673302611574785 7.2037016455296135 9.283845900732697
Cu 7.169825822634366 4.327507949768472 2.6676409194283304
Cu 8.218175770714081 2.8778250504505816 4.470410449624437
Cu 8.63456414004195 5.543411958893619 8.350205713107448
Cu 6.788804546414445 8.931488919421088 3.425762123628789
Cu 7.480771619300294 8.699429028817441 5.843780480308501
Cu 7.318098326510727 6.7294510868836745 2.261666913645945
Cu 9.245127286999178 4.387347768887405 6.186531329220842
Cu 8.825396277788595 5.389017624801407 4.054039512420013
Cu 9.07370251164948 6.79009620177846 6.132751580720705
Cu 8.888532387281561 7.831003722214011 3.938845732419919
