30
Energy = -84.91784419 eV
Cu 8.833447821661123 6.195695268526854 4.060216602088415
Cu 5.807492025297765 9.001907751949341 3.0843362780868
Cu 8.04131029367581 8.459767540939879 4.034064635893896
Cu 7.251932218237511 6.570979367658875 6.030655802457248
Cu 9.231518776127922 5.094429664730637 6.245499255781487
Cu 9.459110561676072 3.851751364342833 3.947290890260143
Cu 7.567958555038059 2.20834692847784 3.8308729657931138
Cu 6.0987012789363675 8.622523186898173 5.41492761784245
Cu 7.981631181365437 6.237421898818857 8.284781467478636
Cu 6.201595983887128 8.067534991374052 7.758257306660755
Cu 6.408484406425035 6.662166252100085 3.7070167144495203
Cu 8.815001377241652 2.704818760175394 5.947577520119177
Cu 6.179647100341881 7.059216605815556 9.892415963761314
Cu 7.3052409443622235 4.061317902362728 7.268672003789454
Cu 6.584564352697896 1.9229503323832997 6.127235929174782
Cu 5.640570440829774 5.697779272622456 7.908419924979114
Cu 3.9903536015177443 7.308978523834166 8.832747939435697
Cu 7.241153614966717 4.421863256795657 4.708730689246543
Cu 4.1089351664521985 7.71549410199184 6.449119109843724
Cu 4.1273283882153615 9.808126240849163 4.744117466588919
Cu 4.1309055164437956 7.479279985373937 3.992567873901947
Cu 1.9477852353647922 7.316506273407737 7.403925086670079
Cu 5.273858635299737 3.0780114473013196 4.407839011336806
Cu 4.215447905561535 1.448423769175048 5.839233409302261
Cu 4.96864999124199 5.437992345769121 5.30534912756917
Cu 4.952110025316213 3.497939322421082 6.969577394748114
Cu 3.334210282729802 5.338918231645166 7.345918527198688
Cu 2.1554422269174283 8.476203410281245 5.200067997351501
Cu 2.5238733254571057 6.083468632241725 5.2052978005841215
Cu 3.1352774942542903 3.7200304816711816 5.397295273904224
