37
Energy = -107.16129605 eV
Cu 6.5530824267529795 7.442622802966259 11.189324992764787
Cu 8.804514411241524 7.98360042957208 10.22728050189597
Cu 6.0941894805868655 8.499141672255078 7.647650174417428
Cu 8.33599987145049 5.645415083287449 10.82162071740847
Cu 4.7108596524597255 7.078567159080137 9.20877763438378
Cu 5.959502719346464 5.139081291825204 10.459576917746572
Cu 3.680943961704486 8.364460196462835 7.323413514857327
Cu 7.433781286810784 10.18778951180518 6.397063669416459
Cu 8.528088434996775 8.486793876373095 7.820188579567938
Cu 7.11202630523844 6.784281324059287 9.023589785788177
Cu 5.1052504134918015 9.922361699556646 5.916607618059062
Cu 9.454234610719631 6.177063935257801 8.62275115519058
Cu 3.31734140586148 5.911560188692785 7.499427953296602
Cu 7.811654129803121 4.33257911801641 8.784193883705688
Cu 7.538174768011016 8.002746137262909 5.494436307065693
Cu 3.662899199183448 4.924615690615106 9.712643682039799
Cu 2.8122917935298792 9.511316550180624 5.389965477168593
Cu 5.209579611845229 6.656207567860116 6.034590200150631
Cu 6.608960154349405 9.59176419545586 3.9937768272545657
Cu 5.486466999745819 4.916257072502572 8.065155901958974
Cu 4.558143965777344 8.328039753400406 4.171406142648291
Cu 2.8027393935780553 7.0676495878809 5.4266656547112495
Cu 7.410798240131769 5.959108719720228 6.778193437223657
Cu 9.713255517665797 6.9930818603951845 6.360197741729112
Cu 9.298327825445577 4.50071699320446 6.637390947642602
Cu 4.501168690532611 4.245497192782569 5.878346623659997
Cu 6.9863810722429065 3.5433332099592287 6.634552410093
Cu 8.607489886815216 5.938688919874175 4.578045067278743
Cu 6.598340955040697 7.10409370546445 3.40864267067992
Cu 4.25117747936544 5.931238842127222 3.857642469313495
Cu 6.399205427710614 4.833900560847918 4.435900228643862
Cu 8.383100696322035 3.4416730029789853 4.524812418863258
Cu 6.087148918686804 2.3117326838496006 4.848424979617518
Cu 4.518491024700406 3.5280010705548746 3.4716583560657117
Cu 8.070242099459787 5.0848001775995115 2.469840018752551
Cu 5.697537925843058 5.176706907078315 2.052060126340433
Cu 6.812735419192578 3.0304704671001383 2.6464985389866897
