35
Energy = -100.59029834 eV
Cu 3.618013691042471 4.57320280714937 7.4331673406696
Cu 2.2723351326969987 5.931778285955395 5.844145371446129
Cu 8.476104096704741 6.637794689074377 4.2093610025938375
Cu 7.659022120476182 8.219736449842676 7.227383410464711
Cu 8.268638478908265 5.974332307596084 6.567695777702941
Cu 7.8054142717004655 3.504068389242271 6.847108139395565
Cu 4.5160668240850335 5.372770014074864 5.150370975385474
Cu 9.874025782987639 10.232661870095882 5.448805037807796
Cu 5.914951720649892 5.4241332158162505 7.160656967594186
Cu 9.91057524156446 7.824541052713391 5.839057419581841
Cu 1.7194423854990535 8.036563851164729 6.887293811766189
Cu 7.491355572070723 2.4813987991527413 4.741041480277998
Cu 6.859770152308023 4.797666050004057 4.774745666455429
Cu 8.155307782785075 8.831303528539312 9.428122568890906
Cu 3.2330514255447054 6.842726160969374 8.255332844743698
Cu 11.77042627304587 7.831877874628627 7.323910006189995
Cu 4.976733470959572 5.571787093411623 9.378463980163733
Cu 5.4684063498039075 3.260463926870397 6.164924984421504
Cu 7.399052713585423 6.374131980305754 9.007294686069637
Cu 3.7274836781408016 9.287692051508255 7.7306093087390675
Cu 9.686378682164293 7.120283708651642 8.410205149827446
Cu 3.9561932279300787 7.6664441600692435 5.911389364140445
Cu 6.293150251576686 7.120916624945237 5.334042311366338
Cu 1.2196119870520823 5.659566438147091 7.939898543286603
Cu 9.246217341124112 4.31640574539102 5.036731747771092
Cu 7.818380094342465 9.012238291173558 4.865844216359728
Cu 9.909344115727 9.448380667461903 7.770758812670205
Cu 5.730848233959936 9.384257351942267 6.1777291082756856
Cu 5.477725581734076 7.677846229095048 8.140732812208057
Cu 6.123185067821987 9.98063928505255 8.494664148175701
Cu 9.818327676263095 8.633513877069772 3.5855441760439604
Cu 9.148692714178047 4.704249833782753 8.492881745245613
Cu 7.893534368233105 10.587884941751026 6.871715978928239
Cu 10.65454035424216 5.646244204853711 6.697572872422799
Cu 6.762393496236707 3.9818937592612205 8.958756080101397
