33
Energy = -95.24471818 eV
Cu 2.2159512009171554 7.745526493076359 7.624307601796162
Cu 3.068234887310963 5.453871173412221 7.424937033218769
Cu 2.7555945239007062 4.4497298109722045 5.208247441910369
Cu 2.48270055624121 6.858201757805453 5.394245006138967
Cu 3.6003510674469585 6.820031860906578 9.450925594802952
Cu 4.784378869576498 3.583528539000622 4.200738496959902
Cu 5.939066552642412 4.642438194090465 2.164932585021859
Cu 3.7258187866245596 5.590328023458643 3.1149604838988676
Cu 3.8794209498315286 9.101730986650756 8.734936145499645
Cu 4.6974408086355695 3.8194928073546337 6.7060843948077
Cu 3.659971459146937 9.055749684877787 6.102072560411828
Cu 5.25959064467273 5.232836109135027 8.7212054318693
Cu 4.791467043405052 7.2516488113769695 7.30358854406087
Cu 3.905422328373904 8.021560640907298 3.8736894318549204
Cu 4.7788198812813585 5.9089167101220506 5.238329099604105
Cu 6.668995230081041 2.4240842925464463 3.269239356586805
Cu 5.830396116987809 9.494200783508665 7.415373308573005
Cu 6.6134608196493065 2.692880321570173 5.760605883596858
Cu 5.9370709494978655 6.854101066390792 3.2455494752438674
Cu 5.898090381011443 8.288982994552288 5.281698586427797
Cu 7.044611060145951 4.681113781766673 4.303295762173592
Cu 6.066466768667301 7.604549826259038 9.303164645052563
Cu 6.754260684679508 3.416364611573384 8.111334812037013
Cu 6.69081303412401 5.427047720488593 6.621926010704833
Cu 8.462824935278153 3.80307699263082 2.433552915270011
Cu 8.750889546266295 2.7010611966202878 4.561565504808352
Cu 8.13070414444442 6.154918178282534 2.620405868169685
Cu 7.885619512301124 7.0042958439269185 4.894963849310016
Cu 7.423619387958823 7.7248149189498045 7.247748887693723
Cu 8.649871503540686 3.8743956734898766 6.67126944703896
Cu 7.7468724448450805 5.69190740456469 8.751125066310887
Cu 9.44478202525333 5.089544463480373 4.538370956172204
Cu 9.243892407794426 6.177794814233617 6.754470535977552
