36
Energy = -105.1073797 eV
Cu 4.197378399834622 7.372386662055379 8.307818819116848
Cu 3.4109297829560994 3.6501569387120036 1.2216251900823951
Cu 2.591481208401588 6.095111888257119 0.8293251598408472
Cu 5.848440758240603 3.1058567148218836 0.6644785645688497
Cu 5.138885254180869 5.598919550419293 0.8548858581673457
Cu 4.552800552632034 1.6743265786088446 2.3355590292370896
Cu 4.187485751901358 7.680022738857374 1.9042865396646522
Cu 1.4213840371991318 4.523832332809265 2.4872955577628346
Cu 1.9605010713467865 1.8993267030503571 2.5561767613033215
Cu 7.41487885776053 4.722711664535183 1.9238414952002754
Cu 3.5492854720827114 5.6363005978405525 2.956731309782077
Cu 1.6971588786145635 7.001754707997493 3.167610272537352
Cu 5.348836705883372 4.079462622859053 2.7260558468743574
Cu 5.8550869342194485 0.364649531687247 4.048252600556715
Cu 6.0102806240846975 6.355386464121212 3.363241172711341
Cu 7.0717725784941505 2.3341732040828957 2.8270154720097396
Cu 3.1884171167136826 3.3956337919392827 3.7594256982706367
Cu 4.055410474117478 7.532749656206117 4.36663304609171
Cu 6.367432301889253 6.208724960349827 5.983526750950413
Cu 7.451066494818174 1.9354507355420607 5.357549696127537
Cu 7.153036855817706 4.359046977160244 4.475860408400968
Cu 1.928280116737984 7.397685507121054 5.577008028987215
Cu 1.75452186497669 5.04590685799506 4.92058088479707
Cu 5.363553511077595 2.5983403410962786 4.573711572528653
Cu 3.568746367541044 3.157954411388846 6.1543908965637
Cu 1.4414997489182928 2.4929858543722947 5.173738001175355
Cu 4.627327838546603 5.032237770924478 5.0778545018219985
Cu 5.186992044005584 1.096822799923596 6.418854057062548
Cu 3.40780830253661 0.9847588678041782 4.493004352280118
Cu 2.0718996861337224 5.664140351202635 7.245027265173347
Cu 6.090843296301024 3.61746813318354 6.695893366207651
Cu 4.080608512297227 6.94484623257495 6.699555770279756
Cu 4.255741484476169 4.813887355875603 7.826361848853452
Cu 4.281637095358826 2.385970509668534 8.307818819116848
Cu 1.9139031444339398 3.303050192308681 7.770951643053066
Cu 2.6903918510373046 1.0736647682144635 6.886851904668645
