31
Energy = -85.87978728 eV
Cu 4.85444341259574 2.0800304127102103 9.772792525800613
Cu 4.209649082105785 4.364142691344544 9.724744312912213
Cu 6.527461586604164 3.5293592888552165 8.843158433132713
Cu 5.303156581217488 5.384692756218341 7.798799959148067
Cu 8.503743427525505 3.059182707677354 7.309468100489939
Cu 6.413865046837712 7.503132220075767 7.437112596231614
Cu 2.6610796983104783 6.121079647168279 9.821849100857346
Cu 4.247414279643219 3.1008962085411365 7.665508142496415
Cu 7.732308273803004 5.32781782795693 7.569873463319528
Cu 6.326020061189322 3.421930375256527 6.4076266960480135
Cu 7.96956514612914 2.18429986268177 5.0653550600567785
Cu 8.483443954180212 6.941460036217723 5.94181407903783
Cu 4.066714571646657 7.46449312592252 8.413721892978202
Cu 2.9061955715956915 5.184616791844682 7.586175933640737
Cu 8.374126794742617 4.570131638967295 5.150462970198437
Cu 4.231040781025086 4.370060399314261 5.527594598219604
Cu 4.720403078816138 9.061160999335714 6.547712348722986
Cu 6.293615944105072 5.870374340720476 5.576817515361919
Cu 4.049899864965486 6.804679964106076 6.148022103746901
Cu 6.229394283802915 3.696895862214009 4.02097357837936
Cu 7.429024929636441 6.609961838121116 3.5918937928601404
Cu 8.36927572594707 3.3319263486656245 2.9884396951933025
Cu 6.800303979560277 8.493738395556342 5.189955663117242
Cu 6.818682754479587 4.893267412900246 2.0211890867495668
Cu 5.026630412371073 5.72349261285692 3.476268049103263
Cu 4.655710807965308 8.03125812792221 4.201304910422926
Cu 9.019233446884625 8.371453111257807 4.07309630361129
Cu 2.8136333638310105 5.9899102362625545 4.337131364395024
Cu 5.3274253220606695 10.377507830304117 4.597662462741218
Cu 6.476976680657752 12.305103237857933 3.844394944932247
Cu 7.6164042735515265 10.28878682895276 3.8059234538811952
