36
Energy = -105.67148853 eV
Cu 2.6536615794578107 6.795293921315414 4.633850174469087
Cu 3.052937818265979 4.42667715101478 5.2422132312754
Cu 2.6313776767869808 9.248719527165989 4.117666401933601
Cu 4.072861667436482 2.1757634345786037 5.758463747169548
Cu 4.338293067575167 7.852345096352539 3.1113869157398977
Cu 4.287742808078918 5.413246895791138 3.3342133829380916
Cu 4.181546740332477 3.017520586183929 3.4976733950805063
Cu 3.240007810291151 6.106175064769919 7.006498283324912
Cu 4.247490099888466 0.62069686956633 3.9357335942718326
Cu 4.160444410680638 3.857209320590824 7.468519356790589
Cu 3.115810690973287 8.482784802189991 6.356920764757083
Cu 5.087740005775176 6.913053692906443 5.298005972064037
Cu 5.52756977620901 4.366435814128915 5.361661595009104
Cu 4.299284305416299 5.5583820658702034 9.266607950951206
Cu 4.902184181454366 9.460760753467968 4.971911809733265
Cu 6.270363064337235 2.529663996508496 6.861106971533961
Cu 6.4575546579914 6.507213945165034 3.0866715350518112
Cu 3.5785195570792565 7.85008733715419 8.666206171346403
Cu 5.826601774467836 5.870457806777413 7.441698739603831
Cu 6.534958418730946 8.95061948895451 3.2188067414458357
Cu 7.474273655549693 5.736863695982264 9.3208509943169
Cu 7.454611553006946 6.063818422421341 5.5232936122462215
Cu 6.1569627424441675 1.9543191469832428 4.447652681194326
Cu 5.410629175666116 8.602675746558507 7.253856532432441
Cu 7.647539986189101 7.65150550890278 7.757753751692713
Cu 6.057458661847048 3.787979194116754 8.955212371284615
Cu 6.42357938475116 4.03871340391874 3.0759810941641477
Cu 5.840899208190501 7.541426762198287 9.415055689501168
Cu 8.517721249511803 7.61871848620577 3.777061342906041
Cu 7.900035111093041 3.475163449767473 5.051870332490177
Cu 9.382195047164467 7.569989666839904 6.037103539398799
Cu 7.903099310036349 4.293738878749878 7.355967865459309
Cu 8.55643509190359 5.189232918421924 3.446273449911089
Cu 7.156502174045273 8.631226124656882 5.537994635404797
Cu 9.660744515767643 5.074532840119038 5.689431004650652
Cu 9.46476350386529 6.0718870785829955 7.942378813566694
