35
Energy = -100.95215387 eV
Cu 7.870139823870717 8.36931111647163 4.677873939586435
Cu 7.046646573438975 6.448807602732877 10.81352927630977
Cu 6.3506306606518725 5.244618715040109 8.874810917209617
Cu 3.1120500138098945 8.128490989773846 7.805667141247531
Cu 6.959537155453961 6.09706031932746 4.954982466466011
Cu 7.717447078415032 4.789552787551068 6.946291919043399
Cu 8.055570036622226 6.778751176964088 2.819064582012357
Cu 10.857383292403734 4.294563885468934 4.98697563960988
Cu 5.369445864089154 7.994287134245097 4.4743763814172315
Cu 9.471632686933528 6.3833351439256685 4.782854936219232
Cu 3.4842862694664993 7.132118948410489 3.1490568388508597
Cu 5.488588681020153 6.875780626463483 6.929304343790322
Cu 3.0800018257057378 7.61194793508136 5.469869361229632
Cu 5.101966436214242 9.184790476493069 8.617188183043803
Cu 9.497784841052978 3.0900598023493964 6.774134185669247
Cu 6.22226680094207 10.238928528636482 4.720602342662091
Cu 7.0205862572340365 7.717537160404707 8.791118617437235
Cu 4.814058462073556 6.959550767576382 9.727732554620832
Cu 5.2395802441387564 4.325869084831621 6.866913153406449
Cu 3.2146142409820464 5.767286356685025 7.128443750316858
Cu 8.327635806066343 7.177819202282497 6.815098499826945
Cu 8.509115667094356 3.859670159952925 4.7289319740768905
Cu 6.707355466807434 9.028622972533057 6.739506594543716
Cu 7.059370166526266 2.596747125760076 6.365167101114798
Cu 8.684308270506127 5.929371917633238 8.966638183685015
Cu 3.1810728178862093 8.7078728412074 10.126463467384305
Cu 10.070289277229584 5.452499436147636 6.974780514774635
Cu 4.397523088523733 9.508856192019891 6.228548234257966
Cu 2.4500500520869677 6.465652026231854 9.420528372572939
Cu 4.358755195666977 5.649748289415764 4.9526482270270415
Cu 6.015714799315355 3.883033142798108 4.560672161645926
Cu 7.438833728633584 4.46285884049544 2.656230225813266
Cu 4.053728038438209 4.650044761144549 9.083833568424291
Cu 5.625182938197325 5.999127879144276 2.9104111356297904
Cu 9.807004229437304 4.924384399016941 2.872060315286024
