34
Energy = -97.5847992 eV
Cu 4.555634264630869 6.703348377262328 4.080363021231955
Cu 8.516201479825481 4.9684963629086045 9.655843319881624
Cu 10.011823804118743 8.852778492300956 9.45753589203618
Cu 5.168071002055546 7.986333648402382 9.913652237741964
Cu 4.678221957046568 4.448677365762392 4.942197517445459
Cu 7.523376087314269 7.435879870735153 6.762800745018554
Cu 8.485456065770629 7.2212008338840805 10.551994177191254
Cu 6.688211382535535 6.5064462445720785 8.821584899835681
Cu 12.390697538248274 9.975797209089366 5.879491193204385
Cu 8.802979379402979 10.833064713569804 8.246959925083987
Cu 3.76961090743136 8.19149977402386 5.915018822821963
Cu 5.510288669522096 8.672969191541124 7.563300227593984
Cu 7.2271896516578495 5.910073809141561 4.888232825059683
Cu 6.664543818345662 5.585729337992982 11.071424532331532
Cu 6.349961169474156 10.810916102929127 8.474898000585338
Cu 9.616353044317572 6.532293829271292 5.878044902845989
Cu 3.727874182093428 7.013878440721446 8.118299350909156
Cu 8.106545537465358 5.081247625065651 7.226436335181781
Cu 8.477269989808855 8.470667646229614 4.743495519232592
Cu 4.216053155009141 4.509911257630633 7.630731203061513
Cu 9.474881855234905 8.7876208685275 7.054372810683763
Cu 4.561104515263168 5.567070420718167 9.824454426224806
Cu 6.321460964794459 4.100243199302724 8.921485825243968
Cu 7.375518571907268 9.968402523011989 6.41136423276345
Cu 6.290096261263661 3.7646372385923583 6.505827963873212
Cu 11.152337860553594 10.341016849977436 7.851382849135876
Cu 7.597861291468682 8.82370755357347 8.941478238587685
Cu 9.834767858897582 10.594266679669635 5.623335212467396
Cu 11.626966428101056 7.92876776244615 7.3274982571479725
Cu 10.875360904288396 8.423466829441438 4.9623726497433625
Cu 3.0283939453023336 5.898576536057515 5.990464260474809
Cu 5.394806967776946 6.283697105183228 6.423828285049904
Cu 9.60362886983629 6.706015430275779 8.368952173513016
Cu 6.047932612410723 8.342050708986998 5.006126729375824
