31
Energy = -89.29376819 eV
Cu 6.106892418747176 1.8158347453200165 4.233225525695301
Cu 5.464925043898585 2.7308768066216085 6.621776865387925
Cu 3.732679447762134 2.1934719598752075 3.669560644470465
Cu 7.551930567815546 3.1714708315163005 8.021673099139365
Cu 7.908396442672224 2.4221700311003356 5.688340379530459
Cu 5.603741440329997 3.16851055222942 2.212972917913477
Cu 3.4188835143939453 4.355912632790501 2.5142943876028934
Cu 5.127299244973378 3.9749981736320987 4.452313390241953
Cu 4.314790954057524 5.00599696420379 6.491386683505136
Cu 7.429479595845966 4.097539502934429 3.7369465983358117
Cu 8.018415839446865 5.6212962574961765 8.249188777469527
Cu 2.6445771912009546 4.05426134716959 4.91549750886458
Cu 6.924496162314266 4.5766605803255045 6.143435290612229
Cu 5.673844277636685 4.6865543908819465 8.470928144807433
Cu 9.270675855720352 4.345148069506355 6.5115228056598005
Cu 6.193008860309191 6.946269972055301 9.386413889969731
Cu 6.135978680100702 6.674438467554472 6.999483509775333
Cu 1.6631227259441757 5.83822450323731 3.5479506815348185
Cu 3.975983923673226 6.748220527066904 8.118878568877042
Cu 3.9647028338493624 6.081005201216326 4.2277875503316595
Cu 8.429125554132561 6.617986177808645 5.96489205545652
Cu 2.3517296757657564 6.382370504581416 6.02109547390547
Cu 6.445075866662752 6.314646728288094 4.536735194182469
Cu 5.610662938933563 5.5999374739208445 2.38335176177831
Cu 7.890258757418627 8.112026814643185 7.845127280667473
Cu 3.45884086197193 6.806623776740873 1.9888411905155226
Cu 5.50746459069003 8.813526379745062 7.85147938276535
Cu 4.336319323759867 7.900052719092841 5.845137957261094
Cu 2.6527921799018395 8.05861789433158 4.010785639115547
Cu 6.752866847082968 8.523885179129094 5.535654834694699
Cu 5.175893182848629 8.0392765022499 3.429945944287812
