38
Energy = -111.09893192 eV
Cu 10.093711517269085 5.262231775449657 3.590174699614206
Cu 9.404692086307447 7.570304128990507 3.346112197623811
Cu 10.5770596803461 6.7811915568165535 5.4051590806172145
Cu 9.74988614159281 4.436938861510408 5.914289954135909
Cu 7.782471009477742 5.844092341028028 2.6197445150374628
Cu 8.23215484877363 3.709658179266816 3.8937675169870176
Cu 8.76043175110761 8.500264038875152 5.519422163120471
Cu 8.200977348620189 6.1138792898602965 5.052044787079725
Cu 7.004813476656637 7.966441796959485 3.7777079129288915
Cu 6.222561068748074 3.9546444447506084 2.416025735827233
Cu 8.188263049291482 2.5011973036465327 5.967168702309265
Cu 7.962075778379427 4.329359288034699 7.572758488514733
Cu 6.153153322243647 4.790264538953782 4.654856322487446
Cu 5.378531768228938 6.328637016578264 2.620829156751947
Cu 9.061548345608983 6.489582810521337 7.352931809277559
Cu 6.139627655313118 2.432409188286918 4.507956297138399
Cu 5.7654263016671115 9.232120945302437 5.553644701839624
Cu 6.041256455342864 2.7718005854860026 6.997450066153038
Cu 4.645841211335673 8.571337298034377 3.4270474461150613
Cu 5.693048669798597 5.298499584804774 7.0019385046316645
Cu 6.9880172227762305 7.553111109957272 6.749594915396393
Cu 6.928414276640418 6.349259283174111 8.802079629192562
Cu 3.137152806396529 6.671037318401548 3.700643910502645
Cu 5.159121381455574 6.899166716712762 5.146832991109234
Cu 6.115774345787049 4.060791331725935 9.147051831299057
Cu 4.026660209693327 4.399654061788335 3.401826702336984
Cu 3.360510591843013 8.463823212949139 5.5983973275944825
Cu 4.09907993378096 3.450332480024239 5.620311385652172
Cu 4.727039819991831 7.765685614070695 7.5061069866525125
Cu 4.008519185026045 3.6245571215159313 8.092562957998972
Cu 3.2902545825051823 5.713030864823272 6.519908990193557
Cu 4.40283900813953 5.908663543081016 9.016572096492743
Cu 1.4236666931921478 7.086369052905899 5.357173089678829
Cu 1.9773565384468061 4.721311837695611 4.730685480910617
Cu 2.2443846825972162 7.447355227813188 7.741480655341656
Cu 2.1273764967354785 5.129578558671753 8.735736706628947
Cu 1.9599274464626524 3.5196774230069896 6.859739244571475
Cu 0.6236763703589224 5.522366656705889 6.911503067298053
