35
Energy = -101.10570868 eV
Cu 6.10088006815358 3.1634791837343044 3.9121778068272928
Cu 3.4491771522572336 4.907716482047374 6.540799844799913
Cu 8.941621003785 3.0161738683094708 7.902617712059787
Cu 5.4946286007884595 6.306662788399155 7.5674838798812765
Cu 8.053719455196338 5.164960570200101 2.0564291946346454
Cu 8.493770146594189 5.124671093912203 6.809409923692815
Cu 5.840982988345246 4.798447748878527 5.704386240982328
Cu 8.322041086652222 2.934958548868373 3.0718834262994337
Cu 2.135447026355381 7.033315343200694 6.182320581937341
Cu 6.499697635728468 5.85092644900675 9.745570093731386
Cu 7.818505815285827 7.1483128558447415 8.005522034688044
Cu 4.190445111921974 6.9806578002944395 2.693958398028063
Cu 6.378273815423029 3.522074413778105 1.5537893871615212
Cu 5.955099069201912 8.607502822192375 6.647193604426333
Cu 8.223022032034757 4.880190956976082 4.450150773278327
Cu 4.33736316670637 4.489021664267346 2.5950436056610595
Cu 3.841043539394684 9.236879190244943 5.597233882915685
Cu 5.823617968441072 5.908470728169095 1.1887381346302555
Cu 5.001792052016045 2.918906334472795 6.849442432959407
Cu 7.481127120009882 2.9437206236831077 5.92853412568067
Cu 3.751035832636654 8.071525981921598 7.747086236006065
Cu 6.1517550511624135 5.9349696608456 3.5418461900836955
Cu 4.213754392017275 6.6891495502252365 9.81607563635422
Cu 2.495748411238364 8.00844181622245 4.029372185079547
Cu 6.760909835727203 3.9552334396500424 8.189426953011058
Cu 8.741964018825275 5.144459156700177 9.174566869636314
Cu 4.463162188501449 6.9115744565607455 5.311158248097647
Cu 5.94573375364598 8.36953647388433 4.094354673933713
Cu 2.7399442179024285 5.540917479258018 4.197214858427495
Cu 7.268937788871267 6.8810478569174665 5.613826241786372
Cu 3.8731307881227885 3.4089422313130813 4.707864889767544
Cu 8.142102206449707 7.2243597110596625 3.398316440587305
Cu 2.426654205722871 6.037609618828639 8.377895032460728
Cu 5.909369747682749 8.241829596120821 9.061525213208208
Cu 4.433026856868041 4.457421723619302 8.793234311978424
