38
Energy = -110.92942373 eV
Cu 4.326813217339021 3.6917500496801092 7.546941042505853
Cu 5.2995871753745165 1.8491029847563172 0.9863241643349254
Cu 6.471147259090609 4.1931032228397225 1.1343541892984608
Cu 2.6644640470154033 2.149897492231633 0.8961462317023444
Cu 4.5238515292944586 5.912265731786659 0.8081445511600941
Cu 2.2623422187566398 4.665136604021574 0.7027058767654752
Cu 4.211047464636771 3.69533705701744 1.8666276171343048
Cu 7.133217123069206 6.590136255034566 2.0034478193436303
Cu 2.358294074479974 7.104578581950644 1.1842638761290576
Cu 0.21470401812235465 2.7480376169281513 1.7684431565640482
Cu 6.1256169647333385 2.732726448628817 3.2547164654108474
Cu 3.8606738719647646 1.5827693433309833 3.1703522793362082
Cu 7.821419157814205 4.674768716663438 3.5122115450382396
Cu 5.504513250363503 5.330296997392977 3.05250603583798
Cu 2.0673627446115437 3.3769864115177652 2.962192730260485
Cu 3.030768379087484 5.758718755620613 2.9542434806772127
Cu 1.0451842635917912 1.2541124815537115 3.7319957592603
Cu 4.714490130446517 7.5252103954826275 2.7298002581299583
Cu 0.6943231291189103 5.331256778733558 2.5091036345228526
Cu 3.9932939886732406 3.8390188764812003 4.274380568810219
Cu 0.03203278452315596 3.5447398233130936 4.162754941424621
Cu 6.6985052233606535 6.721429099710438 4.626923736771872
Cu 1.9207255596632906 4.993038416213896 5.076749383497806
Cu 4.213980353935774 6.23757368832203 5.0662010874034555
Cu 2.3580143293559495 2.437782818985917 5.339519763487622
Cu 7.713417706562019 2.7669007616786314 5.248745851444118
Cu 6.054328424805052 4.4082310001718135 5.24010243452897
Cu 3.6095814109834263 0.2938715632153795 5.19222610470659
Cu 5.223237672267103 2.050240048392132 5.540336772252223
Cu 8.036562934512755 5.166636920299452 6.171248044561706
Cu 0.07001685666191208 2.279093035130498 6.203190968921168
Cu 4.087216040011639 3.9607264043647454 6.783798835895854
Cu 2.9511177598451592 6.004621505265329 7.145098441382814
Cu 1.7157977211079742 3.7803185227956018 7.2634921708930875
Cu 5.67553896051136 5.908594665224257 7.0343958417556625
Cu 6.463012623361667 3.4228033539751115 7.344141636287062
Cu 3.3917056954513964 1.6580664512194672 7.312652623834609
Cu 1.4529360369225373 0.3509632214978354 6.194892330145463
