37
Energy = -108.31590691 eV
Cu 2.6455940281997474 6.781546567876123 2.4644106513406703
Cu 1.9880941936342393 5.551598773141797 6.443199729041247
Cu 2.187366373968622 4.670054403844818 4.152365802842868
Cu 2.8534777829264404 8.961735369943321 3.9237900791030658
Cu 2.642520922420812 8.312340798241612 6.489787653009295
Cu 5.142749741367666 6.106355545558098 1.0708371081507069
Cu 2.6605950429822207 3.005480325138325 6.0727091790992835
Cu 4.561905892231766 6.204212217968682 9.530173777912394
Cu 5.953232605329478 3.9222709199959813 2.005256236300756
Cu 4.845688091712024 8.708366394892446 5.405340612470158
Cu 4.83704264652546 7.778630983373848 2.9961028361416364
Cu 4.2768795231321395 4.6438445275996605 5.787069407442569
Cu 3.22028290650584 6.793716738090816 4.791832437038871
Cu 3.901642753518051 2.9822463252671088 3.731791151093406
Cu 3.3532676716694696 4.521401540288537 8.148397956552131
Cu 4.354690869661785 5.27024996642146 3.182400940824161
Cu 6.247745153079918 3.9749457959214713 4.536289858216487
Cu 7.508400069106389 5.211729565332382 0.7292298765402633
Cu 5.699778914710524 6.448218633254996 4.903847046299122
Cu 4.599573830295794 6.839617001935146 7.170450947943384
Cu 6.844709046668493 6.2229967764025576 2.7650537872158902
Cu 7.001629484493451 8.324797267180825 4.164924376729478
Cu 5.08703202670912 1.8814335150036492 5.496021011362916
Cu 4.401595254790137 2.3863123901277423 7.739704423007671
Cu 6.570641259131434 5.200364633763347 6.754758865117303
Cu 6.00189614848624 1.8547962899064099 3.187433222037228
Cu 6.904552567968305 7.765707940420372 6.591667873330104
Cu 5.698050161655211 4.160420009340121 8.835870979198479
Cu 6.839572794461556 6.488689604007289 8.762289352651234
Cu 6.74179029032797 2.7482093068461397 7.0448565112517905
Cu 8.120199736477131 4.297041373915184 8.396392108022745
Cu 8.786296420611395 6.263002578682328 7.182745742270958
Cu 8.210144313041798 4.157033363335543 3.2168513237980663
Cu 8.160073860795753 6.202089613006122 4.81668541292155
Cu 8.588795366888037 4.061732008074648 5.875386958633184
Cu 7.689332616666194 2.074426924328539 4.850664492001419
Cu 2.51095187654453 6.860176250266727 8.421202511781994
