35
Energy = -101.37277358 eV
Cu 6.741616499430223 6.578523553355698 9.870565527975648
Cu 8.424465381240735 5.791024852149221 8.284974394730481
Cu 5.600107211987798 4.424636267559411 9.5106207338073
Cu 8.116799133103475 8.258399806892095 8.747349951995966
Cu 4.336211467018507 6.584428446749244 9.696880024821661
Cu 9.708094300969226 3.7900156545890087 7.5509827576585815
Cu 7.339260787945996 3.6450499810599903 7.709181750786647
Cu 3.3999400646266844 4.95625260835484 8.182570435519438
Cu 4.931508115586484 3.3569018763269507 7.332032111480739
Cu 5.683376707263933 8.150294618287607 8.33567905727422
Cu 7.9019258006190105 7.416338200352628 6.519957090119359
Cu 5.884277412250753 5.753023067751891 7.577220318935897
Cu 6.976012339899898 9.618811764158053 6.982371124634687
Cu 8.528319771325387 2.8426724175010967 5.5385712375006255
Cu 6.433165734459462 1.8480610520805163 6.237246350851294
Cu 3.634162258484349 7.218077908000395 7.411648282673748
Cu 8.748723582978545 5.230733599570115 5.8770705226926
Cu 5.957100941684312 10.92213542809565 5.214282905697577
Cu 7.330747512876429 8.95458386934484 4.679312853854944
Cu 7.411478302792847 6.5169866650963995 4.263020024417658
Cu 5.547743756344377 7.32879979827122 5.7696284656013725
Cu 4.476538725944114 9.375648225440141 6.4782766583526845
Cu 6.414585129707229 4.3641875136307515 5.469803370366892
Cu 6.706835242999869 2.3075196045539896 3.861794108993878
Cu 2.683337888209445 3.368861510548767 6.473335859225287
Cu 3.20516543145547 7.610917651469561 5.08106735474188
Cu 4.038251171331195 5.243343619206473 5.628527792013487
Cu 4.494916489042148 2.707703342344872 4.999751642097
Cu 6.59439614574226 10.45973616591773 2.925182866819129
Cu 8.051996821820463 4.286209796923449 3.5894386614638925
Cu 4.851284707101433 9.080318475714318 4.016519354192744
Cu 6.507014986206409 8.0628669035292 2.5433508354000995
Cu 4.826367880136484 6.584435158208907 3.5288771806234607
Cu 5.299235870277909 4.230102586885693 3.3018091958291804
Cu 6.727627487785903 5.7007630563715095 2.0655482024264984
