37
Energy = -107.38583029 eV
Cu 3.3916647742809722 8.691997003599452 4.924874455945065
Cu 7.484666044013368 9.642232795409868 5.712853784666488
Cu 6.825224862704951 7.754425916878558 7.063241934963024
Cu 3.3050758226100854 6.544162588779749 8.493722625651868
Cu 5.113638736058991 9.589966066947099 6.46930470635085
Cu 4.949640395607683 8.458139373672939 8.641193746871522
Cu 5.8933165767192826 6.208876237984498 8.78039474530088
Cu 4.470848450313062 7.168625314555378 6.46674859233722
Cu 2.0547358087985823 4.6752077138103365 7.413073568561933
Cu 4.321600880506635 5.2931827157472 10.298196423415849
Cu 2.8394272979471418 8.732261679794664 7.3298040772733755
Cu 4.394280462824711 4.296621822673486 8.078205824742179
Cu 9.139628067069038 7.795174238790189 6.262749369539637
Cu 7.837779526679404 6.138828012764146 4.884696968156989
Cu 2.2139353819257233 6.692373262930594 5.953708358984766
Cu 6.063191805604355 5.424307131066784 6.498647688354062
Cu 8.189655662277852 8.260320725634035 3.8192235845882476
Cu 5.8677036337008 8.109109492248379 4.564376736142964
Cu 4.08964380979027 6.531478581939864 4.063021811046581
Cu 3.632202173445237 4.676966518442619 5.592671254359245
Cu 6.292764611531904 6.295827266239296 2.847693395714448
Cu 6.874410703045864 3.904898835757264 8.262698012545163
Cu 3.1887136435099595 2.5909264297382135 6.655846168643016
Cu 5.752400415372046 4.500755339902441 4.349394226820233
Cu 10.192230157523243 6.881088020363352 4.259945814492738
Cu 8.224383173278845 5.892138407023025 7.667085517590629
Cu 4.254024246780297 2.50852447084605 4.37774867633455
Cu 9.910876034363962 5.348364059232367 6.076542600093777
Cu 7.919113171033768 4.190931272914325 3.3670371878764076
Cu 8.70584682901597 6.283254895589982 2.4663973436473783
Cu 3.713289992000299 4.42291245870955 3.009869173127336
Cu 9.352999726789463 3.745765912153488 7.830337027789858
Cu 5.588241062956003 2.909091005583325 6.395353762530974
Cu 5.824435733146841 3.3973376119021856 2.2649133907355465
Cu 6.741745744865147 2.223055800736329 4.3078723255148805
Cu 7.882966115456741 3.819299176869898 5.904030007063685
Cu 6.965394617992657 9.863267994308998 8.10822126376757
