39
Energy = -112.83621472 eV
Cu 7.059243260881556 10.331299839135061 7.674605506678999
Cu 8.879318436030953 8.79368384980693 6.921538142179755
Cu 6.549648362084191 8.265394259079953 6.635483831614157
Cu 2.789837516974994 9.366988691039305 8.266494647749994
Cu 5.179878631360169 8.958850432947314 8.573637601185101
Cu 4.1830983989552895 8.836643706264814 6.315120872527171
Cu 7.589162502732483 8.359661799427792 8.977502267427655
Cu 8.180692983663151 7.255587419745825 4.999224771615051
Cu 5.712708874059833 7.215136520149734 4.634257767560922
Cu 9.781545067448743 7.328160998570834 8.74033153594515
Cu 2.176384544207003 7.368875225571924 6.963182169975527
Cu 6.966316481829826 5.857514854513639 6.685156305338812
Cu 3.4991523498803194 7.142719312962347 8.977014344385431
Cu 3.1431503022325473 7.294694698614897 4.735766693721807
Cu 5.899089254766504 6.623909646024154 8.893525957736017
Cu 10.238546247774758 6.8709116690502965 6.458121452530234
Cu 8.04492861954384 6.065993182142942 9.812963575417541
Cu 4.301739358981347 7.275770169780793 2.6054783489386995
Cu 10.351937603383211 6.759125276451413 4.033428365189067
Cu 4.313785087131576 4.787105509517218 8.663131561293604
Cu 5.5822366248744375 7.178560855433335 0.6090821516755237
Cu 2.004670074220836 5.294243063280772 8.288190696592267
Cu 4.55007476378557 6.451804224210677 6.7316847426859665
Cu 9.070624760530864 5.117189723536878 7.8421199952398135
Cu 9.229270069494575 5.012394286529318 5.377243640563355
Cu 6.732046832034494 4.760577964233883 4.51212741775014
Cu 8.545467059135435 5.47126748861064 3.0498468361029607
Cu 4.292361158587379 5.285618170178053 4.208797267257356
Cu 6.105486699400962 5.734793126131164 2.3865101487888496
Cu 6.7526481571731285 4.329129021738334 8.604147530811675
Cu 2.5898810087154307 5.1067306833937005 5.93345023850267
Cu 2.984538269956872 3.19454479568467 7.353376247996653
Cu 7.6678817587440244 3.4553451317765806 6.472066395763007
Cu 5.2433263502288705 3.936420829352335 6.54739265555954
Cu 8.551601155855982 3.0059310428934016 4.218828571932194
Cu 4.867413657381455 3.433616413257021 2.853038384651205
Cu 7.178302817832343 3.537680140527334 2.3610205204536845
Cu 3.6464391372653733 3.059228689909588 4.9596465292415965
Cu 6.134709879906337 2.4460414075707866 4.694608428466309
