30
Energy = -86.00701101 eV
Cu 4.9344423962546875 4.450118475497347 1.2272642866986192
Cu 4.888235070180975 6.843549358903283 1.8346970861813394
Cu 7.423984376690746 4.485366200120569 2.0783851026530473
Cu 2.996073666117037 5.4637949621013595 2.4933162489391076
Cu 3.7119109421390535 3.1999809507491372 3.0774083855903993
Cu 7.092594990271794 6.777596782406416 2.908083717336478
Cu 5.975860190258232 2.587055717195345 2.40911264750981
Cu 2.9513154527785432 7.8407037015967935 3.0125881058101553
Cu 5.0070738697761685 7.29114406035926 4.195756970601545
Cu 5.506010078096122 4.902209322079154 3.5415674440982645
Cu 3.4958682507254197 5.32288165890261 5.03442945502499
Cu 1.5569703971846114 4.016828021315815 3.85681688856535
Cu 7.444675229039873 3.222537160811699 4.251707170431684
Cu 8.741714182979313 5.245225296520586 4.023554000479021
Cu 5.2852748233187725 2.0661916946713315 4.661707017968016
Cu 1.410225000814094 6.389474958076638 4.27821277131805
Cu 3.036814787534878 2.8858433109565405 5.441750256801915
Cu 3.0000495360248083 7.812625005769156 5.476128492677108
Cu 6.965147056135097 6.234693198712243 5.287911483077813
Cu 7.025432305397983 2.197842440675207 6.456758343386532
Cu 5.602544476834367 4.19805879415848 5.915364797028323
Cu 4.6781153522762455 2.0309859487851485 7.037287481173229
Cu 1.4572932730525527 4.721221393485275 6.199245481982806
Cu 4.9188796417809035 6.702007139620701 6.591119342186658
Cu 8.170854232303139 4.355689559228381 6.32049654569419
Cu 2.684390700946658 6.444038782344084 7.466805295039475
Cu 3.5856810204009886 4.183102244561356 7.4540533752245794
Cu 6.073497471665514 3.7081757071273516 8.222190766465433
Cu 6.919866249481691 5.901394791588618 7.698797413367445
Cu 4.736805985601707 5.797264367742866 8.825084632750071
