34
Energy = -97.21544078 eV
Cu 7.6155460180276 10.797778484688568 7.831363071589246
Cu 7.986632760083774 5.846296516814142 3.5289483283526537
Cu 4.252588737733895 6.23350868181003 8.320678954806395
Cu 8.51559734669041 6.574223027236087 5.757986958401989
Cu 4.540803767589492 8.356077491875984 4.982784998318538
Cu 6.851192869558986 4.552145876084729 5.359393856893893
Cu 3.932491157281001 10.472785026820596 6.2396966675225745
Cu 6.170296880388043 9.619025227658032 6.280286957069504
Cu 10.40352611252716 5.964479863269485 4.336736866370866
Cu 9.341234955054803 8.103312870889653 4.111837249364478
Cu 5.525773656767897 6.298862712624194 4.197793311114166
Cu 8.868512275048571 7.148217537768998 8.156823608528613
Cu 6.0366361555784485 4.249023535643885 3.1280092718200443
Cu 10.030556937324796 5.329521741503214 9.151991496860195
Cu 2.07368456012953 4.519305259458577 5.4782818085779414
Cu 7.628995170264009 2.7109555405035195 6.674129376928789
Cu 5.21925610935596 2.414310908201936 6.4685922203495485
Cu 3.603884899331706 6.321615907381565 6.009247337711648
Cu 4.426298135805664 4.1337774113143375 5.0317375304095355
Cu 7.02432700291411 8.605678922902442 8.446920330040614
Cu 8.290270584498094 4.854780704544937 7.580665052241386
Cu 5.011596805438695 8.101545371909626 9.630221535994192
Cu 9.218661502855294 4.1303696712324225 5.34033506245091
Cu 10.516704011733092 5.644913931782875 6.806242558865878
Cu 3.2587356884087066 5.7130012908660674 3.6629637158558914
Cu 7.00592200777599 8.150638831854483 4.523872393490255
Cu 4.897682829989216 4.512549744645651 9.737412572852808
Cu 6.686559982197639 6.246119432184432 9.04590683147034
Cu 6.146907061046046 6.843767573536912 6.597330346706717
Cu 8.516864284775572 8.93514955965223 6.393138812648845
Cu 5.231027734501278 10.299129667865948 8.425153964716996
Cu 4.085740767372453 8.394422772544987 7.368965372740045
Cu 3.543317087205144 4.096987793664611 7.365781838713396
Cu 5.92536809631584 4.389206509554863 7.59572612619026
