39
Energy = -114.36205808 eV
Cu 4.052611868829585 4.735519165433996 7.935362096179282
Cu 4.463049993590805 2.11029367292484 7.98920924473
Cu 2.0233503783875326 3.2370134662194006 0.6731162749550926
Cu 6.453732801789876 3.694861451132277 0.6915900462398384
Cu 2.649870454132474 5.524643488381051 1.8225969301199363
Cu 5.339383731756683 5.763503467410293 1.784659421398931
Cu 4.229205636870047 3.4436906815980595 1.6407938691080133
Cu 0.31570621637724633 4.631692230786151 2.734687211449183
Cu 3.1148015423691615 1.1899339496854198 1.9713731671824966
Cu 5.831112945428947 1.4918379962914685 1.9677980398010788
Cu 7.816598527176411 5.256142744215931 2.4849278480990247
Cu 0.5172674930127684 1.811522769513606 2.665770504615441
Cu 3.7391408129114465 7.104334398271791 3.7075159558074127
Cu 2.2392394283281054 3.2490154849223023 3.047533279788458
Cu 6.227473153663517 3.7204639355455718 3.1030345634766023
Cu 8.141840499705047 2.636587134238504 2.5138873951920258
Cu 4.154781240035614 4.710302660244754 3.6192281409049007
Cu 1.1680242010140716 7.143956924696492 3.2435865543802667
Cu 4.397976678070902 2.23384862021696 3.780870760821325
Cu 1.9887584490655323 5.309366380072761 4.3383767465546486
Cu 6.135620216623509 6.006413461578788 4.358419077454891
Cu 4.637542510435534 8.155113033583726 3.8291396671065967
Cu 2.249343513386847 1.1898947289665378 4.4962840441439775
Cu 8.141840499705047 5.867944969271754 5.212192729828493
Cu 6.660396979138159 1.6867827230938062 4.567296040961259
Cu 0.6331116202862437 3.2508059592202407 4.954892653837775
Cu 7.824990751729616 4.037835676376611 4.875085658469647
Cu 5.517658973124616 3.7169219379639893 5.440764678023987
Cu 3.041102860989071 3.368697465629134 5.40718495971842
Cu 2.2027629228208117 7.249095263432776 5.78445305709881
Cu 4.943387471960221 7.682318729979391 5.9745223666435425
Cu 3.9898123018336396 5.605004904491151 5.787618604361999
Cu 4.521087646603172 1.5192970463852384 6.15979908273289
Cu 1.7842282184541107 4.872374169328494 6.831485873412873
Cu 6.104062216423931 5.481430331346203 6.944605527082002
Cu 6.646288237496122 2.6644478486194885 7.11382754812378
Cu 2.005985308033802 2.2037553504061402 7.055170428836751
Cu 4.1737883904890465 3.777808115439729 7.5390383983691605
Cu 3.6799291642758027 6.4223935194104325 7.886461290474313
