38
Energy = -111.42987498 eV
Cu 7.317490587704861 6.3896673356156795 2.104885607563766
Cu 8.770182388747093 8.123485454250085 3.4063223932921223
Cu 5.218409132336509 5.4196942420769405 3.0657125264924745
Cu 6.923135899229894 8.96277047282856 2.231811818161059
Cu 8.663997282307442 5.827837182796362 4.107334401630498
Cu 5.022220705768523 7.500340035150939 1.9119895056490421
Cu 4.732953706621272 3.514771847200291 4.4574514495771975
Cu 7.148312367869549 3.927512700644052 3.209417238656113
Cu 2.9516617217960857 5.022089632983152 3.7242907286604012
Cu 6.384530161645536 7.307680085682104 4.143273914819191
Cu 8.87024566636784 5.484179172050524 6.6303259474696095
Cu 8.321171030968046 7.705493425149316 5.757231251288461
Cu 4.920355738659421 9.35682031225613 3.5203648590044536
Cu 8.809606217004204 3.591514640640677 5.091520444969824
Cu 7.113043980770585 9.559926389631364 4.76004354736879
Cu 6.687851593355702 5.019965996538757 5.240228542949301
Cu 6.672807724692873 2.4670969106756986 5.4549819690599675
Cu 2.3956223034572153 3.282697002768695 5.28551944217294
Cu 3.669792175452403 7.31706402848046 3.9932405249709246
Cu 4.432105495797892 5.902680422681398 5.834342937730597
Cu 8.079845906943776 3.2936541478727777 7.408980842029386
Cu 4.268391725904608 2.1582646466565416 6.414873857391476
Cu 5.690956269576569 4.038164416109036 7.231040401861026
Cu 1.9408127446516692 5.687444149607647 5.835439202521227
Cu 8.617930819265819 7.434781235189561 8.160657324952087
Cu 6.458534625292606 6.615731334606217 7.05126731632878
Cu 5.078076054498905 8.544636093015797 5.796966913802884
Cu 3.17121946122047 4.23458262506854 7.359645059605618
Cu 2.8311884446441558 7.911873018328058 6.256718848862276
Cu 6.252845621042798 1.6245418489148205 7.737841153488515
Cu 7.627601053650208 5.320678629998227 8.783401067963707
Cu 6.853519228562787 8.999914050384293 7.36505121438874
Cu 2.637897977527781 6.424759355493237 8.164283210181212
Cu 6.570043638651253 3.3306645303090234 9.44588929664227
Cu 4.328476789348731 2.78715107688657 8.858284954229157
Cu 4.881497114227704 5.546836308751544 8.913843892819493
Cu 4.5294469295290485 7.92857987742829 8.074404129942664
Cu 6.486712421001627 7.4020885796254206 9.397750873184513
