38
Energy = -111.87415683 eV
Cu 6.459792300176423 2.0585790826290045 6.918895292540194
Cu 6.552185494444769 4.493864215154127 1.629614504081313
Cu 2.5891143044167317 6.122324578932692 0.845300647534261
Cu 5.38341477506587 7.327136034442121 4.382845785276197
Cu 4.047276580464477 1.2081546693110203 2.528138769755328
Cu 8.83649793692375 2.414316792434915 6.926374514662317
Cu 8.243511019854406 4.227192618803549 3.55476510190871
Cu 1.75616641226899 2.4610595297746687 2.838134852230055
Cu 0.5340288101944896 6.494591699878924 2.541093333104461
Cu 4.200064956832952 3.462743085861655 3.1330125516279654
Cu 3.8275534247288756 5.509696877903529 4.566697361952417
Cu 2.280632519676483 3.738210925670714 4.912260797796578
Cu 4.2063356667103 1.322102226112297 6.899058006357465
Cu 2.282530770947312 4.953364059265175 2.825982985675759
Cu 1.4082691680929893 6.152492699309176 4.961559160030642
Cu 7.529005366317827 6.390482704910523 5.177724113476482
Cu 7.313218985000057 4.162332629792136 6.138341687160031
Cu 2.8850886132383553 5.171920650834962 6.908349832415504
Cu 4.717780190286989 3.363289448807537 5.608756953564982
Cu 6.464714373768743 2.3901893322042516 2.8639801324942273
Cu 7.765359609458991 2.127888222452218 4.822535630196341
Cu 4.679594007618436 4.9685737107802455 0.11855584903168843
Cu 3.3518136500272955 7.411536937555684 5.86464612323
Cu 0.49476791805892634 4.340973482066635 6.407193128134058
Cu 5.370693327436534 5.718654950863301 6.457093471932287
Cu 2.9758792279885595 1.406885793438295 4.782773648275948
Cu 0.6056762883523638 2.1392582571002565 5.159562800353509
Cu 2.306432541174387 2.7483105235451495 7.0781845880031735
Cu 4.649220174823273 3.661298243766529 7.917666556966739
Cu 4.703758957375151 6.086433233559721 2.248053743768264
Cu 2.8412359099361613 7.361967980169456 3.284370444489296
Cu 0.6060626262327535 4.352543450398475 1.2832875204617102
Cu 0.14705074773248825 4.261411154354052 3.8048656067418913
Cu 5.151153687962331 2.653182751338614 0.8428226153169889
Cu 6.066712173286554 4.79366823352334 4.079345105754461
Cu 5.423478975384647 1.1689066430804624 4.678070026773017
Cu 7.1253535721456 6.548099752218145 2.7736941948431313
Cu 2.8846886155890448 3.492476497751116 0.9025062420769251
