30
Energy = -84.45416452 eV
Cu 8.408856918763675 5.081268754613616 0.8996672008110592
Cu 6.241476205577442 6.075149674215916 1.292643201848843
Cu 4.567660033444762 4.397812135845854 1.539700226828774
Cu 8.145146570605634 7.498376529363982 1.1949313805878403
Cu 6.897499385534546 3.9372599585661554 2.406573391030543
Cu 6.504595058538117 7.9041640986031405 2.938666378899222
Cu 7.975216349111116 5.93633182213194 3.1475769241400915
Cu 2.958477557518511 4.4636589544947585 3.3722014679097034
Cu 5.0365119616575935 3.0185672127581915 3.552429867576192
Cu 5.179246888232383 5.803416594253156 3.5619860983650335
Cu 2.972908200669341 2.270504178939763 4.806581664261565
Cu 3.1256217855913766 6.483949681846129 5.035433250752284
Cu 5.020607217148175 8.199270982719211 4.866584440766074
Cu 7.2744787580584935 7.060146628763232 5.10930774445435
Cu 6.793985926748064 4.436934730004485 4.9812319045561
Cu 1.7683986970799048 4.39386433106265 5.586059315750122
Cu 4.203463754922863 4.286417237746991 5.392233604819248
Cu 5.515566603022256 2.4073572822678257 5.898817714555544
Cu 5.255214608895438 6.225446992110516 6.165558285345217
Cu 1.053388940851139 2.1797007360141776 6.297982062236964
Cu 3.804441195582585 7.848106495386397 7.146251897594403
Cu 3.1617852589852937 2.963761915516118 7.2007890233195155
Cu 7.361583901465642 5.7445819486596434 7.189868596428462
Cu 6.309229735077681 8.120769001027398 7.081427651617861
Cu 3.1270896948408127 5.49079547125635 7.47343066106876
Cu 7.483132967505228 3.3145857053375667 7.135934268363521
Cu 5.282044547344349 4.097068247893602 7.6687198096378735
Cu 1.0845507625226043 4.08868229894035 7.861022786297353
Cu 5.277476961279996 6.356223303979584 8.61289519047233
Cu 6.929971398579684 4.635454940835371 9.303121834859512
