35
Energy = -100.23975097 eV
Cu 12.947399508321787 8.741006450289062 2.4244080194141375
Cu 10.233273989869812 6.5337718046201845 7.15152077928738
Cu 3.966086275111393 8.200305691514403 4.313059782165206
Cu 7.83486320666577 9.402622529806987 5.44049744864597
Cu 6.743618839764363 8.177625584659388 9.338817489304558
Cu 6.853203535759748 4.5504939030304525 5.8018935151705815
Cu 6.365310246493556 8.085368039158253 4.052590372210762
Cu 6.972462108928546 10.194284413790498 7.584661099280843
Cu 6.147379455329013 10.63714023800836 9.772941301429356
Cu 8.547819597222805 9.585806172815934 9.831265676190089
Cu 6.729410235275359 9.258493664269276 11.627001816882997
Cu 6.2390474409834535 7.797367033327809 6.949052884476476
Cu 5.2351587277167155 6.19620281242012 4.99954681926287
Cu 3.8757304193225406 7.505018782759896 6.64156434182876
Cu 8.753487119051476 7.8725675481551125 3.59820960850545
Cu 9.139782596513019 4.495932574312815 6.428164837849918
Cu 9.527076879685561 7.187170287029689 9.436819088166049
Cu 9.671747878884807 4.790040033871991 8.773794594069708
Cu 8.096085505014685 6.850902160276367 5.724630289660875
Cu 5.7249572341177455 4.989506798816872 9.579846819345432
Cu 10.113641161224175 8.420710399260951 5.584535686658562
Cu 4.494774190933637 7.0117656178132535 8.998037067702874
Cu 8.694485118000399 8.496137530488337 7.596226820829611
Cu 7.364406446067543 5.768550679237797 3.7403043179385715
Cu 5.220794685957632 5.4450063293608695 7.307845661754803
Cu 10.079167384471301 6.007090756919734 4.69520767725208
Cu 5.318211312917203 9.66591100999697 5.720791189888149
Cu 4.686142102161333 9.376054293081674 8.157674662722075
Cu 11.177131855264753 7.8345820612390895 3.507898613802184
Cu 7.939003039328311 5.39594484059713 10.394792767157787
Cu 4.590876209515289 8.853575739312554 10.548873469498373
Cu 7.658517169865302 6.1403728061432865 8.05021579731515
Cu 7.383938256030843 3.803323210028341 8.112728743563126
Cu 5.9446913145964775 6.8072225070541155 11.168381905193396
Cu 8.318540728147633 7.548446626459547 11.436953080338784
