30
Energy = -85.29322063 eV
Cu 6.271661129528969 4.06695436487263 1.503735369812519
Cu 4.577891276032203 5.4452157330712305 2.4759002649178563
Cu 5.007257840831407 7.536840212510837 3.6335505415058953
Cu 2.7185197941911095 6.819439624228641 3.397772122952496
Cu 4.596220702134327 2.985881181903646 2.9582648742145077
Cu 6.907669563510692 6.0419840167882946 2.8591270383957146
Cu 6.824854808771229 3.763801317115554 3.819721426159261
Cu 3.0932422831605413 4.5331343295288145 4.146171610810545
Cu 3.1623769968435913 8.648820195450273 4.989290124689157
Cu 5.681035798534572 5.5989266854832875 5.062277009928575
Cu 7.319719327303265 7.710789931568801 4.62037911345239
Cu 5.317714007346186 8.073326188908549 5.994726358715601
Cu 5.0447397998515315 3.105790773866236 5.35266336998828
Cu 3.391664511173751 6.3979745684984115 5.701004629462856
Cu 8.328347230105129 5.4888297775665436 4.892840220255329
Cu 2.9199339121568197 2.2614936246486925 4.780319581384906
Cu 3.188088799239573 4.111486519792622 6.5304096062944685
Cu 7.111403376967558 3.9522966526336125 6.314692547377402
Cu 3.521015786280561 8.015683054209356 7.541972770027596
Cu 7.078529546134372 6.519395615895579 6.896407852009974
Cu 9.243805242185141 7.401664197857097 6.1678648579661575
Cu 7.494289921097987 9.00365450255049 6.72559280556974
Cu 9.072131144926379 5.251739236411169 7.4056190261895445
Cu 5.140235657496525 3.392071314033382 7.762702859778275
Cu 4.86170945306285 5.848143979246802 7.673466530634351
Cu 5.825411937056628 8.233686916214769 8.34990738185711
Cu 8.376669969196627 7.605369645885488 8.5714094637788
Cu 7.042420681508584 4.521163074518026 8.63403966622752
Cu 6.485133579935782 6.475095215151079 9.780756371251261
Cu 8.805661034802098 5.597858944907729 9.827239033989938
