30
Energy = -85.95965186 eV
Cu 7.450706975498344 4.106478797885415 6.885403317939071
Cu 9.199983744589222 5.754153956245952 6.370025047537688
Cu 7.483315901639766 6.245242932242341 8.18255457522655
Cu 8.727939822046773 7.198419333955156 4.388408200935539
Cu 7.099063429026195 8.574416072404368 8.731363727973399
Cu 6.341057138243755 3.0848846388236475 4.927454737552749
Cu 5.555946557184719 6.86668788976165 9.508642144864114
Cu 5.689832327727258 4.516850884766412 8.689267905730397
Cu 5.577729097920076 2.4990117820858972 7.235975312126777
Cu 3.7480432371170584 6.0572829648148385 8.028417164049502
Cu 6.914850841789989 6.2604465013972135 5.769181699218637
Cu 6.494488330641413 3.836184146360085 2.6344806455512826
Cu 3.446342936276652 3.6669252680941304 7.771027594307109
Cu 5.1060731040935785 4.801640115990758 6.364616469936019
Cu 8.417532528761752 8.049174939280283 6.724698102965002
Cu 5.385102976615796 7.718676619303792 7.203070519580139
Cu 3.7976429964546083 2.8679982947828564 5.457439938987592
Cu 6.668521561532818 9.753013562293468 6.6086537730244235
Cu 2.8358493118296524 5.240684159694694 5.817975266032382
Cu 5.351554056097817 0.9340176445475703 5.331125309909048
Cu 2.9354316231062305 7.6908659352028454 6.419484174593963
Cu 6.283522840624479 10.70905162837584 4.437505290438595
Cu 8.158684863135973 4.685111185133873 4.379631984064365
Cu 8.501148445158444 9.637183251307594 4.871674105688128
Cu 4.480841821190565 4.620457444720702 3.8843858614405584
Cu 4.591173775238114 6.854712000063485 4.94628441888696
Cu 4.493451278854347 9.342471769469801 5.5507164781605685
Cu 4.750287088955691 2.248835453948228 3.300189299977253
Cu 6.415550541400146 6.144854930883915 3.381645197278618
Cu 6.50399190623401 8.338881492662598 4.52319539031828
