34
Energy = -98.37906238 eV
Cu 8.040817479090004 9.08478444346218 5.9239855108247435
Cu 6.529328442974134 7.91282532318737 7.642831487322227
Cu 10.097778418573023 7.914757299634891 5.17369572393134
Cu 6.687037475565863 9.66030697340981 3.926597957148886
Cu 5.240659860359314 6.578297365315487 9.18273178557549
Cu 8.727684741251203 4.257750632805626 6.451322680222276
Cu 4.0504259044316 8.158538067193481 6.755068596020204
Cu 7.053528169035701 5.408839690385678 7.928818287147438
Cu 6.122999006305357 7.557203849182972 5.288601283264493
Cu 8.142589460617474 7.6715325285861224 3.825755853475579
Cu 5.7371531284850725 9.838581215769315 6.207158891801862
Cu 5.638792866658946 4.195212455563083 9.518987446391439
Cu 3.640886062236627 5.439858287407143 10.545280520529651
Cu 8.3677506376634 6.738415272943689 6.401290129258109
Cu 4.889753295047614 5.914204581897796 6.82713589100625
Cu 9.356189650848375 5.6543588073269415 4.475411299947819
Cu 2.938965325592258 6.746739954840475 8.478963743531159
Cu 7.470665111942446 3.045917990158553 8.207199401463136
Cu 7.124784841908486 2.503543833569302 5.784704737142245
Cu 4.366552643984011 9.002240116624236 4.29723216801839
Cu 8.421560694985036 3.5062811648200327 4.02542447057937
Cu 5.334853513834866 3.4352425860647453 7.151826865401262
Cu 2.5351677124257836 5.428816104891849 6.40883834080073
Cu 6.685668254447888 5.088769768855646 5.2893296898630915
Cu 3.467343197373681 4.389974028417882 8.43644253883024
Cu 3.7873770529715665 6.6709545440976745 4.691850080193409
Cu 5.95405979583332 7.581039953475517 2.804926578328636
Cu 4.816467778034549 1.9413624656808497 5.263687234495061
Cu 3.613310068940656 7.514035424586196 2.438116502924171
Cu 7.336980056860012 5.469065572171992 2.9363395382744923
Cu 2.98699682090766 2.956666022208096 6.551742175843099
Cu 4.867408080874107 5.40512772805407 2.9006228796288416
Cu 4.199241572889727 4.263755015344807 4.961309944760528
Cu 6.048210517741257 3.350153665069195 3.6172786737315015
