31
Energy = -88.38622485 eV
Cu 8.50900532245846 5.143659670468668 3.776000711236389
Cu 7.606512712055991 2.990340677498494 4.576655446636908
Cu 6.252286058288237 4.468069998448647 3.0935467991075187
Cu 5.34801736042763 2.375793654214306 4.064555481332601
Cu 7.037770113474094 6.788110638654628 2.535835511898926
Cu 6.765870909564081 6.388871325415835 4.86371558943502
Cu 4.6685409516847 6.357392642839656 2.846451893588378
Cu 8.280516321647065 4.753416247858512 6.223275540184554
Cu 8.342595850677686 2.3034936194105726 6.765023296809362
Cu 3.8579454696297013 4.344756170004729 3.924004109647906
Cu 3.0977197341964136 7.968847870872957 3.785431880561664
Cu 5.957418299505842 2.15879935020958 6.515878753976805
Cu 5.663947436388376 4.355769257455384 5.603610920468966
Cu 7.960034698143413 8.399493938047568 4.26620907840456
Cu 5.506485010879068 8.385492241588846 3.8886116132331208
Cu 3.6802512486235104 2.7328182200510494 5.831160277325351
Cu 6.874850648217232 3.8440613222212145 8.065628330039006
Cu 9.307433253992237 3.8566680655270664 8.298115061527236
Cu 4.3574993998699165 6.537909618935281 5.308885159950772
Cu 2.722520600447039 4.930820605757263 6.101413384844599
Cu 8.431661225973498 7.223964989105631 6.421336459411603
Cu 8.176764730449582 5.9239461709314485 8.498877157861852
Cu 6.414423898785783 8.615780512798787 6.159720627081836
Cu 2.115010933391112 7.348015411728657 5.970512532228035
Cu 3.992943585056551 8.96425804115747 5.87970283861882
Cu 4.50270724585185 4.20987570238807 7.699356501039193
Cu 6.054748438597038 6.232088439223528 7.327076588135199
Cu 3.5675986540704856 6.528221312515585 7.781887194653869
Cu 7.32980099675567 8.184528533830749 8.379277188262726
Cu 4.971690852363559 8.498880015617486 8.120395959701964
Cu 2.614288625717959 8.751405327550406 7.907921624744541
