37
Energy = -107.89584931 eV
Cu 6.555534353119664 6.344798588051792 1.5265219587676495
Cu 3.789137793614163 6.24251412244444 1.1080023462938486
Cu 5.020926854641221 8.442986828581668 1.7698294392406435
Cu 2.9437003105277055 3.6389288161379483 1.3737576540733005
Cu 5.223766400908219 4.419919330390214 2.0930506492388523
Cu 5.067809190723975 1.9180964810651313 2.030086072601883
Cu 6.87470846416294 7.996978327430893 3.4224300230870033
Cu 0.36675434822420416 1.30930182120279 3.9712771170865344
Cu 1.3186058131069929 5.7695581750695135 1.7115412873250149
Cu 7.103063043332939 5.3175489351419 3.8376249912444957
Cu 2.566402688359163 1.3127475717496444 2.6245239754124663
Cu 4.964617141145745 6.6583574791540805 3.2617980991991598
Cu 7.428373513894861 3.3689475115329652 2.2185520683923627
Cu 2.6679451028621326 7.684496578561404 2.8988779921302754
Cu 2.9776231295006035 5.323243438006015 3.232287644394877
Cu 7.0792972559878615 1.0708611829955408 3.4381011808802637
Cu 3.7168767124998023 3.1217288707388193 3.598618386738465
Cu 1.2154315035846166 3.572234833345906 3.2954078492609766
Cu 4.584097275236778 8.761559831541195 4.253134948743077
Cu 2.26403587024158 8.761559831541195 4.641814793971025
Cu 4.59087283506878 0.8785620978642606 4.303333818229959
Cu 6.028971861506931 3.0118228337128663 4.099991778578783
Cu 2.328808790450221 2.0367958660980685 5.085993767295646
Cu 4.7795726925462505 4.909246983372998 4.834929966700595
Cu 0.3262215881806112 3.2629208954551943 5.618957343067726
Cu 3.277602280796569 6.851075806077418 5.238933408151327
Cu 2.4569995997640572 4.483276421844035 5.62207625077895
Cu 8.287919321071493 3.023500876081862 4.623272248533752
Cu 5.902252462014768 6.88075103987991 5.563036954705158
Cu 0.8782117351502801 0.7826561875359389 6.429318652433962
Cu 4.46208957476777 2.9032250947557117 6.2383376194586875
Cu 6.480149232011996 1.5395438574582407 5.905693195390924
Cu 0.962049384344741 5.9383298267097056 4.299274789373107
Cu 6.67636577934031 4.211245032076617 6.165874398879412
Cu 3.58876814127408 0.6440390001562224 6.579345075693214
Cu 4.396480195852076 5.281847143795577 7.09658105368507
Cu 2.2257982576635564 2.7438629893473943 7.365651698442519
