38
Energy = -111.83242266 eV
Cu 9.401559645298539 4.572771242792086 7.40351975190565
Cu 7.395753971223508 8.126717545613877 8.378219983874756
Cu 7.682107909186211 5.686862660432915 8.852305849218832
Cu 7.204424182053934 3.621221995638481 7.590885288573988
Cu 5.670689117889996 6.985458677349132 9.62666085148757
Cu 8.429350640654901 6.702271787391304 6.684978881526038
Cu 8.547853483649162 3.2757979754829925 5.441585124217758
Cu 9.778694667042704 5.487426931742587 5.181057332436843
Cu 4.999420913878439 8.582196627894394 7.7499550292673645
Cu 5.38929359990833 4.6457997167167395 9.055000012247143
Cu 5.019634726858138 2.3859749426714174 8.010789508647358
Cu 6.956066662444002 5.073752939868968 5.253515638283279
Cu 6.17080496739242 2.396891014861214 5.738470448455392
Cu 6.011608925980191 6.482015090408451 7.1169982453218275
Cu 3.745135443223731 6.367948010221096 8.240567429543344
Cu 7.945130714546953 7.0809532691009105 4.1579075962985526
Cu 8.573608887981718 4.778987680066089 3.2940178296440488
Cu 3.024433461880683 4.001740783481888 7.872163268576325
Cu 6.890193823972064 8.486042653791667 6.021198154742631
Cu 5.0430572373635885 4.36099401678091 6.705011462738315
Cu 3.667780208395568 2.4442551426208112 5.918725769058201
Cu 6.855439903354875 3.0731653299428765 3.528898178846129
Cu 6.682371531770394 9.287439696307612 3.815487485282021
Cu 4.778769726388621 1.872314242269806 3.7622548160261795
Cu 2.884316184601852 8.099010442866243 6.658846073258652
Cu 5.448142863478783 6.961307742932834 4.499627903423889
Cu 4.639309954978781 9.185323953668263 5.300105080586298
Cu 4.684757197960732 4.330331840400134 4.355902794669782
Cu 3.3470002168104727 5.875862773138078 5.879101708383026
Cu 1.827517906572714 4.006982254555518 5.707427490730867
Cu 6.310130458784868 5.284232766517126 2.7106530526436834
Cu 6.476329855513887 7.589368599166095 2.137684462101764
Cu 2.966944999816688 7.611746485810996 4.2402583499832165
Cu 2.5765902046002807 2.824309208312169 3.7332656698743474
Cu 4.231910923385822 3.887655811383143 2.128619404219378
Cu 4.518382352308213 8.83989077635273 2.8410197202458414
Cu 2.5007541082231914 5.240459526802153 3.6318586489874436
Cu 4.217569362340028 6.438332924583886 2.397794281837825
