34
Energy = -97.69149939 eV
Cu 2.584465393732436 9.000873545752109 7.620590943975753
Cu 7.615671764253618 6.067183485488271 3.4786981445976757
Cu 5.621350067840428 4.660975947073109 3.894575715230771
Cu 6.100311828418015 4.451177435683823 6.314549322769157
Cu 4.060853015113005 7.748398414065371 9.20661791931453
Cu 7.1460161805903955 5.141230125715925 8.453432258248954
Cu 9.177109763820471 4.26399223344783 9.331965771314234
Cu 7.232440401183255 9.173187554438407 6.668915332735204
Cu 9.534310511338777 8.891787550494099 5.896836447920808
Cu 9.50609568534088 5.351707272236185 7.1885074999529115
Cu 3.533091087435416 5.334143679925475 9.335200195768016
Cu 2.6811513439944243 6.597836145674047 7.45282591382704
Cu 10.501894570440648 6.341134536591551 9.155609589262749
Cu 8.39252412843079 4.513825706373947 5.1319578133677135
Cu 5.783964330185534 7.5152209634134595 2.8929089113304474
Cu 9.532488524856738 6.651992151041029 5.043369289172289
Cu 4.901982397231318 8.67807614812263 7.082994553049144
Cu 3.7893464047657752 5.23648516801739 5.6994844859103075
Cu 11.036888952838153 7.277929459947604 6.920273778534447
Cu 8.096469070152484 3.2962549010289988 7.2115323618275
Cu 9.00517384682897 7.955782455232226 8.102211206470006
Cu 5.0792793241353404 6.183754084416242 7.634508558831635
Cu 7.493877237799885 6.672045366394836 6.483796871594863
Cu 5.716252762419064 6.147010230920512 10.132790153404468
Cu 8.23255506387433 6.563103776660572 10.044385397731048
Cu 5.520862195762477 6.803344591963223 5.165976139424392
Cu 7.654397418801458 8.257262104442715 4.433427726434412
Cu 5.416901559964743 9.20275620287053 4.729754119073444
Cu 6.966633201777642 2.6444564552855385 4.995294568610493
Cu 6.624373088822804 7.842807059297902 8.665641151479901
Cu 3.6033036286828937 10.30946395755127 5.8575335703250495
Cu 3.7833094234573603 6.294247160865098 3.529179567037585
Cu 3.2564546570273856 7.863633531377943 5.421718335680983
Cu 7.653202440638212 3.7443141145518957 2.889557301049364
