30
Energy = -85.44072639 eV
Cu 8.221795143806364 5.339340971412055 6.326572229474137
Cu 9.98479384939088 6.422127090988275 7.598078104486733
Cu 7.0983554050278785 5.2368840047059635 3.755129477662668
Cu 9.217218746440032 7.412976759534824 5.497926259271371
Cu 8.353034199321678 7.265840606475802 3.2752189029284957
Cu 7.419208212145184 3.2181941020251283 5.227705847351041
Cu 8.151212745519867 5.464959046206169 8.86849158929914
Cu 6.936123649247625 3.6550056758827716 7.749101578245636
Cu 5.989653792782447 6.223996190381155 8.113803103484198
Cu 5.874325938057055 4.875271793093441 5.964095333619375
Cu 7.860409626760885 7.594296418523374 7.505956419451672
Cu 5.966043437786183 7.500218023305591 2.868363959900629
Cu 6.7403692054744635 7.250322891901273 5.281635009517127
Cu 7.348609771874313 6.028178044684813 1.4550133167005563
Cu 5.269033060433635 2.5230961012600632 6.183222987286542
Cu 5.961055183850535 4.590669896075834 9.836139515070146
Cu 5.219478600557665 3.5670836393792564 3.8984752972764865
Cu 5.553964368878453 8.402724699396492 7.062372144113605
Cu 4.691603949563249 5.984169609026473 4.289015962947688
Cu 5.091851573829298 5.27277350473156 2.0281327260432884
Cu 4.440114602017868 8.258672298068454 4.832372240336043
Cu 3.4888764937233665 7.1634576026036445 2.639247894086584
Cu 3.804394049709337 6.0144788272121374 9.168006054862936
Cu 4.470164681080265 4.131331325702431 7.894512900250487
Cu 3.4732414520791015 4.190490738224297 5.597438217408264
Cu 4.029391641242069 6.558101282053196 6.7069093884856406
Cu 2.889204353618042 4.767631264567584 3.246209129100586
Cu 2.416006430719121 6.648254207008996 4.862660226844106
Cu 2.1910116383716245 5.141011140979153 7.436819667651701
Cu 1.1581962226005538 4.63991644529455 5.268652185800205
