35
Energy = -98.57067713 eV
Cu 9.940483898022077 6.9182954898816496 3.657495612949792
Cu 7.392786978282418 6.475189888152222 5.995268477458458
Cu 0.9269561496471315 6.884405332450773 5.609457040734408
Cu 5.842473570048664 2.4577079996558346 5.94124063363363
Cu 8.972143994995783 4.813557925406535 4.689539574949128
Cu 5.836243973833933 8.61820856586353 10.212294689370513
Cu 7.816524852674996 9.638878344548077 9.124026373796658
Cu 8.920876398736146 8.070218733185106 7.639205904578395
Cu 3.8800582750439583 5.111543934696048 8.388760142835782
Cu 6.155043312802197 5.882841494024102 7.983709400144467
Cu 2.4365846200458896 6.769983534789037 7.410836679692161
Cu 6.4922367585196925 8.505455781949996 4.879427834017995
Cu 7.845190331913438 10.099229691358488 6.677127261452843
Cu 4.898581737846684 4.680939647995853 6.121388295691927
Cu 7.844611044419681 10.515372319027772 4.296945547062933
Cu 8.24148418868683 8.618022330354165 2.8884717457583395
Cu 5.292999642468293 6.146419606910775 10.27751529315132
Cu 7.560669683360912 6.445275546605191 3.5514289761088254
Cu 4.336432537631969 7.682752215260917 8.620415439316467
Cu 7.543586284556307 4.007687863064604 6.744371343389799
Cu 2.7692558914180614 6.58838735055531 9.94216881660996
Cu 7.607232258585401 7.1576586929030865 9.652637951714409
Cu 8.948240975013702 8.501581292472917 5.204478468164754
Cu 8.76205069338323 5.652763300286798 8.047190347001711
Cu 5.249430349130929 6.342791819170507 4.1621925696768285
Cu 9.311603430351674 5.646402627670422 10.365951982787053
Cu 5.653638654038886 3.463634571720503 8.180018365360773
Cu 7.27031329075937 4.5655616340715435 9.645418118124672
Cu 4.776253849449807 7.1953653639238455 6.314356175768814
Cu 10.018452569381035 6.4931105654415315 6.0869449509161475
Cu 10.061002316680518 4.135564263529716 6.727144728988948
Cu 6.622199349678097 4.307231865972248 4.457332061232954
Cu 3.0449339025046567 5.970899373486185 5.1766358748883965
Cu 6.437510056697056 8.39078317054773 7.610382447944904
Cu 8.552341475990183 10.779492760269692 2.0392895194575837
