39
Energy = -114.14270193 eV
Cu 4.20453238412453 3.610886412241237 1.6966574093265694
Cu 5.3154814879000805 5.682783675197469 1.9889722998487893
Cu 6.114590321199708 7.879771853828375 2.27041947202657
Cu 3.775151536019816 7.3205675097142375 3.0803169641639436
Cu 6.735204923080873 3.6760485226568163 1.9686272518469627
Cu 5.180561587974588 1.5235192352649887 2.1213278079871514
Cu 3.5524715060541325 4.981203602505191 3.6319360254707767
Cu 7.644659029090741 5.959896377837642 2.7590793192845346
Cu 3.256598171309568 2.4254173579589002 3.628567965693523
Cu 5.271909906609914 8.78292301208066 4.310186683976438
Cu 5.860379258189999 6.112711537035397 4.450921266770781
Cu 7.168479222944847 1.7292610832863706 3.4935120334956284
Cu 7.617703573034434 8.146709095082102 4.149939317707156
Cu 5.423908642198735 3.456251137060946 4.045300360855429
Cu 7.835124178482448 3.9433959359354787 4.212142317434058
Cu 5.0754480020468415 0.8269092062741592 4.43364469094013
Cu 1.8097340642639006 6.283585127430496 4.591723271530696
Cu 3.787478078502627 7.2039577248276565 5.534590669935376
Cu 6.709459074254521 9.158318204494512 6.25399782175981
Cu 6.555270468207087 2.2180761558701954 5.845908832440346
Cu 8.34302699746898 6.10187440740273 5.163059609336446
Cu 4.280735986196182 9.39499058316192 6.4021956896222205
Cu 4.010238805970335 2.3351239640703976 5.975094556763186
Cu 4.455547825292076 4.794601413704153 6.090066994864235
Cu 2.1837255691193524 3.9393902741841793 5.384804369206674
Cu 8.943224511919384 8.166145969297311 6.23403867146654
Cu 6.942574975221457 4.539711228294069 6.405745559061033
Cu 3.775169618330956 7.607385125420314 8.006307272174274
Cu 5.953916551743683 6.807948291719187 6.9335377708617925
Cu 5.370894872118237 3.2008504157654034 7.814451815248194
Cu 5.518633399197059 9.297627032521484 8.470261463825693
Cu 2.3421985377919925 5.8424130955200315 7.01530826983465
Cu 2.872643696140434 3.548473508159878 7.743853560091841
Cu 8.494141565365377 6.119767384630242 7.580692128181049
Cu 4.295173172413007 5.321706116119814 8.563076850941721
Cu 7.664366717696755 8.249650410454342 8.349003968356138
Cu 6.709081284838007 5.00821918437775 8.800799043084135
Cu 5.749059554314381 7.118906979869384 9.4898892396154
Cu 8.101771223388267 6.583292128759864 10.01031166498491
