35
Energy = -100.49636447 eV
Cu 5.263604994011218 6.260783910792836 5.3582679673937115
Cu 5.347317397492267 6.956576408487003 10.187392869579634
Cu 6.771292590342288 3.119582697029953 8.707926747707186
Cu 7.535341274585711 4.977534183847595 2.916430589263563
Cu 7.688400601037918 2.830505742789332 6.497399579082191
Cu 5.230320563088137 6.712904927647597 7.806982473057711
Cu 5.234774115855969 8.406208154831358 3.9850543456415948
Cu 5.181735776648504 8.840073037782053 6.5645443289563365
Cu 3.745602108396436 8.562096790765937 8.58634351425908
Cu 10.435625267739889 5.898099236654518 5.827945684243194
Cu 3.2109672601411012 7.14329944802333 6.571238202988522
Cu 8.421436818870431 4.867066073207293 7.8722460642221455
Cu 8.120640119542257 9.086311159794883 7.4372140419933865
Cu 7.541461173683233 7.188198114190957 8.969837330602903
Cu 5.149645191314731 10.663659510007795 4.9559441494984835
Cu 4.968386360878697 4.6685583156216275 9.117987652242277
Cu 6.15119006460893 4.628196737065924 6.913732733466492
Cu 7.192973271471617 9.304942740213377 5.187985450974188
Cu 5.3674711111103335 6.133851591746785 2.9618627330049203
Cu 3.151016980265519 6.257618471890578 8.938310782703178
Cu 7.314772974235949 6.961942858353055 6.550487631079643
Cu 8.107750589259481 4.944622170327452 5.271271357412368
Cu 6.0823106444695245 9.07356958682318 8.84769463170963
Cu 9.38910202133189 6.012353873674241 9.917750698513322
Cu 9.630226304976391 7.186383016873155 7.718513506432401
Cu 7.579799805030693 7.095264201615026 11.337862300416758
Cu 10.863553946763146 5.144452711906301 8.098929426412232
Cu 3.226789754127438 9.137283548092581 5.163351743228771
Cu 6.461146794451082 10.83299938658892 7.0525044842057945
Cu 9.544805716644015 6.176226678808354 3.6143927374792604
Cu 7.121246618988758 5.052558015436246 10.139043897990282
Cu 9.955571218526398 3.612486055000783 6.377669142384602
Cu 7.340569491064572 7.105570336432478 4.034419329372074
Cu 9.260838982974215 7.946596592941911 5.389700184659762
Cu 3.298482271723575 6.915478744208294 4.082743482101615
