31
Energy = -88.2631181 eV
Cu 3.963571479361923 9.000164514372534 5.980359251382383
Cu 4.1379254687348705 3.2802301785631522 4.531351178226742
Cu 6.336965987853165 9.172475254952172 5.930700768593479
Cu 5.4896566072982536 3.8541264673115565 2.572833489119702
Cu 8.679413545457008 8.694561372724532 6.304415285612017
Cu 3.466781855716213 7.209236116525615 7.642878110916775
Cu 7.558560490665611 7.749547173560945 4.397733697551876
Cu 6.990988335931539 5.195092331188687 8.128943054426166
Cu 1.7231571995168018 8.517603623476331 6.606016924792729
Cu 5.41451815671044 6.827351588854069 9.23362132281487
Cu 5.700988802237797 6.691834326650088 6.696884286720586
Cu 8.265634605393583 3.9075064819604766 5.294693435398749
Cu 8.257199385712878 6.234303129284702 6.278691139628261
Cu 5.110583441408679 1.4969414383812785 6.093380583052424
Cu 6.422176656459708 6.219686812634273 2.53560164661356
Cu 5.749975575865032 3.8278462929125388 6.526930957257132
Cu 2.773594646857076 7.19082591263906 4.909670407762506
Cu 7.822745221937154 3.8770088663034024 2.842600480442571
Cu 4.114478224110733 5.629103805277757 3.4838440045194767
Cu 6.328769034126699 5.306349148288727 4.668416858383263
Cu 8.702845576797046 5.8074724030388705 3.8672238099460867
Cu 5.149558618631788 7.608103352066982 4.382146117443671
Cu 9.127477814220212 4.23860814258877 7.486192824919289
Cu 7.425193016061475 2.185460477296928 6.7751695290829925
Cu 3.8410434529034294 5.298215088575263 5.866106142219591
Cu 4.432617462291572 4.940106440696556 8.219357767700652
Cu 5.221186351510266 8.966717712318149 8.111989505657474
Cu 7.447620945155947 7.6966997262959485 8.13881127923418
Cu 3.468109273150494 3.1068887262005886 6.896601350263782
Cu 6.507104580923822 2.5402651533364855 4.424658461673856
Cu 7.372604816258572 10.090722149950963 7.89968364858453
