33
Energy = -94.88335212 eV
Cu 6.047028749883149 4.006065444631298 2.1663214684648064
Cu 8.01028318430898 3.7336100489868382 3.841894438382763
Cu 7.277098265266145 5.914841232993669 2.9633712569592716
Cu 9.169328965615586 6.2590272072697495 4.331872418023838
Cu 9.803476644426027 4.150914831936643 5.371328996206167
Cu 7.457853720995934 8.177345612894422 3.806955390878683
Cu 4.869039526542247 6.23956219031675 2.8783177869359466
Cu 5.949029405156154 2.230068175386108 3.8840810299240083
Cu 3.7799310267770454 3.911150552856256 3.2331335571014246
Cu 6.688134868047214 3.026093781037577 6.300353755747415
Cu 8.78941411791873 3.711305963083654 7.533284586802479
Cu 5.811093434120388 4.500002392892744 4.52588915881431
Cu 7.7151197132107905 5.224903224476553 6.0102792693002245
Cu 8.692067106447478 6.2492628519815865 8.054265760674408
Cu 5.96674700098633 6.83088455275806 5.043131052706893
Cu 8.235804909007198 7.741497805817555 6.036077643830418
Cu 4.244802375074892 2.8967307592080926 5.489774356147919
Cu 3.6786733591484184 5.613452539941382 5.009591758587075
Cu 2.5278636099180103 6.781548427742335 3.1804077755976863
Cu 7.720431883135049 8.671447752770119 8.205658435206301
Cu 1.5514285380070203 4.788568780598157 4.046612586856819
Cu 4.898565579207039 4.746766913387152 6.964421768823901
Cu 6.378756384577068 6.819184815703606 7.431515131656702
Cu 4.016379467436958 8.125095140616603 4.563739047028316
Cu 6.787798834875045 4.650392330230544 8.492793987686223
Cu 2.253114672236329 4.023573563653159 6.183419465813654
Cu 6.953753471637444 6.863929861096712 9.762307627951188
Cu 2.699006850932964 5.7214327356772205 7.749329550883481
Cu 5.97340467969129 8.942732351423185 6.252117772154849
Cu 1.833748154868859 6.8508142672885874 5.683657129317883
Cu 4.703533465611827 6.098183736729637 9.02946164327842
Cu 4.019290615397632 7.5008031266291235 6.9002158559649
Cu 5.312005962584782 8.537205516854586 8.75491859721508
