49
Energy = -145.23021466 eV
Cu 8.347112183740233 6.0097732375888775 3.7445951207686594
Cu 9.027367098275793 10.815157948631267 3.6155359732282504
Cu 8.356058752674947 8.467505680932826 3.6323496317589856
Cu 7.131998892846039 5.2497126136351095 5.748023535155556
Cu 6.346232328862611 7.668492758902226 5.221804985925888
Cu 8.481721835494868 3.6765405606729042 4.396719614558186
Cu 10.517554412909528 7.2039651149627035 4.266093413577327
Cu 9.969406739285684 9.33037228647652 5.290678128686838
Cu 4.777899286908475 9.480378996132934 5.086886497628726
Cu 8.678284017288433 7.325105391824857 5.7953953466272825
Cu 7.184805907524153 10.140519153341545 5.0488319393025405
Cu 10.760894958573784 7.4175191739745765 7.003410376145887
Cu 10.397230904287794 2.8124325780717516 5.6021204732640495
Cu 7.019752443379957 7.061366359708664 7.52558126214902
Cu 9.999195985585928 5.193335454354584 5.54220129403847
Cu 4.958553104319342 5.828038241731231 6.825098043859652
Cu 5.743822027298453 10.292434943295689 7.130071723034307
Cu 10.473291957377311 9.891272589853923 7.608589433434244
Cu 9.177846712124117 11.474354892612615 6.003276259622236
Cu 4.740371662166663 8.18262117696768 7.1818346336831915
Cu 8.066416299324523 9.399608091237187 7.177864422671121
Cu 7.478080090819238 11.851849506235446 7.639200195644125
Cu 8.517074080841702 3.482144179684075 6.8743007596347
Cu 9.024643146104449 5.739196644731633 7.6791872060821795
Cu 11.461481375249953 8.375050632773743 9.366966163676814
Cu 11.594592585103534 10.896678764730172 9.480375918910667
Cu 8.90229889663539 3.9895966173708777 9.264774479884053
Cu 4.337410117309412 8.795214405625048 9.604653824776355
Cu 6.777193964388194 4.700122179684915 8.178237026686661
Cu 3.1321557625066667 6.931926218717718 8.363101786193656
Cu 8.542539276309327 10.433865547272378 9.471329626236102
Cu 9.809567379960093 12.22667956191704 8.300964247551235
Cu 10.67553118423995 5.96692256431167 9.351571796283872
Cu 7.734349863122181 6.18615066966626 10.001245411086758
Cu 6.676602956125039 8.743506603512447 9.194462429909063
Cu 10.284343830208492 9.713068220415591 11.133333376233702
Cu 5.986981087496092 11.078465402173798 9.434450251865444
Cu 10.146654588929827 7.298450887530041 11.267269853628399
Cu 9.450449749758683 4.990819314752763 11.362421507863555
Cu 5.96953107925983 7.398978640826217 11.385900862947713
Cu 9.133896062411145 8.009022377405175 8.907925346340102
Cu 5.322568647965305 6.528628275564394 9.211408930689412
Cu 7.774409684864256 12.702553437659585 9.92387365837221
Cu 8.121355851684484 8.6109636278793 11.179142480775894
Cu 8.023347103256784 6.612873783172143 12.509861523088542
Cu 7.9656387844055825 10.960176913244393 11.840044637573557
Cu 5.849010439632408 9.788225984809008 11.42097413041305
Cu 9.928123503682027 12.095502435722995 10.794959818768321
Cu 7.10307978645943 8.851587746679984 13.289829028740876
