40
Energy = -117.85655221 eV
Cu 5.246968400217344 10.46192165387278 8.72192515031517
Cu 4.361202195443988 10.236549819165294 6.490069130857864
Cu 6.752947956475776 10.507175483734207 6.514942516932693
Cu 3.6612281590161944 8.399516785696914 8.618642863846109
Cu 7.594708459810399 9.642078101136734 8.6411658915676
Cu 5.795045156784374 8.445731175832059 9.969498864294115
Cu 5.761029631858367 8.441966664126687 7.496747025199913
Cu 5.752963109528946 8.49134824016358 5.103985976821887
Cu 3.8027804537616983 7.397131470973873 3.991861783069028
Cu 3.112730886067112 8.260427406826775 6.240635123108306
Cu 8.089156374443936 8.467941258849386 6.43068191921863
Cu 5.905707041898483 7.900465738278274 2.751584714580006
Cu 5.129584255076254 6.35117079585481 8.731283654066926
Cu 7.535480535642243 7.161202385806396 8.772155747849547
Cu 2.8408453546048285 6.075797402285558 7.877245123721103
Cu 2.111141424614688 6.198673865791776 5.444610554315063
Cu 7.695598246913008 7.170952209851256 4.1740158331051145
Cu 4.427959570264701 6.244171623070062 1.9413779133365938
Cu 6.871930198701132 6.452328798404519 6.524514622377813
Cu 5.7567015254016205 5.543035867108659 4.24612093798415
Cu 4.506985802201103 6.389538447317651 6.191089820366288
Cu 4.299047350270071 4.026923781727244 8.474665551662005
Cu 6.935840210472724 4.730640796049838 8.645697031166092
Cu 3.1659420315476625 4.162544671362169 6.193169527127809
Cu 8.992963773436337 5.554320682390269 7.647893708701597
Cu 3.3399399711560664 4.940273038686499 3.7726979753427208
Cu 9.523710484934025 6.623780011767799 5.554972991792656
Cu 7.022539417410969 5.736224996747613 2.19670075360859
Cu 5.15841991683524 4.023939002264925 2.2694154166543528
Cu 7.929660277123118 4.6171075668152 5.463411764202883
Cu 5.708538737403777 4.242017457122606 6.5104401257084366
Cu 6.309013308121542 2.4581124222068946 8.185304701999158
Cu 4.42554860579811 2.1779917609705985 6.722453392899534
Cu 4.823103580629044 3.108353606992113 4.48653943717157
Cu 9.140439861426396 5.179693015989084 3.5096446241959938
Cu 10.31094225324423 4.359668338136869 5.9326745162221295
Cu 7.14644984647408 3.462879353219124 3.4577726129864117
Cu 8.526306913753844 3.1440743605916355 7.316286171164084
Cu 9.065772861127419 2.6380857455123206 4.74331096731747
Cu 6.827300138290779 2.2463422437313767 5.6822392003508755
