49
Energy = -146.91728748 eV
Cu 2.7674558647829164 5.978739831656745 0.9800685172181407
Cu 3.5191167498957374 3.941242464866802 2.239871014089509
Cu 5.09295894140636 5.817883113213117 1.8187204532875738
Cu 7.444749088135464 5.664748197017555 2.336552139407472
Cu 3.8670650073496926 8.003774695620013 2.0177782861274562
Cu 1.415574550329667 7.447779549595164 2.50183113420588
Cu 5.9784655464884215 3.6738498220627402 2.6531117519394103
Cu 6.326650183992487 7.934968159894754 2.1324218260441063
Cu 8.297331832265916 3.432359598612543 3.3878652586554368
Cu 1.1844419585354118 4.9704616806600015 2.598448391739558
Cu 6.739616870445804 1.403669811755789 3.500267408511746
Cu 4.352116381288521 2.2883173981748874 3.857855542831807
Cu 9.512087727657187 5.576611661950541 3.6370080659748676
Cu 2.8695902314821446 8.447090240861645 4.20823936385158
Cu 5.024064598685815 9.4161714605962 3.7403281454595736
Cu 3.1741817802568546 6.075109723287138 3.4024086491865635
Cu 8.015783764257526 7.532203767232564 3.860742794438806
Cu 2.3572399674619873 3.93929521210703 4.529440845598678
Cu 4.719843522138989 4.628707982637123 4.6637240502805755
Cu 7.280853913174457 5.358247369803309 4.795288890706887
Cu 5.411662802982229 7.03200850078713 4.207710198185302
Cu 1.1591108312731797 6.28926823088679 4.778163765451265
Cu 8.54766842015473 1.681783933278885 5.265459523665584
Cu 6.568110784962812 3.0603421047482318 5.143599842236785
Cu 9.203746259266751 6.519596457338934 5.893039498289346
Cu 3.3676979484501457 6.4984357343340555 5.84523847932033
Cu 9.420329986905905 3.983812437377246 5.514440593260648
Cu 3.051497711633094 10.134115573352041 5.920602177690956
Cu 1.3808327717866622 8.361457382895756 6.083763013358992
Cu 5.07470179105077 3.162725263753252 7.067420579021373
Cu 4.833266443507054 8.581337642733503 6.058999179270874
Cu 7.073234924521621 1.6203340972795963 7.224999196623625
Cu 5.606064167242733 5.782704372679468 6.616767155269879
Cu 2.9083870882366996 4.325642187845778 6.8978974036119824
Cu 1.508232179188513 6.340729885030896 7.380707708278933
Cu 7.070038715993325 7.716384098027858 6.08360336223938
Cu 3.186543305544011 2.0880350231727407 5.967148390545864
Cu 7.428677504865616 4.14925902242063 7.169149962145684
Cu 9.82853803489083 5.008601455180587 7.685150858351944
Cu 3.1512549534925123 8.365799874788204 7.773342083841836
Cu 5.377252538416745 0.9660741136787835 5.637214553443423
Cu 9.26816762809885 2.60625905070319 7.559339289714103
Cu 3.964327760838499 3.7469664869168735 9.11103242610883
Cu 5.604394698862111 7.6434256964319385 8.201619564376877
Cu 3.727700272068631 6.076489192351821 8.397247798259267
Cu 6.288268640562948 2.815565209698646 9.186209263438696
Cu 7.835672024335096 6.436244594030558 8.033511213521393
Cu 5.943651724163188 5.21156423436184 9.026447212878706
Cu 8.263531106747978 4.2555579023827566 9.399954678117142
