49
Energy = -146.01708857 eV
Cu 8.218232613628006 8.099218782482891 2.0078837459418954
Cu 5.863706286227117 8.811664872952438 2.1265029074477035
Cu 10.694135180022581 5.9807328817317735 4.276393492661741
Cu 7.5095865738427525 10.070621782420712 3.454218800138707
Cu 8.522595315337536 6.027253493101866 3.3186537505150917
Cu 5.247932209587442 9.504185975022427 4.40067669708478
Cu 6.774539217725443 5.410053123796977 5.094863958206084
Cu 6.694486475510228 11.273881265031301 5.7702734624592935
Cu 9.013936112268844 4.46205625546887 5.408117060235559
Cu 9.508610132263478 8.559617669911471 4.039426110950263
Cu 6.833465947801695 7.5866846970169926 3.9098718160540678
Cu 3.224223695203342 8.726749479860281 5.7166025090957495
Cu 4.844536890910032 7.111195723847089 5.19947630917329
Cu 9.129287735159211 10.834483474882122 5.189089952074652
Cu 10.823017159631052 5.688544545536454 6.71663049426783
Cu 7.57757353986898 9.080126015042959 5.678764353414125
Cu 11.286437580129654 7.848356496170245 5.687296587329667
Cu 8.826436376493966 6.8788009973491375 5.667999695109206
Cu 4.986280465408708 5.234908764778112 6.872123269203142
Cu 5.309811954067852 9.41951127894843 6.803848761456115
Cu 6.990376153182912 3.7273105508271054 6.883985019356978
Cu 8.529179060539477 11.139494882624524 7.635848341821625
Cu 9.157609728367868 4.304751143824548 7.874347551226585
Cu 2.7744388271411613 6.281807753460856 6.352633964819628
Cu 7.465181181810716 9.030586774176314 8.090078307562452
Cu 4.2056355800336815 7.498327884205273 7.747994136377409
Cu 6.664584407643294 7.125436251263518 6.88377588632705
Cu 9.725016269233526 9.12744225016695 6.887022552459811
Cu 9.042270428277451 6.907084049969131 8.174903549091656
Cu 7.0273777198973395 5.453029520247127 8.551672064643496
Cu 7.500990738545 3.199290838664739 9.391665561583126
Cu 5.376145518359833 8.943524912111668 9.321530389043941
Cu 10.923663466333233 5.457168991715038 9.138872747574244
Cu 8.803274675555894 5.079929370062252 10.288153048449232
Cu 5.219859541262337 3.9103892128478432 8.953727280510702
Cu 6.139540297194576 11.141465738062282 8.259765902756293
Cu 9.539754832026766 9.268056886404974 9.346302259258115
Cu 11.294042079467555 7.7325555705433064 8.2257909106214
Cu 7.471774753226883 7.403746623463016 9.958096269822152
Cu 3.2584044970507793 5.412718357513055 8.639384594786767
Cu 9.975592408814125 7.189108342312228 10.57683060026905
Cu 6.469636475464715 4.885127278533946 10.997274977926358
Cu 5.056290804352732 6.5854261973180135 9.893419681440902
Cu 7.259827460667881 10.170775247664059 10.239636572112284
Cu 4.016180663629628 4.620964799726587 10.87010533196221
Cu 8.00405282336184 6.535985700899913 12.130916132052501
Cu 9.385940896786748 11.06850492056133 10.873561043899798
Cu 8.631302037859669 8.882806158729817 11.75448618931014
Cu 6.1420833472959355 8.247394351220393 11.658363534587822
