45
Energy = -133.5943515 eV
Cu 2.5309836300283655 4.281637050322312 7.362247086792941
Cu 2.868331199556327 2.3543206633373295 5.770145374543525
Cu 4.221630909742925 5.035799623794339 9.018279575184746
Cu 2.239278003899409 6.646279253525075 6.504493519705852
Cu 2.583614325052867 4.718223939035205 4.93439771815376
Cu 4.587017767070001 3.0005940815671974 7.62391592332355
Cu 5.126456541267874 1.1818995981327443 6.0654127824699735
Cu 6.028089758496904 5.656891121042881 10.520467934298514
Cu 2.4922617915693674 2.8680143959033315 3.3343247607995345
Cu 3.8901281893325486 7.3918794217776504 8.213346286241011
Cu 4.103294990662213 8.116051840861202 5.831084394519937
Cu 6.497803969529743 4.010129651673748 8.726013732768747
Cu 4.411171419072839 5.582886213596747 6.575009718349777
Cu 2.6407904397209223 7.057731875861953 4.0699786522200885
Cu 6.966781720313709 2.5570363431243517 6.765293634693329
Cu 4.302257274082342 1.4321369410853482 3.836920221014621
Cu 4.877140794741118 3.530586860745372 5.212092335969562
Cu 7.612120682964415 7.374950908293965 11.196697217849652
Cu 5.598612843761646 7.98758515780455 9.885396270216456
Cu 5.81729668648531 8.805430128965595 7.50782332677983
Cu 2.868881390574592 5.125604915767654 2.5048531351737116
Cu 6.211334443614043 6.418206402060465 8.098775586687918
Cu 7.859198854691866 8.21422163856245 8.937417171112399
Cu 4.832119608689091 5.82487529833115 4.17993952597409
Cu 6.1229865208111525 9.565425243570328 5.098230626455417
Cu 6.74139665280389 4.914855783852086 6.134967682784008
Cu 4.77442997215539 3.5680107221825357 2.7437055433364135
Cu 8.21229797773318 5.7459437618482605 9.45492210595017
Cu 4.747107086579505 8.248792875174814 3.4490824095299573
Cu 6.6600312339409875 2.262859855260386 4.259026476058503
Cu 8.663496073776628 4.170528292554059 7.588096040199364
Cu 8.517671418089872 6.598434061041444 7.138884596821953
Cu 8.105757058693946 8.964643625136821 6.634867222951072
Cu 3.277510652698127 7.347400979416493 1.6798065843311647
Cu 8.56259518202508 3.677380935873329 5.130949496479579
Cu 6.4288318998124625 7.246169278049393 5.5764449755703405
Cu 10.082231737611139 7.718624577365386 5.665078981789934
Cu 5.162998403407191 5.794859500754571 1.776703130817384
Cu 6.720279462444301 9.500228636099997 2.6867632626421916
Cu 6.876149111784467 4.624738782334789 3.5114558642311273
Cu 8.288735619153456 8.593771378210027 4.27096420897961
Cu 10.262919954612247 5.265214759805155 6.099566962506152
Cu 5.509487654091813 8.110207406781337 1.12015370885545
Cu 8.56553331809539 6.114071938241165 4.556042966130536
Cu 6.876543618328629 7.059304046725913 2.9832285950371027
