41
Energy = -120.86418622 eV
Cu 9.463976803987022 5.182432596536855 6.1375947550031515
Cu 8.405916904542291 5.568919808079534 8.31949363266208
Cu 10.212066145105084 7.03379003646611 7.629572685544459
Cu 9.116338379198087 7.338236883236755 9.888446454760178
Cu 6.884864945526177 6.346638911672041 10.055897791019987
Cu 9.344348922196994 2.712212168912638 5.781709323635947
Cu 7.475307071312964 3.971901824015418 6.711635699095156
Cu 6.173630872072144 4.425483021532042 8.693596717027901
Cu 11.1591673751902 6.66034940947739 5.309696667366856
Cu 10.688421061894267 4.232824183951195 4.324728140742093
Cu 6.641024469148412 2.346996573906353 5.111541741707655
Cu 7.085269420199343 8.77126837557678 10.07775012344853
Cu 4.604028364312489 5.37599292667883 10.229857404106557
Cu 8.915481979177795 7.630065257045576 5.6790913909095355
Cu 5.5075992488000995 2.4675974371169107 7.24006495063465
Cu 6.302933615719095 6.636438405538663 7.4556625519909305
Cu 8.088494957645182 8.271517519718767 7.9156784491530185
Cu 3.8691700152864 3.6549369070051405 8.54536485810795
Cu 8.20520530863071 4.01439762503305 4.165608820639317
Cu 4.955968784911739 7.69882869378262 9.466532881399084
Cu 3.861438524684817 6.046799140509481 7.981041133471591
Cu 9.329357291679242 6.182867851721078 3.7619485030232642
Cu 7.00977025570913 6.052994876774856 5.121991215926024
Cu 5.138143874711198 4.698413686042371 6.296920948642694
Cu 4.142412619206458 2.815795568807215 5.164540964206725
Cu 5.895104227210549 9.391843950633069 7.965420899739698
Cu 2.7045828895914643 4.3640622234185535 6.504079296049573
Cu 5.734662143815873 4.245823361889063 3.8719326857643313
Cu 3.6768542186868354 8.438252584156118 7.5130274363421705
Cu 7.32853073683415 5.5959701897793215 2.5275635584198533
Cu 6.751338354047259 8.659638018401669 5.815244426895729
Cu 4.732009212434937 7.13124629226449 5.6544721955237485
Cu 2.3628440288288277 6.779677318661476 6.061740563724021
Cu 7.50683850853114 7.873963195661089 3.554417687852601
Cu 5.295552424644346 6.635297399168487 3.264965190825149
Cu 3.531197445576155 5.301718714941101 4.407205705920895
Cu 4.653281055546428 9.983272887738849 5.881455627746168
Cu 2.334410206909058 9.226909471118244 5.650269240450347
Cu 5.363564633093814 8.999370782089324 3.781693783037393
Cu 3.1776478486572826 7.807269000017728 3.8629061938517295
Cu 3.3774759935748144 10.295230850572986 3.76144863086763
