48
Energy = -142.86309756 eV
Cu 4.0011674818262595 4.408394973355131 9.993607429878232
Cu 3.4011676651127933 6.304151273816886 1.3073911248466288
Cu 6.485992300473449 3.362511447255209 0.6967476925579755
Cu 5.869157297599286 5.864736635728725 0.9482151730136535
Cu 4.471046675212622 1.9859389252188846 0.7137986816992926
Cu 2.0038535254065453 4.210690230927003 1.4567833854874745
Cu 8.296346389029221 4.9851771921784485 1.356225678632864
Cu 6.746732509737454 0.8768122680032222 1.3963019011066364
Cu 4.369740015175846 4.112440870246178 1.9782434329229555
Cu 2.029202843716942 0.454861589505427 3.863180614338545
Cu 5.034822080145299 8.066660653862536 2.124496293105161
Cu 8.222293285123543 2.6547318588221716 2.5469924241700976
Cu 2.676971814340301 4.831545959387271 3.763983097273617
Cu 2.921901642018481 7.367377734668935 3.5568010412048965
Cu 6.610046995113684 4.4155507419705184 2.8834654143330227
Cu 7.329661211324806 6.751477807333625 2.8676832626919557
Cu 5.667125549320246 2.2389662271746347 2.9208931778800045
Cu 4.4665315298349535 0.18165702110098078 2.5281999662761168
Cu 0.8755353797943569 2.830823166723837 3.2725285628051592
Cu 4.875397921817354 6.065545726339221 3.302448762307263
Cu 3.157401473809659 2.2461245410891375 2.8034224217119865
Cu 8.789177329158733 4.8063494206200446 3.8913396368931865
Cu 0.3328876952583618 5.358694135503621 3.495463069928402
Cu 7.261214616660014 0.8854328927727573 4.027317826466432
Cu 4.764341775501413 1.0905660449276378 4.818443527206125
Cu 9.07129717351899 3.5458335241795287 4.526366546014051
Cu 8.347678930331805 6.881569197186154 5.217262654381181
Cu 2.6780190151347396 2.3114850996037073 5.191986626900286
Cu 6.504505290631096 5.449579020813908 4.998311449960919
Cu 4.695928502241435 3.7839619558502786 4.595713666183896
Cu 0.29469823743919166 1.6545344299504743 5.388697786822303
Cu 4.2350178415228745 6.421101638640517 5.625153806128855
Cu 5.957459878280841 7.877597733758891 4.567944782861028
Cu 0.9786273528716338 4.00774419122596 5.416292722572145
Cu 6.594603506922967 2.6893625017324387 5.618501641721694
Cu 8.908506198184732 2.5770873686794076 4.921664716132435
Cu 1.7674673388018227 6.361721331130127 5.54925974350525
Cu 6.375983496515756 6.892759202325094 6.8691713560784695
Cu 9.552629425582676 5.646901144682627 5.767153116160808
Cu 8.172234845746635 4.506697323918018 6.352665158118892
Cu 4.376179377297747 2.358350742943795 6.911833715032251
Cu 3.113243254190755 4.397665867093741 6.5119426141455605
Cu 9.598981992866605 3.3409154978011184 7.005900381521188
Cu 5.5272331530041034 4.561851612905819 6.990569128555568
Cu 1.7205625020580406 2.597843147349697 7.411883883046583
Cu 3.1901185200591997 6.392611665534252 7.783658129133452
Cu 1.0136000575929118 5.14270704294338 7.633266460808358
Cu 8.908506198184732 5.398377487941884 8.05813463839323
