40
Energy = -117.27684687 eV
Cu 4.910261885803964 4.659177903848576 0.13004189332327515
Cu 3.6355496582986073 2.412388029072806 0.5416932974609796
Cu 2.2362764661638725 4.651681235857918 0.909421974079854
Cu 8.262250709626864 4.394178234069214 1.2360524293042159
Cu 6.238531098271568 2.825082609699018 1.4586066454442772
Cu 3.921637728545267 6.355751970045141 1.8119769126984273
Cu 1.1825828961283078 6.730662027740041 2.2334756030325815
Cu 4.147333194676667 3.915932684195209 2.186909601911711
Cu 6.274434420403002 5.322004937814006 2.1880235654575557
Cu 1.922838383078592 2.641987104948267 2.548933528675285
Cu 9.801166269836337 2.1446402970855614 3.9741307329998823
Cu 8.542291902205486 5.809685949119872 3.296855445433501
Cu 4.2139603550180755 1.4656540210041564 2.921641672620058
Cu 2.3412971549559627 5.0863983106321395 3.312951106616419
Cu 8.107616721125948 3.3582922562075392 3.410354511294654
Cu 2.140105423796535 1.3228827444938438 4.73540902116304
Cu 6.740900275023669 1.1449653189375022 3.7466366489645604
Cu 5.754023192058804 3.205600613431354 3.8220749892161314
Cu 6.309978781134045 7.229679697710321 3.874297672599692
Cu 4.605657223288096 5.54542835402444 4.059983670998917
Cu 2.8740773231488195 7.274757970270438 4.095535813177634
Cu 1.2518020988336036 3.6810854241358197 4.93929063988093
Cu 0.668224641466713 6.076539089173687 4.802741365766037
Cu 0.32589340374384423 2.2400052924469986 6.507609949035385
Cu 9.026352300380998 4.092736414380841 5.3656425608529865
Cu 4.849281191694651 1.5539550134146876 5.506648003133914
Cu 5.318980286376916 6.499978253561074 6.249711730488894
Cu 9.026352300380998 4.627299757657242 5.49350657278948
Cu 3.458992744637699 3.2506080552801975 4.432980242851225
Cu 6.8508478521530565 5.0688429850502885 4.8047405538931365
Cu 0.050403951562541106 4.439481399185478 2.914507626872932
Cu 7.8810515618105 6.85670341742897 5.833127441894905
Cu 7.152666635176781 2.7300884453131258 5.80825638789937
Cu 5.008994203555369 4.060688168804045 6.057398219733321
Cu 2.900330381635745 5.464870835765734 5.910423688081064
Cu 2.8580773771789207 2.9844100435093837 6.856516314797152
Cu 0.8703921761811947 4.650104645363902 7.069324259598204
Cu 4.08574875003227 4.88892415206061 8.022338407267549
Cu 6.968543323212281 4.819829266632997 7.261866602843145
Cu 5.467683984766227 2.6453055463028097 7.796651171525704
