42
Energy = -123.98482413 eV
Cu 3.033596555789173 2.505574767824336 4.771616468908481
Cu 2.0310179057190556 3.8517604304075572 6.542186158465749
Cu 1.3135537842260694 5.864066771521767 7.668345635138857
Cu 2.752926856084268 5.047165814570171 4.578300869894766
Cu 3.89283757962215 6.2349170609559375 2.750061971060167
Cu 4.5347173715938265 3.7355248297884063 6.246643402819033
Cu 3.202827457419748 4.460533913645762 8.561572020627166
Cu 5.514710520364355 2.0771610325123757 4.658398323372309
Cu 2.478051820718824 8.081983106581982 7.1716963687670345
Cu 4.496659655192048 3.8422363862112907 3.394280662409604
Cu 6.557176935028094 2.863547695372314 2.525648965172253
Cu 5.53884575035217 3.7907351404077594 8.593072243416497
Cu 5.148230829291717 5.802174175891342 4.773812369210626
Cu 3.672914176112356 7.776097683295901 4.793184414666655
Cu 6.758050958209378 2.7324787284935854 6.675965943147164
Cu 2.9199993649218987 6.78756258625694 9.255644095164511
Cu 6.227352989737553 5.31339135903863 2.515406196308051
Cu 3.526655414634439 5.98367756435159 6.686475024560416
Cu 5.183433059590541 6.312098838389159 8.553430421664297
Cu 5.797281065130759 7.695988507836912 3.16239296311579
Cu 7.055942157140465 4.060433673327379 4.586036359773954
Cu 5.489998966764039 7.602626814658504 6.526841267562585
Cu 7.348976537013311 6.865937611969461 4.905048731662525
Cu 8.480720961187096 4.364435617769734 2.292019164353349
Cu 4.100001086920553 9.704948339243415 6.407563228852995
Cu 6.549321820756258 5.28641973545437 6.745348501096785
Cu 6.005525186220317 9.382760295198963 4.951183988315897
Cu 4.606270182300776 5.131385138432068 10.491769744413187
Cu 8.164121511219044 6.7923006389046945 2.5477119131850925
Cu 8.784553700843434 4.206789029714301 6.546165416896014
Cu 4.482787577186111 8.60835259495643 8.559890775839074
Cu 7.007678889747159 5.493875198901266 9.818967100947201
Cu 7.907516429620036 3.513172751822893 8.68339367426209
Cu 7.429232067663512 7.41970902109008 8.099988416124127
Cu 10.412249247007773 5.99525490916315 2.481929855154259
Cu 8.22375322512882 8.830877970955578 6.024701104019425
Cu 6.397244045503608 9.65666100940546 7.406659063440753
Cu 9.233852189049609 5.2571212781622325 4.415834775122307
Cu 9.094815159763952 5.630779087898557 8.622693400769382
Cu 7.889098215972426 9.025632181085623 3.5368327224636715
Cu 9.224192865178814 6.655732620458367 6.510378256808065
Cu 9.744346967047202 7.6359877383641095 4.292540962495353
