44
Energy = -129.90065038 eV
Cu 8.909811638582726 3.1166476057693946 5.617138391504639
Cu 6.63066966995927 2.4571134609338445 6.507199193289332
Cu 6.963978828525791 2.867407399802117 4.147927280093717
Cu 5.112303641321077 2.4675901369260935 2.692188813801744
Cu 7.942983739333229 4.408348595073267 7.333006661264139
Cu 8.29321647931675 4.951520118099027 4.150354891600317
Cu 5.122150742565611 1.3596464437618274 8.013891312390953
Cu 9.697685729128523 5.633070317134545 6.161985626107394
Cu 6.700176258765024 4.389691793414308 2.2572013592782487
Cu 4.633142818739218 4.06259181349934 0.9295960164254343
Cu 4.699966378700911 3.6893465060036426 7.477613750317649
Cu 6.509377298763042 3.0874532913386954 8.928565253532769
Cu 9.91724267499383 5.044321783841595 8.640535898612102
Cu 4.450741488342446 2.8953462522823843 5.11115917811328
Cu 5.99355184518634 5.830778334448316 7.801586549027953
Cu 6.471568583207005 6.457628775954736 3.6341710472472193
Cu 8.954754552837896 7.396621346175309 4.2391647781372725
Cu 4.490903029420839 4.6776221090656644 3.316587293522061
Cu 7.677411290492102 4.997487234564814 9.711997438023403
Cu 5.151980935255536 6.337323195502129 1.6007950494942085
Cu 6.009405566990012 4.738320224729414 5.487239133490293
Cu 7.5143774359111095 6.590398261295827 5.978061154478706
Cu 4.004248781121006 7.063677594639483 3.687512222317396
Cu 3.5540626522699355 5.317797183120413 5.485852774504005
Cu 9.154886422324635 6.681447957708412 10.489992574907117
Cu 2.429590975331797 3.624663097450491 6.6701130585156685
Cu 6.848958041856979 8.587811475775304 4.685171994226001
Cu 5.144894433378378 7.1688535300166905 5.865623042199725
Cu 5.107905959223339 5.071887097149725 9.817118526951079
Cu 8.653778626911553 8.721522165129576 6.373216694138279
Cu 5.610864406206084 8.581952422576663 2.586416850016404
Cu 8.551428207427284 6.929324893461922 8.157699502287677
Cu 3.3092597414414318 5.544285249636025 8.12614076702597
Cu 6.781661932651846 7.210424795810126 9.878279566398371
Cu 2.778156452751197 7.740958355010863 5.709313715268641
Cu 1.445031225498662 5.903694685101366 6.660828865304851
Cu 6.341262361840663 10.720731699481956 3.7329984644316982
Cu 4.555495578014391 7.4685845250784135 8.934843017759668
Cu 6.534580984181389 8.33312424119254 7.645093356273206
Cu 6.287578595717824 10.319482553331014 6.197794426561563
Cu 4.229148227127145 9.138455598037293 7.159340949897322
Cu 2.295201582278755 7.751488623613118 8.076192731826803
Cu 4.48182643645023 9.336809528326572 4.717418840711432
Cu 8.674830529163813 9.948800508241984 4.227124768230603
