45
Energy = -133.73613619 eV
Cu 6.93934582123211 6.409892019268318 1.5354150254600698
Cu 8.00123847158488 8.58200516957676 2.3227719709845034
Cu 5.663303386878884 8.578927769817662 1.7489773529125903
Cu 7.807745742350248 4.59942205771812 3.094582975113142
Cu 9.071606675209093 6.648720893161679 3.11822168752182
Cu 4.264609185764103 6.698780127591936 2.1619311683847835
Cu 5.428429884985099 4.64929327637938 2.6559477878453968
Cu 6.376217244786477 2.420198532448373 3.3547731432553505
Cu 8.91775470503626 2.6021347116211517 3.79350230137959
Cu 2.884939434052413 4.851120487732324 2.7114408393720297
Cu 10.02069815889207 4.728905135609106 4.398726022593737
Cu 6.406731997281319 6.947952031771992 3.745100091935751
Cu 8.18526431210403 8.2978454161386 4.882079602898783
Cu 6.3740628671101085 9.583859002372382 3.8482563529723044
Cu 4.25866276718817 8.415838827318693 3.821206604009559
Cu 6.350476491217866 4.066265442273375 5.052034091969097
Cu 2.2756359084911515 6.905068548233531 3.9887917042766166
Cu 8.034882083119301 5.858480940848009 5.371022848878797
Cu 4.016147711218981 3.1889035016981304 4.057515321013519
Cu 4.325949007857982 5.8376616727015005 4.709768026043483
Cu 7.437731020784842 1.4818246684978236 5.348276143314376
Cu 8.643448090136248 3.4761700337158743 6.063907370816738
Cu 10.233575617873205 7.061911014974581 5.210330732879635
Cu 2.163352055239022 4.6130051534819625 5.053493691258228
Cu 3.30156823959575 7.996351496018451 5.97416359843309
Cu 5.803404122827461 8.21921681497978 5.80246526106836
Cu 9.83808942096845 5.432088232782432 6.945458260472592
Cu 5.774460097381967 5.888950710525763 6.720131873028385
Cu 1.169453942161912 6.5451206649918925 6.296157713391708
Cu 6.5595809110182115 2.727952817783224 7.24927137702304
Cu 5.035518963812301 1.6328679858442365 5.591028582236208
Cu 0.9087063965563011 4.1138552390027545 7.008865547653152
Cu 7.705916202832467 7.319454671424479 7.269443747025131
Cu 4.34741693025448 3.8498251836792865 6.429125414957803
Cu 7.646675624253316 4.829972079434295 7.8531164526997825
Cu 3.2857544554770826 5.86129523724623 7.162588503569837
Cu 2.349358581029946 7.858566805221122 8.233553106800565
Cu 4.769930686931779 7.856677658624355 7.9833526233248975
Cu 2.5038858896393243 2.3967856416260247 6.211292042022543
Cu 1.3238404100872754 5.736790241508147 8.726782440128913
Cu 4.316554379709416 1.9614615297943627 7.943029808608871
Cu 6.243923075377297 6.372368426636329 9.15556235678854
Cu 2.782501249297399 3.7725192542718955 8.509535818290132
Cu 5.234087154373854 4.232216638586881 8.699968809518012
Cu 3.758367404552376 6.09411648183785 9.520639521081758
