43
Energy = -126.84693796 eV
Cu 4.154807690800242 6.175362279367388 1.9108740425574178
Cu 3.7975467872484336 4.390381776243465 0.0591634887739728
Cu 5.85741948795889 2.73688910261704 0.15171730877211428
Cu 6.237008512962036 5.319465054569517 0.7557175243512622
Cu 1.0233718019178413 3.6835293673620555 0.6579244850200624
Cu 1.5511476095522703 6.142334173402339 1.392490319786999
Cu 3.473976388497981 2.0272233522336824 1.1252370864971943
Cu 5.5944742161567875 7.810920415489976 2.9910239469112674
Cu 4.1154127917746735 4.770992569944646 4.015628724803529
Cu 5.041483716811031 3.783970755284713 2.0199058215924555
Cu 7.386118426818799 3.3563307045316337 2.2933567473739744
Cu 2.643271107160301 4.141250380912442 2.188880496669961
Cu 2.927754172575761 8.085002652425565 2.96373822957483
Cu 5.670271985295645 1.394934682724694 2.4409112364024232
Cu 0.28269184578288264 4.516877718782498 2.9684735875656747
Cu 1.3727684801842501 2.066719576413678 2.8218421013122197
Cu 0.3361458663006143 7.331221534124084 3.2303317232414157
Cu 6.44289049606314 5.5211289289492775 3.286200328976578
Cu 3.3400321729371014 0.17611820961466693 2.995195503038183
Cu 2.165862240690149 6.021920387679065 3.745514458530396
Cu 3.7223256300911274 2.3581644643344117 3.542904166931864
Cu 5.923304492453479 3.182064572777579 4.214960374781018
Cu 1.981676083323202 3.729569884684794 4.57611591694583
Cu 5.0751029091692885 0.9317647436710624 4.988498595049795
Cu 7.61579125738787 1.7042010459683614 4.860325462710613
Cu 2.3175795277860787 1.3498764516090578 5.24989558182456
Cu 8.479553417648253 2.7059457847377013 5.032169082619819
Cu 7.8273362116624146 4.351213237888282 5.114962576041792
Cu 4.26387497487219 7.157635073295543 4.869389166441349
Cu 3.93886942615838 3.115979965975021 5.914894001600664
Cu 0.4863353913825386 5.39788083118788 5.424309809741151
Cu 1.8165974935327651 7.671779617614985 5.342727082355045
Cu 5.560906202559294 5.0677933329761995 5.805030746815285
Cu 6.731955411168174 7.030886880740842 5.218456214593986
Cu 6.789418647745352 0.6347038050388274 6.878371346427847
Cu 2.9434272879598558 5.53466806617302 6.21033256063268
Cu 6.158128262408181 2.880473725441709 6.790764078680909
Cu 1.7213199556759775 3.3682383413405197 6.906042368848207
Cu 8.479553417648253 2.7228349856302847 6.938423060275298
Cu 4.331415715459066 1.2188501444029785 7.296486884451354
Cu 7.23499927618673 5.008843209731337 7.456090873462855
Cu 5.020101646177884 6.794658852825493 7.253620748607581
Cu 4.4346686322588 4.409373973767018 7.881076752893584
