44
Energy = -130.6198294 eV
Cu 3.1022199549462863 5.744768705670264 7.862876581714132
Cu 2.3984120587714752 3.8832599487248363 6.392814865794737
Cu 1.0275880743465249 5.872705838787018 6.59357536719813
Cu 2.1175066072116144 5.6018965949665835 4.435572521058951
Cu 2.3721017581519495 3.20099646240841 4.057592045582188
Cu 3.9043072015585434 7.653727876820598 9.301451393997942
Cu 4.579445647631325 3.7139707083921767 7.599544976970721
Cu 4.43860436457735 2.884012777968689 5.279559977453668
Cu 5.243725553809463 5.546406848386473 9.117913749892695
Cu 2.797148970255004 7.4550921680640245 5.922589721775177
Cu 4.277145033264057 5.398907412596587 5.614144831221353
Cu 6.611892390699306 2.73397905007563 6.416374843937969
Cu 5.004473430090081 7.272758961736754 7.142710379166773
Cu 3.972942188880211 7.128797078126401 3.719062126238269
Cu 4.082614052877835 4.719721782046236 3.1650027374092895
Cu 6.761996067020335 3.574489863283446 8.777547622686985
Cu 4.315459073305144 2.3003061754378176 2.911126616086646
Cu 3.6085471906321054 9.281417762563715 7.45409501780834
Cu 6.0556353266658745 7.459500406985593 10.452439600531184
Cu 8.721750452699359 2.642071455558218 7.560632120606087
Cu 6.4417899385295225 5.235769856065947 6.835652222509014
Cu 4.633141020530864 9.009541935530889 5.197575833311631
Cu 7.454121107226783 5.4614194325577285 10.18557524138148
Cu 5.718385416030024 9.147003975314796 8.656232582189695
Cu 6.317340130695722 4.476187825141325 4.445914257044077
Cu 5.469162161316161 10.71054098764862 6.737236457332665
Cu 8.622993510470828 5.036996060268403 8.042230593287373
Cu 5.890048149097156 8.594078584566924 3.0839886521232005
Cu 5.95597627729851 6.183826763343434 2.4944159906960337
Cu 6.194346241968954 3.6931685684509694 2.1189507405931787
Cu 6.1945481413507935 6.927858829135243 4.952594781614396
Cu 6.513421143963406 2.05176193763135 3.990402913198023
Cu 9.33147367539019 6.799282783362763 9.456509522455875
Cu 7.251069701186043 7.158655185030372 8.340909358230963
Cu 8.556363994959247 4.315389173587025 5.674817811790778
Cu 8.416157076753747 6.765218745787262 6.186607148678077
Cu 6.981957274563355 8.81072247288808 6.472611006699045
Cu 8.299268552496416 5.9976347583255025 3.8161692379941
Cu 6.61428678948854 10.358808702397315 4.597491281752294
Cu 8.019363557886543 5.21445942361788 1.5310601166782716
Cu 7.847528830590684 7.618121522786449 1.9806293370656896
Cu 8.360543602642394 3.480925132434875 3.256989831228095
Cu 8.621709620436423 1.9458448709605982 5.19782974029364
Cu 8.092750637938947 8.425717034612624 4.291311781850941
