46
Energy = -137.79945907 eV
Cu 2.800857857530383 3.2857091231239575 0.40289386723291437
Cu 4.6862535717610445 4.754990722382877 1.108514830368113
Cu 5.104125755290333 2.25755651777526 0.78806696067919
Cu 2.3992394681001445 5.795375592208277 1.0822584873952465
Cu 6.922403030894642 3.8840306584363686 1.3421867206726297
Cu 0.5834294790220412 1.974897281127243 1.0448640208371902
Cu 0.4550235648683725 4.400068999946653 0.610724579276068
Cu 2.7184820293913026 1.1544184533031931 1.8335936402834236
Cu 4.076843843828167 2.8763601752852415 2.8007003816856435
Cu 3.333678444345071 5.237829250543723 3.222067263786793
Cu 6.692342913214541 6.21034068424068 2.0569126468937178
Cu 5.695689854402022 4.58586167048866 3.494339716584731
Cu 1.7006039935463602 3.5348105469852307 2.50459421951152
Cu 6.590933991771824 2.211514072683651 3.0883564049036685
Cu 2.4670957826731277 7.4346228610229215 3.313823093650946
Cu 4.937237921817915 0.48952639085332106 2.6239903045951625
Cu 0.6093808089588982 5.624711737429713 2.85779021689101
Cu 0.9821161672582787 1.6237882808316175 3.7353984724148694
Cu 7.3129796776287455 6.556163689319545 4.525385566074599
Cu 6.290172352623184 8.443337633246275 2.761422165471912
Cu 4.410371269174096 7.138196914936785 1.7143987645535796
Cu 9.12044554050086 3.4021167051404606 2.6150062626964443
Cu 8.065633341385285 4.297199816102814 3.479674336120889
Cu 4.920985027822099 7.032573163773965 4.080595196124747
Cu 3.291283613540219 0.9685458627690838 4.3443313893023845
Cu 6.728971657964999 4.553986114557746 5.7256814225216255
Cu 0.29556374017906634 3.7802557338014924 4.799436506161899
Cu 5.9351671952903065 0.5765742032882936 4.926528998470746
Cu 7.745491359221416 2.432307206463145 5.283715550364659
Cu 9.120445540500858 4.702424237197709 5.601812616353783
Cu 1.7028033130895215 5.799743184441157 5.040601831377849
Cu 5.080565048314715 2.757675625407844 5.084103716965679
Cu 1.7314731567519719 1.8541125561611944 6.250636406529907
Cu 7.829673899352472 6.122644558440049 7.172186784695131
Cu 4.304336359991679 5.092168869226441 5.5231950877386575
Cu 2.6810853506828476 3.4113557314987317 4.795090103664579
Cu 3.2620914201521667 7.426022719281159 5.829262308289286
Cu 1.2697885945297798 6.746375545379545 7.206167515783233
Cu 8.048219570500358 3.66245714372349 7.5720405126675825
Cu 6.100047873661698 2.281369555240721 7.202472089286029
Cu 4.097167587646716 0.9977199273940692 6.6206809463490925
Cu 1.5115351036410358 4.289699914788929 6.939661303172418
Cu 3.426612755152787 5.762217445359511 7.678422700501223
Cu 5.700639572022469 4.70845423296499 7.8782275803736725
Cu 5.610245050382529 6.83412113788692 6.499959645675181
Cu 3.7335241389549303 3.3015419106110215 7.206001222122477
