41
Energy = -121.00842441 eV
Cu 5.083076025385321 6.853636363315046 9.482245559063148
Cu 3.5094540788721815 5.939211882156129 7.842940625066694
Cu 2.713730980588136 3.572015644628113 8.457880913395655
Cu 4.855109037950773 4.4079888889812535 9.18272999150941
Cu 4.786314584626288 7.9786612098734695 7.29857750954081
Cu 2.359164148733763 7.841778383030959 6.46293767721778
Cu 1.9822559184375912 4.718456843946856 6.510845108033048
Cu 6.737195050362047 9.19252667957428 6.2752923369979055
Cu 7.14370448988676 7.737435853616116 8.32932046739379
Cu 7.043019710510544 5.408272494587621 9.62047937349666
Cu 3.774418980281741 6.366784546786162 5.33909663941983
Cu 4.715078464706299 2.189846701636675 8.166613010162694
Cu 6.025160466111804 5.89718915217267 7.351117284921632
Cu 4.760458699739441 4.214555737983718 6.1668309364142635
Cu 4.260836608338751 8.970715117740886 5.22335256206409
Cu 1.320265414144786 6.1333241743491635 4.690490374870041
Cu 6.710011549472552 3.5580644054244135 7.851145185813038
Cu 2.3571284194862576 8.18778124724463 3.946726913921911
Cu 3.222558265642887 2.440387249568014 6.23208558690697
Cu 6.1869893153486615 7.126584904980902 5.082446498442774
Cu 8.440838972638122 5.214090988144439 7.704258239162965
Cu 8.382408765136036 7.16845789643577 6.309548689333214
Cu 6.1366967016942215 9.35799613446163 3.80421926611124
Cu 8.3109208462826 8.62009262923403 4.398604797866796
Cu 4.611022151318671 7.579721248912966 3.152513730180551
Cu 2.9025943894704156 5.99711905149534 2.8061369471710687
Cu 2.8341040721207675 4.155550656316776 4.393361514409843
Cu 6.007966403417604 2.0922182704383827 6.069060916336098
Cu 7.2010751093697145 4.8552851150725544 5.414681492609034
Cu 6.930886645258941 7.17749050815902 2.730214130011526
Cu 9.906571963931743 5.180407868824116 5.849561766661048
Cu 5.222408599488068 5.057684831310037 3.8252157354404144
Cu 8.439530874211844 2.9866636279573737 6.1414905051370265
Cu 8.760196913591367 6.263754353986218 4.026975787594259
Cu 5.219775934332535 5.649234509084833 1.5528223345993348
Cu 4.645181228840332 2.586236391530883 4.077842695159803
Cu 3.59676668784458 3.769935739224202 2.123672498522465
Cu 7.1066533758615575 2.704391327646704 3.9963779958301844
Cu 7.393065281404973 4.789990011075465 2.62079430895428
Cu 9.232737592708991 3.849709399053444 3.9342086767028523
Cu 5.871315143100201 3.0689453477741733 1.9460379543414785
