42
Energy = -124.15538715 eV
Cu 2.525297286320441 4.121029553013636 8.032224789210927
Cu 1.0195189468262125 5.212200441799674 1.1787892350753104
Cu 4.921558341766136 4.718764697882287 8.59695987614567
Cu 3.8534851794104297 2.239104812782425 0.574673257724171
Cu 3.191717855765813 6.577320003386768 0.5864549186926244
Cu 2.7532498060422808 0.3597628669344903 2.1209021142036257
Cu 1.4994533138475745 2.592045840661786 1.3883968644762537
Cu 5.271319177511202 1.0357956789255554 2.62346750878411
Cu 5.45757838999174 3.5056325454818342 2.038454480321365
Cu 7.385463148942871 5.026972915754206 2.0972967219084633
Cu 3.1889972557419033 4.426579544772285 1.621777050730006
Cu 1.4330855106189495 4.126972661232873 3.3823716560768338
Cu 5.1214153634515345 6.094645430591332 2.1325028793166925
Cu 7.397891545441362 2.6272694311409706 2.9952963238398342
Cu 3.377186706162974 2.4095857838943133 2.964414984922268
Cu 3.9340212836651545 8.205771765731578 2.323591169445688
Cu 0.3783230556915472 6.043508062391448 4.536724464451411
Cu 4.088074610588493 4.5531344365868165 3.8197627929763347
Cu 6.807117392331287 7.052162432417125 3.6785070717541903
Cu 2.387983707014964 6.451753473418068 2.983009821302769
Cu 6.387486318311866 4.810016676537672 4.258836184724314
Cu 1.2616552072981138 1.6914719573596593 3.8899460736204015
Cu 2.1679672147756808 7.7504495347375055 5.204127791951329
Cu 7.727402765122184 2.2428296791733864 5.329731559898119
Cu 7.509718536471798 4.499963786100806 6.353405818846956
Cu 4.413987951019341 6.953746888015835 4.456441494900829
Cu 5.363667653183323 2.5270544987402386 4.613255139665442
Cu 8.714311163380613 4.327502125672102 4.1672678596991934
Cu 2.51832448536705 5.415031922356299 5.3086855854184005
Cu 3.5540676842465295 0.6014359872488104 4.621156753125786
Cu 2.87613967058009 3.004790611997157 5.230795328737141
Cu 0.6651672387600954 3.7718315579924733 5.767883514420034
Cu 1.0940048639841875 6.144859386680931 6.987401593380167
Cu 6.112045239572613 6.491313545510655 6.109028249100199
Cu 4.802088645476319 4.404317664429174 6.284228892485933
Cu 5.728512573318688 0.54201017463869 5.932550747479688
Cu 6.26046833086143 2.6133460444538814 7.159885106087472
Cu 3.7171396599300235 6.602234507199656 6.944570762663661
Cu 1.7033910090967297 1.2757607162994424 6.357945507698457
Cu 3.9664381016366774 1.9570406068968933 7.050842366696484
Cu 2.5667097690065255 4.093893312572784 7.400970710965691
Cu 3.594618545165825 8.205771765731578 6.8107851316637875
