46
Energy = -136.967846 eV
Cu 5.354704129596576 2.41385717023223 9.481414032246398
Cu 7.955763304131355 2.634803365246962 9.149135621397436
Cu 6.077951097318577 4.3432614691923375 10.66641002258924
Cu 6.404440012901629 1.8942523313326864 7.348736610058832
Cu 3.9993684005660888 3.1469792277309843 7.547235439153748
Cu 4.1160111842450515 4.797576768505707 9.301247916455539
Cu 8.131833223878367 5.1778060446279275 9.747024256430207
Cu 6.4754915982267525 4.199722899393442 8.16128780770704
Cu 8.831802032793684 2.01068684657334 6.723257555960269
Cu 9.16361340320177 4.3250851912573935 7.733558198904932
Cu 5.923260761849803 6.428976587805963 9.283312896543967
Cu 6.9161242130698755 1.6603339576070981 4.9969687762199015
Cu 5.385853310145952 3.411677842272414 5.646812712238378
Cu 2.976348610542752 4.088815483239524 5.42958223819329
Cu 2.48387107525693 5.264211237554885 7.441923887631356
Cu 4.905466687200577 5.480456798976737 6.916243226311274
Cu 7.744077051941968 3.9268985719352427 5.802713215278877
Cu 3.709359917397609 7.138517854038795 8.42467094440135
Cu 7.683638557385711 6.366967977333248 7.64182656873908
Cu 10.208752623948174 3.8918885644648737 5.570232235684716
Cu 8.89327522999976 2.601445366336997 4.039804327551794
Cu 4.171824171646719 3.0756845446239383 3.586799632756026
Cu 1.5358291216525617 6.050624364225591 5.2175600661117585
Cu 1.6364001016620175 8.52836434120222 5.758933226529544
Cu 5.721886652704443 7.830446584495083 7.177863905566397
Cu 6.635325832593181 3.7114197471140153 3.5020301958860776
Cu 8.725318766771165 5.029024855003032 3.711226439509571
Cu 3.598532925682398 7.201663272047576 5.875864501295381
Cu 2.70821110665908 5.173907044795476 3.1275083579010605
Cu 6.8276434721460495 6.1153478077248025 5.334005744418177
Cu 9.25356842951017 6.154227202284955 5.815669894926865
Cu 4.9138925090281935 4.591735182179788 1.9187622398881021
Cu 4.754884384380046 5.512468362439262 4.281573621120551
Cu 3.722933693205087 9.283809849751169 7.159224824431697
Cu 5.527276272770308 8.011793536624 4.369229741860029
Cu 7.82511000920538 8.301448670892226 6.064668577199003
Cu 2.568999695130282 7.637576870702126 3.63177853452063
Cu 3.5647555983410686 9.633224279031893 4.769822770297307
Cu 5.82399999906238 9.957285818821568 5.934000474889295
Cu 6.698941393009347 6.0923636878509715 2.6988086162221743
Cu 8.31338500901982 7.47628513929834 3.799953011576212
Cu 4.418857302724805 6.930665777786526 2.2165408665603747
Cu 3.922746955102642 9.23722377795331 2.365206210182348
Cu 5.481516956969813 10.536213502180352 3.5694885859643857
Cu 6.4144741377847705 8.581125826160887 2.2358812325582598
Cu 7.623443120183472 9.749195622842892 4.154033121134626
