45
Energy = -133.24409471 eV
Cu 7.294549528062643 2.072367006207552 6.6933014470599055
Cu 9.565442335175545 4.314215745194023 3.745286024829307
Cu 9.618792063476706 3.4459472790122057 1.4309797261852433
Cu 6.106108799338071 6.174222401613197 5.940235645087993
Cu 4.136342453333548 4.669711736462821 6.67898096353272
Cu 4.462526398780192 7.319870862061099 2.761281609983451
Cu 8.520324705577881 3.5910547151961967 8.282383123629947
Cu 5.503737983800751 1.2104913579605883 1.5934603749820488
Cu 3.26310778745226 0.7048497954205168 5.650052403121566
Cu 1.9432368004124279 5.740570375707359 7.03727630443067
Cu 1.597643716536873 4.354431633083189 0.9936765723327031
Cu 2.9795456534771225 3.7116466230470047 2.8492465925645147
Cu 2.358756147908644 8.230498230922468 6.4344086953858755
Cu 7.328977945476178 4.9954991621382465 3.88269145115236
Cu 4.884467698729572 8.452821294618689 5.186181794293102
Cu 2.2677657959932858 2.9932157338068914 6.798236360576634
Cu 9.565442335175545 2.590428168507652 3.7297357707421237
Cu 1.5183711625217446 2.1171851821723355 4.571346596738115
Cu 3.514727044215837 1.2610566866692743 3.1011661043557197
Cu 3.478357816073178 6.619268888303625 5.17449587899832
Cu 5.694809010199039 1.2448058470158292 4.746079224323248
Cu 2.350451410972433 6.14086889837054 2.828724830908613
Cu 0.9467878788561241 6.616388723773187 4.882836004778721
Cu 2.2603232330885534 4.605897451920409 4.939227152078876
Cu 7.977794270318156 5.937617566494718 7.52556803684565
Cu 7.817665764218543 2.5015693534595522 4.183408372997688
Cu 3.538210729417021 2.5620117314669337 0.8813904375278383
Cu 5.612736110035451 3.065203008047044 2.981802592984922
Cu 8.590477630487769 6.531711131642136 5.223806870473619
Cu 6.270431249594343 4.216031175625346 7.761292856678488
Cu 8.487433369721046 4.178414353058924 5.948761529919225
Cu 4.304918241813313 7.013433848841386 7.399288094285611
Cu 5.7754908207047215 3.5217805500671147 0.5819460815164118
Cu 2.5751603841315016 8.430662714347331 3.9512436963360815
Cu 0.09710352122736393 4.048195537509109 5.643339220081789
Cu 4.7924525595280105 2.225434017872401 7.039026114073748
Cu 3.8644494122193542 2.8410281812362217 4.893916429162272
Cu 7.817579840747813 3.6193983307390742 1.952141744318632
Cu 1.2490876162749591 2.14399676439882 2.1364607823460062
Cu 0.4781974821397581 4.588802019924772 3.243029355716528
Cu 4.768940674768729 5.134924647906844 3.8961783223607753
Cu 6.211554731084325 5.619610811537442 1.8573855031686495
Cu 6.041406788818328 3.646333929691419 5.417779986682212
Cu 6.615172640418662 7.277920455172986 3.833087314949223
Cu 3.9598924625734697 5.176177333325707 1.1754272670538133
