45
Energy = -133.68347863 eV
Cu 3.6054845539825036 2.0498504534612954 5.636967469065426
Cu 4.75098630548627 2.405254908322613 3.517075693235268
Cu 4.805544937688958 2.419396010837148 7.765524248912768
Cu 6.101847337617003 1.860858644501406 5.527347162842224
Cu 3.1006331858992855 3.9887891916445035 4.244706967134954
Cu 4.860737209481399 4.483431647999902 2.172330676258868
Cu 6.680139631474678 3.792058900028978 3.885547037379433
Cu 3.7474610620727606 5.981020562959107 0.6087764980043993
Cu 2.8033599988398477 4.1097708026139115 6.790920490930254
Cu 2.9645661034492163 6.013278899822568 2.8707718193208915
Cu 4.985098027523707 5.687992665045313 4.224618437258955
Cu 2.688989001650229 6.12659941363446 5.381708569105522
Cu 6.137284122834039 3.0250049362029032 9.742481452230995
Cu 7.047384703913213 5.885732204337373 2.612061982206018
Cu 6.511504837034576 7.523144623300596 4.356213914811615
Cu 8.10820903460279 3.295189649803899 5.864707803547391
Cu 6.7121555631936785 4.303084888208421 7.813004861577486
Cu 2.7304330334532336 6.428960653995156 7.815543553131573
Cu 5.084974249738154 4.030914246786136 5.978213511600044
Cu 3.8893196537865893 7.924411302134695 4.277916858892938
Cu 5.032425911834282 7.289204504328799 2.166093881478394
Cu 3.4923120159811165 10.239993722801419 4.753029475157315
Cu 7.231484348780602 1.919801378869264 7.772181063282458
Cu 8.970874660092733 7.373173941491115 3.312543563728548
Cu 7.075428321316026 5.565268558280636 5.738882568971961
Cu 4.952007824176913 6.558172060550129 6.5700913287079326
Cu 8.843261318030724 5.015816755981115 4.080092348142012
Cu 5.448765239770755 9.586376832073771 3.3775753496309497
Cu 4.042135072885866 6.902453837990075 9.820776036772719
Cu 7.886123560936192 9.30924966780332 4.794066329696912
Cu 2.623255309280038 8.636265742754512 8.872466211029632
Cu 4.402624905576212 4.7600231728610325 8.557711441598707
Cu 9.050105711160686 3.631210167364516 8.149656282171073
Cu 10.881801442868381 6.338359408340984 4.44905495256819
Cu 3.0824726828092754 8.470050642283496 6.477352514905998
Cu 7.1935431919895185 8.470950639451738 2.1934253439931584
Cu 5.515585642664253 5.176734492977922 10.668120673234846
Cu 4.927958196352286 8.490888171432488 8.145383292554243
Cu 5.4007272156377395 9.24786900859481 5.830190280500033
Cu 9.01072590350039 7.17877801750819 5.692628977705403
Cu 7.077729115462271 7.913170188682532 6.919809893147338
Cu 9.920800675345284 4.928527531883913 6.239692177343328
Cu 8.50779818634965 6.08017054457952 7.875925596575072
Cu 7.838383058051477 4.886068792152491 9.955796687561026
Cu 6.329624684466745 6.601186909412923 8.864085808576526
