41
Energy = -119.3524172 eV
Cu 8.931332088870272 2.6494392899247785 3.7861009959804193
Cu 8.754376823313619 6.628149792786561 5.314368574102698
Cu 7.399977756646663 1.8564167045610787 5.441904726493043
Cu 8.589217494936348 5.018372345162855 3.3197693801316284
Cu 8.048597074947144 2.974834362333742 7.466348038228566
Cu 7.042684958661415 0.9003171533850313 3.316739392014023
Cu 6.70055921857498 3.3197751925665866 3.3401658275484767
Cu 8.042178731197486 5.540731471774565 7.45296153330884
Cu 5.029052844826805 1.9064902220127662 4.368616264032556
Cu 6.186818411773904 5.664101449054311 3.1815498930000126
Cu 5.888053623334483 10.316805918085372 5.274278906300427
Cu 5.730507726719312 1.6094848924867442 7.10064182265269
Cu 7.674536648442097 8.81233036076711 4.879540715357939
Cu 6.278928975372786 6.47875059245849 5.612676771775848
Cu 4.357606861646377 3.935428161686529 2.934503320530857
Cu 7.622891349315909 7.975552785343281 7.184987443944332
Cu 8.024368459040815 7.301780617567108 3.0533216773120317
Cu 7.660646130377318 4.28960736247755 5.420994113620388
Cu 6.988265272270942 10.316805918085372 6.751007708677952
Cu 5.061937077103403 4.313149087919006 5.233437212426329
Cu 5.723288501809015 8.08564389658395 3.3986875796873464
Cu 3.6666801037459056 0.7145325198103047 5.960565592763301
Cu 2.8390202472920976 2.843469014659373 4.6246340220254725
Cu 5.987728767942775 4.06215553749735 7.490126813204447
Cu 4.098025864427083 6.202072773616934 1.9744766186817355
Cu 5.905700912997048 6.426910229685557 8.106465643747647
Cu 3.869208497508146 5.1168679296776265 7.968141239769465
Cu 4.060453355203718 6.423528904627185 4.3761416217783795
Cu 5.456312979186322 8.889928342899392 8.070559149438493
Cu 3.865260128749947 8.626942140526214 1.9519879036094718
Cu 3.831894297790026 7.383091614194067 6.654957455153601
Cu 5.432509930755823 8.901615338741346 5.681696454114168
Cu 3.778233552446491 2.9482906350726488 6.886948859336056
Cu 2.222242477352384 5.01270715341061 3.534532457618438
Cu 6.154472687764994 7.741247320481025 10.036551412047563
Cu 2.0751157046140998 7.324303916684633 2.848126519400372
Cu 2.563814778940019 4.875815823010541 5.954268685640552
Cu 3.8802348278687675 7.254411708600435 9.135706317643896
Cu 3.390089091321473 8.728149861971778 4.402771557651225
Cu 1.73812001975829 6.994943133222865 5.232586137311282
Cu 1.879467882983573 6.506230272299491 7.706565779769217
