49
Energy = -146.90243413 eV
Cu 9.763652322811605 2.8350670172693 4.321974255204291
Cu 6.851868600797741 1.6275895334553743 1.4071886809940106
Cu 2.764466472271305 6.589796335315476 1.6757348763150004
Cu 7.075753954175824 5.32870732886918 6.168574618632564
Cu 7.114665669066741 6.160146816733647 1.9860270873860613
Cu 1.9841182455651811 1.3291341054408654 5.643183690090804
Cu 4.069125104124938 8.256611953787319 7.6114822591837585
Cu 2.144906934637345 5.517936799128334 4.248804952163003
Cu 9.065816905906653 3.7660711479114055 6.581547253847032
Cu 4.373489603589062 3.5665703452330586 8.110262144367178
Cu 3.328589895519086 3.1963855119295923 4.189666962049687
Cu 2.599204175458323 5.544037006333517 8.324576699128682
Cu 8.711116399485629 5.189986844876351 4.274073614177973
Cu 6.671394073024084 2.5858336876778676 7.2669471975803255
Cu 1.7304525039430543 1.690105884845559 3.24433883052441
Cu 3.089973398925197 4.4415358611486155 6.233396642541279
Cu 5.942497063162189 0.02027256730687643 3.0672501924000097
Cu 1.0185074347321528 3.4611686249547264 4.994132272983383
Cu 6.330917620747413 7.643726114592123 6.68095859491167
Cu 0.8384943235418503 5.3654035605157 6.579964263241712
Cu 5.902829907203336 3.912751001826745 1.2477077089272228
Cu 2.653951311463519 7.875407570225254 3.789691679304162
Cu 3.940809963294995 0.8413395484576328 4.207125060811803
Cu 1.714120567943234 4.04451241401265 2.370108329186675
Cu 6.8734528450044055 7.1019771085348555 4.369780835222179
Cu 3.7514881948707766 2.4781653679111932 1.8836375540729335
Cu 7.515508117163048 3.111630768167716 4.982398286643288
Cu 4.151469089684741 1.7146317986328365 6.597159522346993
Cu 5.271336654414347 3.657309598472709 5.646815907559388
Cu 6.3650018887097755 4.7966967493924955 3.704072419954251
Cu 6.1975439619343575 0.9793073645807826 5.371530604319804
Cu 0.6566616429325154 7.410560259241434 5.166695083091546
Cu 5.01104626900276 6.1679708830637985 0.6874714531045714
Cu 8.02519796533929 1.168713708494716 3.586111107632385
Cu 4.166188906053766 4.874931057906676 2.657293825695212
Cu 4.6178250723483485 5.947792931546423 4.881638967074914
Cu 4.892415593590582 5.835788177061792 7.356912379068902
Cu 8.601798039963045 1.3366003003523688 6.079665735757956
Cu 2.830270275885031 6.873561731399512 6.191162540882062
Cu 0.9204559185697306 5.4736488429544075 0.5885569641432487
Cu 3.2323598853006823 4.459111732942192 0.43496941135905187
Cu 4.921545543365789 7.296547982667444 2.839152417688481
Cu 5.69671389868189 2.444926225423898 3.361983253194236
Cu 4.649793726754669 8.412240748232335 5.128467561819729
Cu 8.062612661570205 3.475290637259617 2.5170117977999324
Cu 2.353705706878785 9.167533805092383 5.956166174350504
Cu 1.8931249071299254 2.9434335140996026 7.516531824337611
Cu 0.6187888412388746 6.603446071083435 2.7666253808079917
Cu 1.195375797220118 7.630488908637446 7.655874981118809
