46
Energy = -137.24454624 eV
Cu 1.0546988330508056 7.805635255724089 2.5171178978209943
Cu 1.8216738200524325 2.5300736790689684 6.654295962982918
Cu 5.625161150554703 8.270312523822376 4.570501957049461
Cu 5.080385755288753 3.5748132521566496 0.6015416746472672
Cu 3.223260464090778 7.089482816858203 6.475691737661336
Cu 4.157348733850063 2.302913063138777 7.9661652092351325
Cu 6.755245888289792 3.173895921638092 2.2898036261785015
Cu 0.40302550163660184 4.392225407643205 0.203725157667033
Cu 6.708026377553614 1.5821186736654032 8.257089050206496
Cu 1.411645241483347 6.347543446520496 4.535712398061338
Cu 4.110979904975746 5.842507085036806 4.691387942079712
Cu 7.557714418725717 0.3140887323103977 6.197432770229656
Cu 3.248820041309599 8.270312523822378 1.3557433228091063
Cu 5.263939113072276 7.989703426014072 5.144639272457949
Cu 6.090736243652018 3.8545439180618555 7.530048158458478
Cu 1.6989101760333436 6.530581878026977 0.44529548226426874
Cu 3.815225909921654 4.879957235921357 7.896134473553491
Cu 5.594014687610606 1.0373710463302575 2.1882036370468856
Cu 4.75227620312633 4.597026329525078 2.727478176940642
Cu 7.237047392016336 1.770744126968898 4.1675970611942565
Cu 2.701565616793873 4.323279879401882 0.9841748982393407
Cu 8.24166718281104 1.6027850781086337 5.496552572526899
Cu 1.7416353141710903 2.3332252830090954 0.040026228883309256
Cu 4.440006585701357 6.083445300559682 0.6590095553529631
Cu 1.9492498759998702 1.8386468026043363 4.206772144013307
Cu 4.594627565517898 2.275621131172283 3.9698564111511083
Cu 6.089631077218469 3.9859906655491777 4.91983420300568
Cu 2.5971998019453864 4.134710879051827 3.734263239119842
Cu 0.9468438368889145 2.955561161432694 2.2428987798391073
Cu 5.578795397415021 6.072298967646475 6.63779256397526
Cu 3.3302133950017794 2.148990951941257 1.9036474587100967
Cu 1.9685353427234793 4.936681212544133 6.323778198242154
Cu 6.715397591947308 5.5387403225520435 1.7776685496414095
Cu 3.901652859410561 3.544192772711868 5.8890492075383225
Cu 3.5137392022024985 0.16463914198447602 3.3675408935071456
Cu 0.5633134419188321 5.359921844955089 2.4488082315393687
Cu 8.235588502281347 4.182039447141502 3.952065430997132
Cu 7.9766818925329614 2.749122284791154 6.2920210252497935
Cu 2.88708914365838 6.245702367791645 2.5275997571670152
Cu 0.423567965422063 3.840800795074851 4.672314480658595
Cu 3.0907841951439283 8.130960289936457 4.029325350110426
Cu 5.706520761072165 1.7758801207076833 6.173809604543243
Cu 3.4992564073938808 0.8893713821935832 5.824632353331131
Cu 5.136114929794408 7.2957640893541305 2.7374256573029063
Cu 7.796389260094606 5.178119050576053 6.225275996391457
Cu 6.73036040962529 6.224221845934765 4.210021439194916
