43
Energy = -127.21170606 eV
Cu 5.773360624234628 8.235821894340464 2.638312812382891
Cu 6.856888148749961 6.014605005178679 2.653214633954822
Cu 8.239442721338703 7.951366062439889 3.0443718204422545
Cu 4.229579115902755 6.343709279138559 2.828861226274992
Cu 9.193699843736791 5.518587278215844 3.340769882754493
Cu 10.465690296441553 7.355538038179952 4.187188655852427
Cu 3.2521271134297614 8.484278119245609 2.393722278366325
Cu 4.217053612857685 8.382568071267604 4.553158502349488
Cu 5.4072906471555955 4.231603372149877 3.3686279676707755
Cu 7.520243887542763 4.662558417042662 4.8127956042370865
Cu 6.626228911697025 8.812909542981904 4.846018439370403
Cu 8.25565406847282 6.935216613974345 5.28511919328201
Cu 5.750759655868233 6.429309180252616 4.827821585445628
Cu 9.013672537328581 9.230481607006942 5.051891566989616
Cu 3.3820069283546474 4.805788610550975 4.5492050982940775
Cu 10.005931489192175 5.337611271020786 5.739641055867113
Cu 6.847243999328617 2.4178542680086923 4.080778207944823
Cu 9.18880107362271 3.042300211525862 5.1365769049616805
Cu 2.2071587379424313 7.043132818303844 4.155235319614503
Cu 10.28197492307855 7.8087881669689745 6.563495243734692
Cu 2.6712305631620596 8.077904287856745 6.395043557029785
Cu 8.949802665327367 6.387450315608559 7.866757118371961
Cu 7.684265261790122 8.410678491854322 7.110498512098755
Cu 4.331629406754633 2.400314253107467 4.664091066095651
Cu 6.649660767305465 5.936309616112 7.077621897593786
Cu 5.197228329778551 8.227746272780971 6.792631628365733
Cu 8.418519980241017 4.124507489733292 7.255469239558925
Cu 5.876198295048808 0.548128656581767 5.243537605182511
Cu 0.38417862446129436 7.637514014853976 5.756266490579915
Cu 4.099070685997946 6.013027528344009 6.677876500777574
Cu 5.459212643626428 4.0593951607270995 5.960810163539475
Cu 1.698308251061736 5.670589331920122 6.196467750020837
Cu 7.245110775470109 2.1537510939878315 6.444518493561507
Cu 6.181785782425702 7.482492319821501 8.903764704232474
Cu 7.38836396337703 5.301004116252083 9.359308635823288
Cu 3.126315911888723 3.6367380394262088 6.683732147750663
Cu 3.6253116100593554 7.460971040413148 8.625680394069457
Cu 4.859439070771295 1.8664429540603744 7.051505101079218
Cu 1.1421843558407543 7.13411874353952 8.047861251999201
Cu 4.930562336608964 5.416133595344207 9.103194970389243
Cu 6.250237019821298 3.4929477392850456 8.27349955961795
Cu 2.5393376623944715 5.199073281504288 8.519805320603345
Cu 3.9260367949985326 3.207505159864054 8.94364147146408
