49
Energy = -149.31752933 eV
Cu 4.714366573612949 6.029065528722364 0.24042741199376347
Cu 4.095679088722182 3.709028622532978 0.9499666620746575
Cu 6.5087882803497665 4.514367443521834 1.1220225172590697
Cu 2.511270051481842 5.70991947611 1.4136117703409583
Cu 3.459124644821861 1.4367765505387167 1.8411753514939797
Cu 6.514976619590673 6.9972232989867535 1.7061426080019466
Cu 5.867886822997341 2.1824091545919675 1.9626241180475887
Cu 8.204879820852948 3.028541214597627 2.2369504016846973
Cu 3.9448798210277762 7.755374702190645 1.8997145504858481
Cu 1.8927890534749374 3.371597563978705 2.230681991100749
Cu 4.733602907213472 5.525484016316754 2.5713586090752267
Cu 8.247797488384926 5.503218927033341 2.690482682453132
Cu 0.45137667325476305 5.3432942848505345 2.7637698371426445
Cu 4.089254149036728 3.1871254438123664 3.381516247924589
Cu 8.18155964140423 7.9130550026202755 3.319364397277827
Cu 1.7995663304041338 7.426060130816405 3.1550119682924076
Cu 6.497947651849589 4.007837055734448 3.589461038845128
Cu 4.804365162327776 0.8652631219032632 3.9079723147355474
Cu 5.744869549891646 8.730750998716319 3.297935983998062
Cu 7.210210673884711 1.6645554265147342 4.1136865304111225
Cu 2.5648705457982897 5.18555978723993 3.8566744397591166
Cu 2.3128040617490297 1.5882280023903534 4.087966616461875
Cu 3.250559999122472 9.377081005749067 3.6485107992857593
Cu 6.496707531718687 6.563144879761456 4.229221395726024
Cu 5.421385095654839 2.7364959485333142 5.5092503958794925
Cu 0.6759937103398008 6.080465504829543 5.1565665108516745
Cu 8.798163795938411 6.093350664184985 5.038900028516237
Cu 4.741852069183811 5.009760539818318 4.954195580846167
Cu 0.7550035682367942 3.6088623624456933 4.56153143350279
Cu 8.706417608285383 3.656096086741595 4.618199996556955
Cu 4.048553304852601 7.304792498668373 4.412487824813893
Cu 1.3040529073439113 1.9408342287228928 6.343406645519089
Cu 6.090833915952253 0.5106356903351462 6.024417190017794
Cu 5.3751768894357115 6.766652241091923 6.483155528251683
Cu 3.659328597933137 1.11277995999657 6.235154892835175
Cu 2.972731826062866 6.018931513178456 6.336712291282903
Cu 6.937107828128617 4.82596188082565 6.069553180484935
Cu 2.997269218730277 3.4617092986712907 5.65837995334354
Cu 1.993717288548641 8.154178860645061 5.519315465485379
Cu 1.0859270992224324 6.783614316661715 7.506585762310373
Cu 9.066131294194365 4.395470439231767 6.967821359856848
Cu 4.759956923561707 4.49454462582271 7.363084690831243
Cu 1.108278696744367 4.362008845009529 6.969432891626011
Cu 7.656158057690971 2.4077613516154135 6.517974850586904
Cu 5.380895192510229 2.054907355262211 7.877190021510069
Cu 2.9640302674839285 2.7776033330909806 8.027506927468771
Cu 2.7433902162817674 5.166150622305593 8.654036978087035
Cu 6.958258030313048 3.9088559583697915 8.370221825012049
Cu 4.663702082041356 3.7170628623536235 9.573116158295385
