45
Energy = -132.77983479 eV
Cu 6.259417989809494 5.279340530641618 11.133406982423866
Cu 7.168818607326164 6.560808595864003 1.5163541623180026
Cu 4.816298581033664 5.672431976143919 1.5336425856059899
Cu 4.909332209514911 3.410961264880167 0.572057097152723
Cu 6.929574214217226 4.12793125122893 1.697870418443807
Cu 5.385985691555612 7.646204676552032 2.8394521866392335
Cu 8.93523895958278 6.694519521911061 5.086388625630617
Cu 7.647959146715925 7.963724224633506 3.4943636944203584
Cu 4.852845727789791 3.6845134819712166 3.0277755502514365
Cu 3.0616561244994918 7.255117124944676 2.4189717848868995
Cu 5.854019510447049 9.508591854364502 4.31287990045082
Cu 9.291743712263274 7.833969795212885 7.268006300481884
Cu 7.020200646017788 5.5336073997842625 3.7915123300526616
Cu 7.158205585109575 3.0563689429685548 3.8628884636152367
Cu 8.4591839598971 4.2241462443577795 5.479997393065682
Cu 4.20063207561334 5.7864956722809895 3.9325178902624263
Cu 3.739915276597666 8.175725581078275 4.672659015785878
Cu 6.004675482510597 1.7950507643745444 2.1310961023715786
Cu 5.148945126730118 9.221857930121157 6.614328961325646
Cu 7.4329324329649475 5.921571268684148 6.828812441761362
Cu 7.708675355555772 8.870451729946838 5.741829001486525
Cu 3.474027040598391 3.65932060783347 5.079759662097922
Cu 5.185743875809639 1.7917069950549438 4.485762970218522
Cu 8.59366005236656 8.779934329110864 9.44129654413729
Cu 5.891552900918146 7.162265137407163 5.417349264772288
Cu 6.8668042201424715 8.052486873057433 7.8831238195387625
Cu 3.5261624405100687 6.136956347172862 6.162229223574857
Cu 8.477982789876759 6.315611277219894 9.041341941135302
Cu 5.62284964082854 4.568106186209411 5.7132165537401995
Cu 9.825637083401803 5.446278246423425 7.1053338930802505
Cu 6.310406089672154 9.804324172277209 9.43811175853692
Cu 2.8957362975763057 8.292460770830454 7.001627279735031
Cu 8.11184043967715 3.9098486083506723 8.00892171329997
Cu 6.886527725023333 2.4424704669583437 6.267917038590489
Cu 4.485278457641266 8.295821767732688 8.814818330406945
Cu 3.487920585601014 4.12128724104791 7.463346713753845
Cu 4.444335785456382 2.033917455410909 6.732812639761657
Cu 6.557683484997576 5.024349973555181 9.857119406618805
Cu 5.28855477274149 5.9506048506958 7.985759092390607
Cu 6.7020512614093946 7.4998546553551515 10.29118395171436
Cu 2.934304525654564 6.3192001156679245 8.571861553173267
Cu 5.768749674771952 3.3942387084817875 8.205631098191013
Cu 4.804225848203619 8.812312997573223 11.133406982423866
Cu 4.536915817630047 6.491098346415106 10.500679926661428
Cu 4.163983591111512 4.30134485558544 9.754534773570743
