42
Energy = -124.15004208 eV
Cu 8.27619616826666 2.4720835739895484 1.770777129081663
Cu 5.913656247770384 3.081127536733545 1.7119525734752645
Cu 3.5593157937404722 3.4368758685165948 1.4510286002464141
Cu 1.0560562655436552 3.905801620221562 1.5531455019511582
Cu 5.208637389122308 5.441004183566992 1.5783454969473136
Cu 7.616809058628305 4.878544182158532 1.5333306751719031
Cu 2.783579166330233 5.6298522959123884 2.0816066642633206
Cu 9.841332005472887 3.296427211161273 3.399340236271746
Cu 6.740448852045813 1.344213835835503 3.333508136617752
Cu 0.6344238167565353 5.498967115202646 3.422435303325305
Cu 4.425720119116938 2.1650105959651693 3.4386813907435445
Cu 2.250918529172251 3.349573662451947 3.507501772963847
Cu 10.491992935263962 3.330288498535591 3.6469962004245655
Cu 7.429558205369767 3.7411662957618987 3.6624975590097772
Cu 4.409764691778424 7.083356722059874 3.3128142739692383
Cu 6.7498655787977135 6.29309366936563 3.4199752173896982
Cu 5.003093044175433 4.554139555111936 3.8872510479484803
Cu 2.8295538633332598 5.536320333175155 4.568574557667658
Cu 2.0066406687686262 7.5621898980818445 3.4090581749209026
Cu 9.07563186228104 5.62518322420383 3.417715858027694
Cu 8.397677199136245 1.994799457738938 5.044786482598543
Cu 5.958416048996538 2.5164109590741592 5.371840742873214
Cu 9.841332005472887 5.0407097351291075 5.331527162384075
Cu 5.825844938702947 7.490044879776106 5.3438843670961615
Cu 8.247733461464447 6.758024506266657 5.485166003312314
Cu 3.6173794050464427 3.2597626749549513 5.545025768730173
Cu 3.2925435069860978 7.804731186250114 5.454456493466372
Cu 0.9082683855539008 6.686990102622634 5.575102364507081
Cu 9.155676540758352 4.338256855045476 5.489133386056582
Cu 1.196015197779545 3.9286170859359224 5.6408169784656605
Cu 6.699983388735867 4.936821983985146 5.7082731297477025
Cu 4.4448911354644896 5.676849215324789 6.319034205634878
Cu 0.4055828322395835 5.243830618681944 7.4900091165697855
Cu 7.621345246307721 3.162015768554486 7.112860078304144
Cu 5.134659273933655 3.580377908789846 7.459633205085173
Cu 2.69276724999105 4.250207148461366 7.593474740790492
Cu 2.4322041684123676 6.655709372245529 7.5077015434492935
Cu 4.562267210431667 7.873943557148945 7.526032202369871
Cu 6.621712571717984 6.6742470641688305 7.546695899791622
Cu 8.673632390596731 5.413138724440492 7.560863042495154
Cu 4.521397943160557 5.659226515042399 8.720461539287358
Cu 6.7643617855622455 4.6592382375790145 8.895858611795566
