43
Energy = -126.65459999 eV
Cu 8.656080078164546 7.624194804110113 9.386571861741098
Cu 8.135455175179901 5.538817184704341 8.120315353612877
Cu 7.042603166029205 9.376931281650398 8.563723442477404
Cu 8.041801907389312 7.772971690074371 7.054850820124678
Cu 6.376158795659243 7.058750154775363 8.907286719652776
Cu 8.858633964911329 5.967705568621514 5.621902797312479
Cu 9.291319761522098 3.8327127849872333 6.783373037389736
Cu 8.500445431674361 3.8077719704715847 4.350419455843856
Cu 5.498454818245784 4.804664765937816 8.220347182227691
Cu 7.348632076285227 3.1772290101560023 8.270492068164756
Cu 10.147412497922991 2.255074056652991 5.1891506936949705
Cu 4.02785202876384 6.580545288684645 8.969553637073547
Cu 4.723598685406519 8.7388034925844 8.113819782965816
Cu 7.860539182049465 2.045189306418894 5.996632767197209
Cu 6.218720586872556 9.212541041625272 6.2093991277185285
Cu 5.034867277368124 2.6366777533248107 9.130603906307995
Cu 6.9468730465940425 4.536904704005395 6.221187853707313
Cu 7.508396243721865 7.74468973643008 4.6939120233810865
Cu 1.733869418200382 6.185117039723324 9.471847944441109
Cu 8.438315336691403 5.95500622379165 3.144661853577918
Cu 5.552641394985858 6.79078833562778 6.49523269832239
Cu 6.154646211387939 5.659981800177888 4.106128111266184
Cu 5.560901788443972 2.4404753809390276 6.757522716138378
Cu 5.136234218498577 8.028049038437032 4.220685177769075
Cu 4.534217296453456 4.6808789668322435 5.7297623374511835
Cu 3.3142850694501487 3.0971020044675748 7.314133203969642
Cu 6.965642095811388 4.074504353491111 2.378678111145779
Cu 3.740743640906093 9.031888951851712 5.948569899059408
Cu 6.756679591398524 7.579079664659065 2.3667981639481406
Cu 6.193687989691928 2.9275288065603657 4.426631207896194
Cu 3.31241425421626 4.310356180423197 9.45794779533219
Cu 7.6338883510989 5.879752393223039 0.8029444419131921
Cu 4.446829342196493 3.971284436129184 3.1571944243706795
Cu 2.4232439818362943 7.8221777895300955 7.684644894153478
Cu 2.8378236114011393 8.466064641462635 3.6742674312791923
Cu 3.8246918521045012 2.4449556328145805 4.997555691539615
Cu 2.4138350820205 5.340049342892326 7.318182322552741
Cu 2.3774366872721537 4.480864506459246 4.910292902825927
Cu 2.979925938943234 6.810063820628177 5.514355420463103
Cu 4.400702666926821 8.013003681136645 1.8298108103833404
Cu 5.327745551468901 5.714797496233402 1.5554845230610848
Cu 6.041679424370439 7.580455651720411 0.07610620454698921
Cu 3.654862523781423 6.189813330431806 3.3290271816618873
