44
Energy = -130.63011855 eV
Cu 3.6865565386353856 0.803197110433198 5.779738051503568
Cu 2.5637532561087304 2.9059911235541684 5.4383681709609695
Cu 3.441188454259182 3.9809863285228517 9.371787745285003
Cu 3.4517776098001027 1.6126456282739794 3.452348717029395
Cu 2.3970612008657843 4.5896280765526996 7.196434117279979
Cu 3.4378203299337127 2.2836029244137697 7.682277981134276
Cu 3.4520902724336673 6.305507171503675 8.593019725294582
Cu 5.356947007530752 5.351357652355956 9.794367660459379
Cu 2.4589118104492975 6.9628366892767355 6.272054422873019
Cu 5.653670648440588 0.8604965597788342 4.365182196188502
Cu 3.064375867535561 6.906871113397176 3.6633423279122885
Cu 5.676375711074713 2.975348072488901 8.971285080641081
Cu 5.686871422833811 1.9011702277936031 6.714541722968298
Cu 2.915911766379383 4.0380523208901655 3.25705379443317
Cu 4.883478541274738 3.1477951440722998 4.701754812303797
Cu 4.882120069719681 4.37736028042428 7.264856913449923
Cu 4.957081972230574 6.876096316431356 6.676551677590984
Cu 5.580014482184795 2.5827116183695615 2.4746463132202923
Cu 5.483368185351065 7.681911318350019 9.008926930874782
Cu 3.487103294167052 8.605065532890034 7.809994515313767
Cu 7.41633825837072 3.726836726336661 7.157084684582478
Cu 3.736921086924114 5.205039754605479 5.21221640422653
Cu 7.256191495321705 2.621982298390683 4.924202915956977
Cu 6.325880058394426 5.119126700131742 5.368162183328725
Cu 5.055314914876395 4.994034700478494 2.942374355079861
Cu 3.9156219007804864 8.779683820797167 5.392733801467207
Cu 6.83821835922489 5.911979414099914 7.978928551706066
Cu 5.771311920555846 9.210966574719986 7.073936324573402
Cu 5.465940881579006 7.130649486759113 4.203307144581131
Cu 7.3326437618963745 4.17338544096577 3.099798858832009
Cu 4.379444876611503 9.042685750834446 3.0415629247430775
Cu 4.626182373605193 7.04692904861099 1.7580134249782164
Cu 8.722574824851142 4.59898616390913 5.178526687631453
Cu 7.805471252352571 8.155116308133577 8.211608575032066
Cu 7.357674136500756 7.429688007659048 5.928385352714454
Cu 6.79024263121154 5.972960193192917 1.5429775957625032
Cu 9.103160796760536 5.963014291859686 7.178415321454929
Cu 6.242818657050698 9.496207554111903 4.6659446494230945
Cu 7.945247839856364 9.920841584219097 6.370311961563615
Cu 7.911954021548874 6.440033352807908 3.6652000499820496
Cu 6.763018715767927 8.283232885567676 2.5247773291957896
Cu 9.985862202298344 6.6406903438957166 4.92188392891701
Cu 9.65833763613193 8.278869377136337 6.618455067598573
Cu 8.600360704923583 8.729742625226068 4.284244443708437
