43
Energy = -126.2682093 eV
Cu 9.372871192070985 7.56507627844463 2.68209645903268
Cu 9.501331961936426 5.479639961510323 4.061476156814631
Cu 8.674008437836857 3.587147131939684 5.364252062573759
Cu 8.852865064847423 3.3410914340538156 2.9447694903446684
Cu 9.368853264829399 7.7149484715489205 5.100913344925876
Cu 7.318108987547121 6.720507095107015 3.73971627810975
Cu 8.901339293512768 5.72125651358731 6.471357899887245
Cu 7.687458762131944 1.7610096825717878 6.620909876998977
Cu 7.311744140502871 4.058731965901781 7.400164872027984
Cu 8.546767560526881 5.464033738759199 1.8150653642231935
Cu 6.952032210521234 2.367996794459228 4.176736205350971
Cu 9.245601388728469 7.965313089196571 7.557494233556613
Cu 6.3464496229519805 6.508024604918601 1.518741457176138
Cu 7.810267372057294 9.127612039308241 3.7855747079601514
Cu 6.6316027077676605 4.2871644552510055 2.692438287767468
Cu 7.139681626996779 7.443025856964569 6.259343426279281
Cu 7.6365123074078785 6.248692331132446 8.535675703465332
Cu 6.126875871108197 2.3037447231493124 8.474923875175556
Cu 6.428709252369077 4.971617092285736 5.226168584616976
Cu 5.499672002840497 2.579437362464126 6.095338760173164
Cu 8.275362076786747 9.719196393433323 6.092999735686123
Cu 8.794497479817107 10.341189929436826 8.332617379438085
Cu 5.563224115881249 8.29007810481592 3.0926410206291908
Cu 4.8797806349957735 5.8372716416084796 3.3474561620014565
Cu 5.8851795222186265 4.665070676615579 9.368563547806719
Cu 7.204926780927602 8.627143225805623 8.720150209564071
Cu 5.454167403458729 5.95001716325238 7.336614803854697
Cu 4.703940730717361 3.411391214005631 3.9695325501858214
Cu 4.257495874438754 3.7504491318483213 7.779001467113087
Cu 5.941162612337495 9.49044852579121 5.290405046609077
Cu 5.491403454366833 7.169623087056104 9.592478543281345
Cu 3.075380592319452 2.8580540006176864 5.814984542610101
Cu 4.87894812321753 7.303081736902792 5.252698428208105
Cu 3.8722950038880555 5.071719919438374 5.551134580367607
Cu 6.41668549280356 10.543068177168735 7.5128858710458735
Cu 3.601022953552073 5.688047728765474 9.099089518564938
Cu 5.1436343846498005 9.687118661697259 9.503872947677541
Cu 4.992239033880309 8.543790313737452 7.399679662408061
Cu 2.0654568068279953 4.691894160189247 7.236658594453111
Cu 3.121701448373909 6.947760804012113 6.97580293652333
Cu 3.271080378852245 8.13317575937463 9.167999575186885
Cu 1.3984895542951217 6.62558832871528 8.665407861459455
Cu 9.501331961936426 5.24877849865633 7.63908011432507
