40
Energy = -117.34705288 eV
Cu 2.871199723478972 2.38847254114334 8.449202313000654
Cu 4.390981467518449 4.505955165572477 8.502005940834907
Cu 6.856201287508707 4.519246516948015 0.7907355245563853
Cu 5.055020308624632 2.3886586643523025 0.8108195947252684
Cu 5.763203424718344 6.912728986959879 1.6941512985131633
Cu 2.6172652333917688 4.014983238764758 1.2609858757714707
Cu 0.8721659402135762 2.4245492760370273 1.2613390700795892
Cu 3.159694384179574 6.394829997489246 1.8571357680041594
Cu 2.923497431409505 1.0764815763044544 1.716072523814241
Cu 4.923605836875792 4.617946856977916 1.9930114138777424
Cu 0.7311960970991703 4.591754630204071 2.78129304508477
Cu 4.103580396370838 8.396464577705913 3.1526152844822337
Cu 6.709337602021257 2.876633991365822 2.6923170879114853
Cu 5.385567567187558 0.5112340989231847 2.7163539612293763
Cu 4.1807492031750835 2.5077684213343883 3.0596908473502586
Cu 7.096861966080824 5.407408608640094 3.3031495621416216
Cu 6.476938815217734 7.826934344852476 4.064422624196215
Cu 1.6948777496450749 2.385746095108223 3.583006024669078
Cu 4.767622379586503 6.29780443944766 3.7801844862273537
Cu 3.027362822847306 4.59343188768933 3.532815190563768
Cu 1.346647780467747 4.73425014368448 5.20564182633242
Cu 8.396855824604035 3.3251992368175554 4.610979369217664
Cu 5.39901908985923 4.078977613397945 4.401384368261289
Cu 3.4622852313099837 0.617816070369284 4.400124755624121
Cu 5.915528594126535 1.7897708943125932 4.760767710756705
Cu 5.630834894247134 8.396464577705913 5.162697281765036
Cu 7.498323195643136 3.5886327334683825 5.3636729370383955
Cu 2.335087296041277 6.856441165688407 4.280216500634019
Cu 3.4331151113239238 2.8467725580567915 5.383326776124703
Cu 6.245640158671769 5.895217559534224 5.7885940881526
Cu 0.09083811885176023 4.104472645659057 7.038113731847752
Cu 3.74660349062691 5.251851863967354 5.727313668980453
Cu 6.91438436955596 1.5851443218668302 6.861290963204938
Cu 4.304563842910157 7.629521463470691 5.750392621234538
Cu 1.2673457898981233 2.211269025913908 6.044726633039594
Cu 5.345558409579655 3.566193030161389 6.858830441763112
Cu 4.482981743917337 1.1715917357970504 6.718459751066056
Cu 2.0236672911227394 6.425352125310279 6.849716491294079
Cu 2.6056852321001087 3.9454125975057153 7.399205803673413
Cu 4.492783806090449 5.885293629589871 7.777658883398557
