44
Energy = -131.1519625 eV
Cu 6.450607956785865 6.970274776927527 2.0110786652993906
Cu 7.885642800704492 4.944148137927112 2.3813211256635265
Cu 8.346742425221171 6.963318329380821 3.635438551151196
Cu 6.283631694633408 10.377173534331538 5.75614624325109
Cu 4.327025924388644 5.711652784357737 1.4717602881667935
Cu 4.266461737142155 7.618601952987707 3.049636098776118
Cu 8.500128673581786 4.601568413777024 4.726170082348516
Cu 8.23028577412589 8.711515322965715 5.5985961475135575
Cu 6.322975449246033 8.372209825843449 4.119799342278266
Cu 9.51026944735977 6.578602479243826 5.791899829850593
Cu 5.809607798327925 3.8451476210139304 1.7248342807174013
Cu 5.773449654827276 5.432614216792956 3.7032737426094036
Cu 4.247372258918154 9.278534821961818 5.043973144198535
Cu 7.671115282474226 9.906645775985838 7.685337027953041
Cu 7.124761203659952 2.9100598392521637 3.634073957184312
Cu 7.077668083665783 6.459410475696459 5.638048031907573
Cu 3.130318581009202 5.473279877596205 3.5099074597314415
Cu 4.593804500018753 6.907496386584034 5.347573380100262
Cu 6.008112235940558 8.253811438694006 6.880779286068249
Cu 3.3339729350628238 3.3741609978667744 1.9367593612362954
Cu 5.367814152865305 1.5446493606776721 2.35449773415849
Cu 8.309652068260956 7.466174223450422 7.7348431741422825
Cu 5.11560511453062 9.8972572538048 8.24843817153253
Cu 3.3065834387332185 1.3063192481930443 3.610190857160682
Cu 6.899921056361145 8.484415569457044 9.437385186503715
Cu 6.146013557869976 3.9506208761087125 5.781485708207568
Cu 5.691027178504848 1.2617124148725505 4.804761690398919
Cu 8.162252192758055 4.922303990546478 7.207216378274335
Cu 2.2096146383462902 6.429352549646197 5.673095584428712
Cu 3.4592645096787638 8.196354047148736 7.138615144519408
Cu 5.551157434487765 5.753645802541911 7.399414632700298
Cu 4.6488599364197585 3.265329095184009 3.886527445790874
Cu 7.921635034715253 2.534527479001732 6.168599166349021
Cu 7.064794534741997 6.036868893831915 9.273299057655672
Cu 3.8488477633406495 4.652128323595205 5.717601691885351
Cu 2.159266258167176 3.3650945790618354 4.310732171259303
Cu 4.76650594084692 7.468512489143167 9.029969270428468
Cu 6.545486005400685 3.660322049460059 8.482037741649577
Cu 5.746246957034233 1.8204499855675775 7.153841275160186
Cu 1.8768297419090352 3.938136448550565 6.7237985178016215
Cu 3.134497165113185 5.844245975134194 7.889985945148557
Cu 3.6043970259036877 2.1503633082011575 5.9276322767150615
Cu 4.818896608510875 5.067580576959197 9.636943505783996
Cu 4.128121447822257 3.5250563445591756 7.900700781886921
