40
Energy = -118.01917935 eV
Cu 5.463276205533166 7.140673146807642 9.490002638524016
Cu 3.1140957246402197 6.7482657843544605 8.755759897487835
Cu 4.260059047376104 8.861870834823364 8.057068741318558
Cu 6.886047701462528 5.104178333793074 10.094564185232874
Cu 7.965742045647971 7.17117900087017 9.568677572865036
Cu 4.771696079113976 4.9296937137902725 8.887499638683128
Cu 6.667743700209449 8.556141033929794 7.98863317985273
Cu 2.1329952751965453 6.816836968187194 6.445765900807514
Cu 4.565833563452128 6.753800311522263 6.84113527496641
Cu 6.638492420115796 3.4004892547833476 8.390431094073817
Cu 2.826232573863153 4.60915486341056 7.512702622712394
Cu 8.820425143608478 5.012732320544776 8.405162305300804
Cu 5.577724948662464 9.797933118115692 6.127927120483347
Cu 8.103592689745474 9.563564070113523 6.361974689594399
Cu 6.802236650124733 5.9056857530965585 7.59426661146466
Cu 3.314699775879979 8.873616239528555 5.792303548145722
Cu 8.785639486119617 7.404272368409561 7.316931534957527
Cu 4.326467939588029 2.6540145573965335 8.179970904515097
Cu 6.6663496177575725 7.538050440127688 5.691553868564434
Cu 5.245916790239137 4.4166116209276955 6.412084910112232
Cu 3.308273807784746 2.6775790942788773 6.016202595759738
Cu 2.936932627537225 4.93877804234285 5.14219155443541
Cu 5.101528496388527 6.0360616541280425 4.494623051615443
Cu 7.1813705785228255 9.449258100609287 4.137256200924083
Cu 2.8986199553355276 7.163049988365138 4.062277783015531
Cu 4.9623945595119014 8.535950958833665 4.084652207518536
Cu 8.907769913222461 7.722677210994785 4.8526300108118035
Cu 9.53473448889156 5.544911610151043 6.011681571341371
Cu 3.502810622034109 5.024604038522156 2.802931600717483
Cu 7.862342996310932 3.7305542746778646 6.406386701281259
Cu 5.841206487111743 2.157405070413475 6.171458993424378
Cu 4.73135304859278 3.4360008487212657 4.203905747568622
Cu 7.049688131620508 7.172102874661333 3.1669904942571416
Cu 7.510241630903367 5.362622174303947 4.658268019680519
Cu 4.753228335170516 7.012808184512096 2.2349842689315094
Cu 6.029137672193506 4.840667385193022 2.600586655165527
Cu 9.602994198157221 5.916403724768464 3.4701203792097584
Cu 9.4436621080488 3.662786486305851 4.438428061015539
Cu 7.084580208381141 3.0229747031839427 4.138095945464244
Cu 8.319925171319365 4.2074811750328225 2.34865716015551
