49
Energy = -145.66733895 eV
Cu 5.93539644799242 8.220679619239958 9.90850453798845
Cu 6.282870817555943 8.841243959753992 7.497383588100217
Cu 4.386667268052852 8.642605001261815 5.697053392769506
Cu 6.592101794124181 9.351799156824972 5.07744983132658
Cu 7.868242680444755 7.350744596519083 11.059653818429902
Cu 3.9839976090643265 6.760867275497426 10.216451956089077
Cu 6.484923176273497 9.667524912140834 2.667870474980359
Cu 4.090551854510014 7.937841572026171 8.094629254335722
Cu 6.05379790757773 6.317758424403658 8.437690010858935
Cu 8.466691111600408 8.657174050586026 3.6979160657423726
Cu 6.100169555849705 5.655168092709761 10.755010995301177
Cu 8.176472701280984 7.88903780251787 8.712916760357817
Cu 2.302946070201152 6.17101569620253 8.49782329623647
Cu 8.444596287158138 8.315497806985457 6.234174432667691
Cu 2.712098218381473 8.221616182737353 3.937038556929456
Cu 6.107755085057533 6.929226912250961 5.995117673963395
Cu 5.776707948235093 7.5376525948119815 3.575461391238835
Cu 2.3767261764088436 7.489507629424549 6.344415047874921
Cu 8.372540115515894 5.539869600041206 9.548172373543837
Cu 8.19929321454783 8.900097616565457 1.18690636683298
Cu 3.8760608972126303 6.910176415166789 2.106609862961606
Cu 4.256338896480123 4.585790100892701 9.27285833227587
Cu 5.956694919988942 7.809890769206716 1.0971419393704698
Cu 4.078326424188758 5.611382712756691 6.972950674561679
Cu 1.9038720596471115 5.9625194689687895 3.323555240490803
Cu 2.5228598112872422 3.860568223126126 7.62668217830887
Cu 8.331881434928539 6.0372629947939 7.116005314781085
Cu 3.905181655284085 6.313597169900972 4.650698705659122
Cu 7.900657732731453 6.773835310198817 2.2298025677624334
Cu 3.800456632565941 4.495321216789968 2.7553053387992543
Cu 1.756082744752935 5.247701609563294 5.736501955520114
Cu 6.639671893224976 3.8791589373391733 8.937050931252195
Cu 5.870795917144212 5.465412835871051 1.8715176224431593
Cu 8.111009211704419 6.421956002540494 4.635034235157773
Cu 8.895730170923214 3.7826122410513268 7.887480416970302
Cu 6.318648489975523 4.570474097692165 6.623428052416093
Cu 5.963659292968243 5.017509790927714 4.294218139093522
Cu 4.781100340152072 2.946020842841506 7.4202624586201695
Cu 1.777224845753174 3.574570680956331 3.787075949682899
Cu 3.643119678660532 3.8068870710047866 5.314787538045646
Cu 8.442434352659925 4.154470819144776 5.462576734587252
Cu 7.23353419791086 2.3043860589137797 6.878653063781509
Cu 7.984069536267788 4.437319525687245 3.0616779359451836
Cu 5.9415024365528035 3.094632605129801 2.7052900438366847
Cu 7.80181095419355 2.1657003282701175 4.244536365180267
Cu 3.7932108184482156 2.1569135810363775 3.4092607369932573
Cu 5.579283590234129 2.4377610911449503 5.124673308291841
Cu 9.5141700262437 2.1381085765725376 6.074911960383646
Cu 5.862395627752897 0.7974610496789615 3.3941432009306776
