42
Energy = -124.79016976 eV
Cu 3.870663676976202 5.852368288835124 8.747338649386645
Cu 6.004324084889609 4.520485398808654 9.125659360241965
Cu 3.606263182271794 3.473523898298053 0.37683557739009205
Cu 5.809614611768738 6.957409159589313 0.6911859659528264
Cu 2.074767706725106 5.297643630767622 1.4907773992875992
Cu 7.786982018337962 3.0531200229185953 1.2595770951987815
Cu 3.4352055954390064 7.3898400138554745 1.5458267028429968
Cu 4.564823298444831 5.278302166544358 1.8108908293031303
Cu 5.513648474850187 2.9725052264252727 1.8393699562380268
Cu 6.963609920265952 5.119923979697321 2.3016527211615494
Cu 1.566534799311661 2.5898907239977254 1.5800243638790208
Cu 3.7400600857796977 1.2694683400987028 2.1016587020650195
Cu 3.319741350409335 3.5404685236104303 2.8149088842122425
Cu 6.0895861463578065 0.8652801837636245 2.7676823447732066
Cu 0.9443434070073137 4.228722576513747 3.4043510141088196
Cu 1.1069172876139157 6.904530351749522 3.3844750248408104
Cu 5.521422065495412 7.002242563584943 3.1885150374756392
Cu 3.1402532600051574 5.93445231945045 3.8494143738130044
Cu 3.4630376229709827 8.342111326608414 3.7296481296990276
Cu 5.08389731709153 4.6152434514501035 4.366715417169161
Cu 7.185242875697917 3.047169765221449 3.644193588946377
Cu 4.182198735158462 0.019396652080054127 4.403735854715597
Cu 0.6394607243643389 2.8231156690875414 5.543758874837657
Cu 6.7583150621008885 0.921422263658172 5.042439165376856
Cu 2.1011890053866416 1.6090009594008796 3.8944700034667914
Cu 2.7545035004021314 3.7457327120027952 5.098233115204112
Cu 4.797822393652998 2.235825527274688 4.442683304377252
Cu 2.906742276718084 1.4781255359878198 6.214898312960415
Cu 4.859456000616066 7.071305374930797 5.4968179052073785
Cu 2.312718443519433 7.528627195868444 5.633040601742197
Cu 7.109667077029263 5.610211064752682 4.802564480436588
Cu 2.067884146847288 3.6311469200808477 7.458904959226822
Cu 5.274328020443014 1.153661992394666 6.88990691551688
Cu 1.048812747145921 5.400492313416475 5.5541405187593424
Cu 6.743450492784387 3.2522565680145843 5.995337419637866
Cu 4.426033610517452 7.182996581131256 7.918017256700519
Cu 4.446866344361979 3.4095034098595978 6.703059663823145
Cu 3.259642471674963 5.601773754746771 6.635471405541486
Cu 3.752427240500134 2.1753007970675564 8.613101179210135
Cu 5.856525335221208 5.389982449484545 7.012601991698493
Cu 6.052525624735506 3.077339954970555 8.407195592584593
Cu 4.120188277686363 4.689776710577399 8.747338649386647
