41
Energy = -121.34765029 eV
Cu 3.3790507669138234 3.081576349310104 7.7795872046927865
Cu 4.7975394860762455 4.797948978606641 0.512843215375938
Cu 2.3160107337627136 5.458069840989045 0.23478271174145587
Cu 5.367529558362272 2.448571267287348 1.2630834276971548
Cu 3.3665691054578555 1.1739792677955354 1.087163820946827
Cu 0.48779347346313545 3.8628278585117464 1.122396632136684
Cu 7.379991131516548 1.2037027179344233 2.4123507684476775
Cu 7.234486856893806 3.7890892081135035 2.326356654571157
Cu 1.2246423355353844 1.6655371297377688 2.1333926975428534
Cu 2.772290049320155 3.6448646754098863 1.6651332001175527
Cu 2.2293540501125695 8.12503055959481 2.3531045406598827
Cu 4.898217817398887 4.263314615423837 2.828655473209222
Cu 3.701129188424482 6.298181988230659 2.1418809930233293
Cu 5.069324250515029 0.3404200784812067 2.784713932485144
Cu 6.248837732287009 6.259577055900682 2.6683015540298674
Cu 1.2022364206210912 5.821111149402645 2.5320576974486433
Cu 5.87057847889828 2.334396123532316 3.8288606937868446
Cu 8.160621826973744 2.518566979887716 4.403029335152837
Cu 0.6829035739256765 3.470082149039263 3.599593051944774
Cu 2.700077102147568 8.178570797138537 3.0685251112573817
Cu 4.52182068950398 8.178570797138537 3.597864371672224
Cu 3.382714390773055 2.170360338400016 3.4811715330712185
Cu 6.699850574397029 0.4308451030483435 4.830131093548221
Cu 2.7695938991380054 4.687580307850136 3.914524831037539
Cu 2.428018830239191 7.039606353900426 4.518931207619925
Cu 1.3177428588758509 1.1518974038391692 4.635825157313485
Cu 6.84862439349767 4.656638465755122 4.629900188718729
Cu 4.697707467494142 6.015802319082825 4.526138039732494
Cu 6.625604274448207 7.18347337228467 5.053160102928868
Cu 0.8844313816660818 5.138387475919536 5.420707966751202
Cu 4.585651269178016 3.7216275672644166 5.249564062245653
Cu 0.02253446669869796 2.7785751277239714 6.020005072192622
Cu 2.318744349374016 3.0777641906063753 5.59579138964488
Cu 4.205049923167052 1.2661704477776328 5.619553721320412
Cu 4.375043435332274 7.647486790706314 6.156645312881663
Cu 3.13322228652579 5.431840193835785 6.437233161585269
Cu 6.389527090809315 2.5781249604517322 6.2696704502764975
Cu 5.631598148894886 5.344704247904649 6.726842179865836
Cu 1.9923675650170805 1.4138155218572548 7.166944372178101
Cu 1.5254145559183765 3.9292843860601 7.652752070884339
Cu 3.9621138050916507 3.1291184455159824 7.457923605513654
