49
Energy = -147.17045899 eV
Cu 10.430610422619536 6.3822755697406395 7.166269831124639
Cu 9.109947931329586 5.789290224259529 5.21474120577124
Cu 9.904101256751622 8.229097249310962 5.62487981196758
Cu 9.580546275531098 4.097025773494042 6.996466367301326
Cu 8.61553072599106 7.463171368559056 3.4806840273100406
Cu 9.442390469630247 3.4993859747169687 4.420826844354469
Cu 8.73380013401934 9.771408687461273 4.136326103503269
Cu 8.921259469534924 8.115150886971389 7.928869997473827
Cu 9.192560894182353 5.859978681720279 9.19828589244257
Cu 7.529758035597602 3.4159644817778765 5.840954329997825
Cu 7.811725473896613 5.758860429254915 7.31633645419928
Cu 7.964286152395204 5.066579255071206 3.1941481158523817
Cu 8.17531061276068 10.037202826768633 6.510196614278629
Cu 7.556167663005993 3.1638087109375803 8.211731768164695
Cu 7.5207941827371805 7.830023730921013 5.717261301926617
Cu 7.234054130539018 2.7567706602751207 3.465702779406495
Cu 7.115643427027316 9.146484910271203 2.389035744456343
Cu 6.129451701322455 1.2555510206843374 5.0389036248758154
Cu 7.208257209649502 9.657050887513192 8.773156750049287
Cu 7.077509769091099 7.304608361410356 9.322042208766101
Cu 6.948015072908819 4.929052387360193 9.609937205400364
Cu 5.640764773739882 7.003878437933706 7.2221156578781445
Cu 5.629406641213641 4.561855740989087 7.305102244678637
Cu 6.389704784093961 9.970384354243656 4.547604538282621
Cu 4.953106104601693 3.42311768883035 9.26862928851993
Cu 5.11230004018305 7.795253407476176 5.017586245562688
Cu 6.447090261166026 5.692496450516851 5.131413642148572
Cu 5.224302503562116 3.5070311333423234 5.091372142623921
Cu 5.541223286997363 2.0964732009944385 7.212533170674712
Cu 4.678271816192891 8.817796606932646 2.9061559175668927
Cu 5.552753312023853 4.514946218646649 2.8912530359494735
Cu 4.844220273450683 6.029415480972728 9.385984222255157
Cu 6.290062102305894 6.901173703865696 2.900343832179636
Cu 4.853119664021691 2.1188521796491555 3.1619095538221496
Cu 5.765668603257451 9.49092150026634 6.850804303790444
Cu 2.797938747603207 7.168962060474744 8.898375494851765
Cu 3.965380036486572 5.631970823038877 5.647415478284051
Cu 3.6476004415710968 1.7960096849601628 5.414237552191431
Cu 4.941749988894302 8.522361222916091 9.023698668179819
Cu 3.902887571239381 6.344548529531753 3.2500819199441917
Cu 3.146858667195671 4.809967062310146 8.125812099795901
Cu 3.9885726125702505 9.946591474170717 5.078215085671844
Cu 3.234462940245707 2.4445096268429416 7.752719664446295
Cu 1.941852890983942 6.437662901476225 6.701420090188938
Cu 2.6625302783042852 7.893428056454619 4.676991235998775
Cu 3.5323790091895337 8.32614533330475 6.936353963893558
Cu 3.2401995995538138 3.8584321094388905 3.7555447541317557
Cu 2.258393253221337 3.863868436726267 6.046295763098216
Cu 1.7660654122141501 5.653791121818656 4.393860081372572
