46
Energy = -137.28039884 eV
Cu 3.1381788667725043 1.4924731857786473 5.533214315010696
Cu 5.527741833023184 5.761058053304544 4.9144836030280725
Cu 7.785730666646018 6.5894890191063045 4.484983984827346
Cu 6.232360449212314 0.1890916111124612 3.414017091180286
Cu 3.248050147751808 5.390872484393979 5.274819644332589
Cu 8.255598842760445 6.278122347156541 2.0044841884477185
Cu 4.809342941667802 4.926399466510215 7.270995953039844
Cu 1.5230410234446 7.057390522709481 4.730761016418682
Cu 4.91316044508186 4.181909786003382 3.107387062842203
Cu 0.8103656294246683 2.1930887934584833 5.195271755644309
Cu 3.870831160253904 8.896961597521681 4.343003661437225
Cu 0.8226432727907617 3.49279389244575 2.72981232575325
Cu 5.921441502639453 8.23116600939065 4.707462055017033
Cu 2.037261484725233 1.1673351896701631 3.2612508200432204
Cu 5.141481907989373 8.896961597521683 2.3356645067257356
Cu 6.680552020076911 4.703432799909405 1.0821104440825244
Cu 5.786414274511114 6.49260073671283 2.6761035748383883
Cu 4.1440094251385435 7.325541817727622 6.348473726916378
Cu 1.56447358548732 9.15319406353496 5.388780030609145
Cu 2.791741513564954 5.508378633473823 2.899133687459919
Cu 6.382040754798713 2.4907472163186797 2.0800585236884204
Cu 6.8292443182355305 2.365435478865411 4.504680191611168
Cu 3.7469267163395052 7.580511688727845 3.849725264154154
Cu 7.439462937527799 8.38630823432747 2.754746230662583
Cu 3.8333405338649493 7.211230291830168 1.2076558220932057
Cu 7.375491371621212 4.449744090165016 3.403258906822327
Cu 5.517216126650281 0.7324189115789256 5.757156878409487
Cu 2.7428854548266366 3.3644135006645035 4.1222125893590915
Cu 6.478217495227593 2.5288118336929135 7.17360803802373
Cu 5.7366191791414405 0.35778170442737856 8.150561722719221
Cu 1.9364966755496205 6.098770022591256 7.041727290942927
Cu 0.8701336854477739 4.712301800945456 5.0284574339553565
Cu 6.3431951503825115 7.304181674659677 0.5989130585077188
Cu 1.7631136604039608 7.648362217328026 2.290639769990582
Cu 1.7440082724423454 1.2907483383168095 7.446792286596591
Cu 6.589859669078601 6.785991951076766 6.743565818140722
Cu 1.770171301755879 5.293357124849552 0.8639890585032692
Cu 4.314952496104574 4.925916214454803 0.8286111613483137
Cu 3.022480193912017 3.0602869757333355 1.7318363600079654
Cu 4.133265258174228 2.097670977866585 7.710700958861296
Cu 0.2791169629371059 5.854017808530288 2.8987384927949273
Cu 4.82433818338103 3.3147875706531256 5.514140551118867
Cu 3.627564158623014 9.036931411716001 6.97689802653881
Cu 4.4834572410079385 1.7377760927215047 3.42923333161664
Cu 7.239057810018545 4.44970357753406 5.918491451978803
Cu 2.448151373968456 3.6117468142878324 6.7466153082830465
