42
Energy = -124.17469086 eV
Cu 2.302441934581132 2.5371162748348284 6.7812165936113376
Cu 2.359027723576855 4.885608768902845 7.6618516421614205
Cu 3.5353753521243663 3.101300733401395 8.912905359388578
Cu 1.8536012761998197 4.559802392861286 5.213528268420812
Cu 3.4899654293641036 2.7544177226004147 4.6293694707461075
Cu 4.455349128668685 1.220288862270361 6.326347712931918
Cu 1.6108148632799588 6.796493330295607 6.239980096956793
Cu 3.378396217151613 7.350962019564442 7.841373412293369
Cu 4.484564488582083 3.5305632738548582 6.767205204829116
Cu 3.4618750735629367 4.878063467021681 3.3776701679795966
Cu 4.617124211229212 5.396660727243961 8.534151389026125
Cu 5.7981142903366445 1.8092561866165386 4.320959465444996
Cu 6.036627611662076 3.4478704387815124 8.711985947929117
Cu 4.673258125016039 3.0661433371061677 2.494560265262616
Cu 4.854055918548614 6.774757635781224 4.0572504845238155
Cu 5.62343231249682 4.287322526760467 4.5441923510358535
Cu 3.8915842721754323 5.761864725273283 5.968498450304903
Cu 3.6800074279001724 8.332548557826076 5.64262395763701
Cu 6.835376484745442 2.6086580614630392 6.412300786110473
Cu 2.3917295139036656 6.951489365599213 3.956599907821264
Cu 5.7523816057918715 7.226233447962103 6.754321425962076
Cu 5.325351145271347 7.704991597334395 9.218977104389992
Cu 6.987729137757737 5.904057373055696 9.00627694767957
Cu 8.335015301920686 4.051843627472449 8.06712371976373
Cu 8.240922204642642 2.3153657911684915 4.409403866023651
Cu 7.01191310552731 2.9178765332679166 2.4132343070531848
Cu 3.943305941024327 6.762790516719366 1.829336998170631
Cu 3.9140570251131925 8.84574972068005 3.1956973362020475
Cu 5.905355796018698 8.904211901325356 4.7590220568797745
Cu 6.434358612048485 4.959734895142426 6.75696230157481
Cu 7.106078458532584 6.407229632501441 4.737320213720639
Cu 6.054130358632755 5.324707739183182 2.363538303295842
Cu 5.566077557935421 9.442480211684597 7.298876685671754
Cu 8.575875905965274 4.381587563630228 5.685800816483152
Cu 7.544353763035733 8.245350375841626 8.459910313958531
Cu 6.138558880684073 7.9092258533169595 2.388130485488538
Cu 8.445988171641154 6.405422648290193 7.057478791076778
Cu 8.312920138513922 4.611919897993488 3.3738007231524145
Cu 8.139015238139558 8.567721422914408 3.7144432279355204
Cu 9.41868791098965 6.598921156242055 4.640327944718117
Cu 7.887414452266124 8.556490048394403 6.096305574374073
Cu 8.224285929123496 6.68304865064309 2.255520650307766
