48
Energy = -143.41619287 eV
Cu 4.935146108672314 7.02629069712051 6.123331604935001
Cu 7.400111969232487 6.741780878985171 5.565713701744948
Cu 6.679512306264325 7.17829164294529 8.023543422723446
Cu 2.444824287524801 6.411527163160639 6.529103749273329
Cu 1.3760503263001727 2.5898023510677857 5.394833380686714
Cu 3.5664451651349043 2.132050151022681 6.563054376305458
Cu 2.3477460912756216 4.741149048127558 4.795784401925402
Cu 1.6111563754739917 7.673814904423722 2.1065163523466546
Cu 0.6092804962004938 1.535486846215823 3.181161000520881
Cu 3.1129743225764037 3.441458121761313 0.5794729056973222
Cu 0.8596305977869759 6.523216247247838 4.2129952443838565
Cu 4.468857830688095 5.981909458677829 8.384059057406848
Cu 7.660141833905853 5.584492512372428 3.314283666686851
Cu 5.794188167503412 3.5945063792359404 0.8170911993072374
Cu 6.7461490027562725 4.9838081316001075 9.315244242795263
Cu 1.6775810832416722 5.48926698902641 0.0873926255699766
Cu 2.3452241959765585 3.1219590686490837 2.997156496211458
Cu 4.032006107084746 7.209077715482968 1.8391825794793037
Cu 0.18684572818427525 4.0837258246370585 3.6802508429708864
Cu 7.82524371221027 3.204652470766978 7.6039063208090925
Cu 2.2263056848472544 5.44111038242844 2.3751570862287523
Cu 5.698899903129434 5.12001778549346 4.68229136527201
Cu 6.3443043170367845 5.054308194441524 7.0423317309449
Cu 4.083514110975985 4.598928916641268 6.452659262809603
Cu 6.4691485001927065 1.17173181836663 1.8242615369533388
Cu 3.394466312614543 6.842550765149116 4.177638325837005
Cu 8.566125027854111 5.61357737842587 7.551352906465364
Cu 4.52341616376331 4.759014038773143 2.571896191098661
Cu 4.506187878885168 1.3370301447816437 0.16016751169523352
Cu 4.207339443203157 9.129217591469285 2.265101391816336
Cu 7.888585040572477 1.8885557117475673 5.136509996190537
Cu 9.142498143935448 5.818541495690344 1.8883222494735747
Cu 4.9600989253934396 3.4137529289816917 8.352575974545635
Cu 1.8356940536570816 8.613855546460949 2.8151215493690795
Cu 6.206755529586958 6.076842929300339 1.4017303611656982
Cu 4.479835129811128 2.266230172505873 2.317815939084648
Cu 4.17761814461717 5.508667780806764 0.1530747248484879
Cu 2.9893566008114734 1.0251601800321997 4.194791025296366
Cu 8.042642039202063 4.289041325299998 5.370934416855522
Cu 2.0924265067041783 3.8969669968059133 7.486057274817689
Cu 5.949180530205488 2.7904922348277696 6.101253833264541
Cu 2.277475793774495 1.255203349635533 1.345681022521217
Cu 6.642777803543878 3.2232190295244036 3.34393466322305
Cu 0.34138110084012285 4.876291572473015 6.081432409366565
Cu 5.586910628280367 1.1069853368902889 4.212939827646246
Cu 0.7026072091138184 3.4765426228140703 1.2876781801839972
Cu 5.798229768927617 7.250156668334651 3.6064082299146043
Cu 4.218542082699687 3.167030198768638 4.490390306278744
