42
Energy = -120.39153419 eV
Cu 11.839164341759014 14.061657590601651 14.602738893044428
Cu 13.227132659509335 9.485839356677218 12.567228593799031
Cu 8.984152971888753 9.277422175120474 10.990251326209892
Cu 10.641579595895166 10.537497024153193 14.67500937252454
Cu 9.99074840743462 11.444312928027156 7.519211785208151
Cu 15.513723449963274 13.528944025837305 8.61549553458441
Cu 15.03189236846863 9.447501158252729 9.080421828709152
Cu 12.098680688867852 12.036652145379849 15.898546353480164
Cu 9.745613989555267 12.759705821452421 15.484315045618443
Cu 10.274989174758177 12.54881583486914 13.22003261403326
Cu 10.66755916974838 10.530671087894557 9.639780608926701
Cu 7.068670529087662 14.722336280191783 12.365134800171287
Cu 13.106732548146411 10.548580931198584 10.308851456922628
Cu 5.59346696341126 12.712208144924087 12.237397035311417
Cu 13.774314913514917 8.05382133447726 10.639724865097469
Cu 15.826664428823186 13.905465164777235 16.196051300288474
Cu 6.945861195119303 10.774978873816934 11.490323616868498
Cu 9.248711354518388 14.661856797008133 13.820751336913537
Cu 13.455270886864488 13.918737744853015 16.513198322396995
Cu 11.569005567369755 12.653515792901223 11.143364549751503
Cu 9.17243369980709 11.673396655787709 11.273837000168582
Cu 8.160003410884253 10.962421562750363 9.222735656589174
Cu 11.252018625710988 14.83432865398292 12.304495644763664
Cu 13.789974969160703 13.116382565750909 10.227444327413371
Cu 14.359861726085365 12.621603847373999 14.653165084018488
Cu 14.445171941872152 15.01878433284397 14.605798304942315
Cu 7.273842043411062 13.014251726420529 10.50589113052217
Cu 9.223582906607762 14.14187687044989 11.41938782121226
Cu 7.795353507471589 12.627745815548115 13.244602463466427
Cu 16.079824596387883 7.6057169427195515 10.299817117621423
Cu 11.964434264474097 12.356857238386896 8.714099110115821
Cu 9.626795245541507 13.001186640200054 9.306401759530766
Cu 13.450537532945317 13.911253638266325 12.6160083322004
Cu 8.661506280665487 10.345432954997891 13.276630214178253
Cu 14.178796910977029 11.565958506157111 8.28526516402555
Cu 15.455603664729777 9.638445459139275 11.451410629259072
Cu 12.532783676720499 11.64673910987994 13.491371584926876
Cu 11.467966059252158 8.51501741898756 10.749742024075106
Cu 15.768772215641054 11.637836550847913 10.104275147748488
Cu 10.962691979306433 10.30344829961388 12.215385708450425
Cu 14.56073586015993 11.740103081359521 12.247057884966436
Cu 12.621354019416668 16.17018817328283 13.693686669154804
