44
Energy = -130.81718745 eV
Cu 3.346038789370921 4.362617376622151 1.492262828013935
Cu 2.2260777204567326 2.35604116811999 2.4411630144299243
Cu 4.63586938641061 2.306559661391446 2.2244527534396177
Cu 5.651450675834215 4.534933847316927 2.535004852252055
Cu 1.1414528021301633 4.435008273951021 2.696385669131753
Cu 4.639622528663468 6.496638047365335 1.4746354047729953
Cu 6.5472427055983164 6.8526501360660745 2.9522872917091063
Cu 2.3696320585174364 6.437910702312453 2.3035927241157848
Cu 7.858722042937033 4.86632231320276 3.4601007394230994
Cu 3.7030500830305337 3.87728676082894 3.953889202883828
Cu 5.748725045116434 2.411615987684417 4.478943938127007
Cu 6.732367003970246 8.867843752690012 4.353951180841205
Cu 4.688584245104707 8.5134446378688 2.9840424361170768
Cu 1.6013942256630775 3.053210778249333 4.7787863551660354
Cu 8.65690801587631 7.1451102053050874 4.132828939371673
Cu 3.4986529010175205 1.38589164570809 4.242181796475538
Cu 2.440828814987687 8.009682210422042 4.098537797625753
Cu 6.017891987343884 4.703972420164447 5.019676412546034
Cu 1.8999115995825413 5.623871730646889 4.670898502000773
Cu 6.161906424215773 7.017386917912853 5.772614065139728
Cu 10.024310545862768 4.940807971660154 4.441305381247913
Cu 4.288343275224185 6.322248632452833 3.9652711366433295
Cu 10.370368989512334 6.825916071770725 5.977057996816853
Cu 8.228628283871204 5.604669620834229 5.982724754446745
Cu 3.720757235367579 2.7733916341101335 6.1829099404201475
Cu 10.257748101725806 4.461100574049612 6.810060375343578
Cu 8.342819300157776 8.105854884301957 6.38002309710922
Cu 4.327108120676908 8.701085749696087 5.419048276908682
Cu 8.039193325986929 3.269500996911644 5.458092177558321
Cu 4.043481164896336 5.400064322485545 6.24887841956234
Cu 6.2280569414298075 9.239902611490503 6.817038750455772
Cu 1.979701024235013 4.412879057554331 6.851727922255043
Cu 2.500779175925829 7.27503877554985 6.434972817624488
Cu 6.221994067029581 5.278729777517683 7.531626426876804
Cu 9.21320654556226 6.333348234613117 8.115853697346221
Cu 6.984148449784771 7.478024180653879 8.370544322871206
Cu 6.041325602201903 2.904472371604889 6.932284002575991
Cu 4.591068179949985 7.58087184091048 7.687275491785396
Cu 8.208835985422523 3.901560102227713 7.933789695775422
Cu 4.064109035322664 3.9165103394751624 8.295109110649683
Cu 2.897154786278133 6.0177951064480695 8.514479056595544
Cu 5.114922045695746 5.903757945417296 9.559444710154944
Cu 7.587073041504988 5.544610311154816 9.709763075243567
Cu 6.189310746946842 3.5806333396807433 9.345256486548982
