46
Energy = -136.7112632 eV
Cu 8.037577977261636 7.034552850528606 8.732945869199332
Cu 9.433962064633022 6.463534193933421 6.697590716273072
Cu 9.502268337170072 5.113303273203292 8.704432396224036
Cu 7.119563060100792 4.953211563767013 9.826366197405864
Cu 8.104578303077583 8.565151530585737 6.738901925893119
Cu 8.394922883650091 3.0033436801431583 8.543880674843864
Cu 9.315774934513026 4.020750690026136 6.3449534524364255
Cu 5.75209555582893 7.065910283842311 9.753097350307854
Cu 6.8063107405614724 9.152717049353106 8.736230908326329
Cu 9.436290333461066 7.953443539861668 4.727655095044516
Cu 5.99285948634952 3.156756256345876 8.445205315908366
Cu 5.988555043078717 7.194280074588794 7.301507783540094
Cu 4.6298823171031325 4.919096878125465 9.582871341083893
Cu 4.792246529071182 4.901486873279371 7.123141680611605
Cu 7.326869836047916 5.0178491926336095 7.364902412870965
Cu 8.209803570907118 3.374714585392602 4.137846801733758
Cu 3.332559182579258 6.977213836655813 9.505204707059038
Cu 9.296495553840073 5.528620116071268 4.3082055412750195
Cu 7.361883971060283 2.516014787876325 6.414752319702791
Cu 7.234875620921598 8.999055664371332 4.437602073298339
Cu 5.935887465750703 9.691027574768777 6.449123782332019
Cu 4.4506730949387325 8.853273849535233 8.334399114641107
Cu 7.375657156729307 6.603112620994964 5.3539961188252345
Cu 3.5640406882827853 2.980743411496678 8.293693129295
Cu 2.496599737063362 5.129027461037206 8.084718407196316
Cu 4.8871565993002735 2.454942235569003 6.302240855186095
Cu 8.109881382559546 7.192670709419481 2.8120621540302486
Cu 8.24654667610288 4.883163278726978 2.1231832101215633
Cu 6.232883556462552 1.9124327329873074 4.29595750793007
Cu 5.127491101409102 7.730218165123074 5.005109969160037
Cu 6.195832598812852 4.2937379769643504 5.17809742543328
Cu 4.919303551365428 9.88528428309591 4.040339152784257
Cu 4.008528080675453 5.560263886806963 4.856455888637304
Cu 6.233781814988797 3.6363282297483535 2.5646721998328346
Cu 3.5762032228071643 9.419105600680245 6.107880974256178
Cu 3.4880279183409457 7.065256064221351 6.954768595265944
Cu 5.9979134440169135 8.304524857395352 2.4512687284393033
Cu 6.066696875594639 5.954674399548901 3.444476301406362
Cu 2.751993718946872 3.6548218452236205 6.025325485343596
Cu 4.156052892065367 3.191474139795642 4.028587312665738
Cu 6.198619070623805 6.051151747042545 1.1609925551782854
Cu 3.969286666686636 7.1015209734628195 2.767612935361981
Cu 2.646512295971394 7.642146199889258 4.6651094056861435
Cu 4.158861108840786 4.800990442416458 2.198825846837338
Cu 2.1554449366788107 4.7046258840243125 3.6654780856499016
Cu 1.6372200157049788 5.763484283578633 5.873837505226073
