47
Energy = -138.88405562 eV
Cu 9.555282252856506 7.417172736733668 4.149191629112196
Cu 9.022732487925376 5.221269316453983 2.975442615955608
Cu 9.494207352845306 7.2502244424106514 6.6176777745985405
Cu 7.806599663498258 7.347521164520646 2.2639188025890484
Cu 9.489694850521433 5.1996397133260555 5.361900518085048
Cu 9.753637013776542 3.157595730512786 4.096590028914644
Cu 7.8031274355511595 8.733243830610421 5.573354865141106
Cu 8.365012784577228 9.437782579943955 3.3669330647864912
Cu 7.226938721365718 5.135593109788002 1.373442422401231
Cu 9.274574175001181 7.17286396905481 9.054876947578382
Cu 7.945224099485726 2.9775381578774254 2.341915070508051
Cu 9.345457362023142 5.096248959721646 7.827955270536943
Cu 7.346564286928237 7.5496052813481445 7.662473910544262
Cu 8.56201321395224 3.134038100065255 6.505108397240325
Cu 7.23398386553545 5.199890241876247 6.592251046186259
Cu 7.347649331785825 6.478447304863096 4.510576325030415
Cu 8.14207649619139 1.5136402942066092 4.727432080957402
Cu 7.366162462704719 3.916388599986463 4.442174249799851
Cu 5.543147433131818 7.664315680946684 5.997618383513658
Cu 5.540755057091504 6.359949462540089 2.6392783116270966
Cu 7.333786412547159 5.660416314889973 9.197642868523651
Cu 6.094397047309766 8.55974050867396 3.720140060670436
Cu 5.5575279142110015 3.924062545547052 2.626237508345374
Cu 4.253454645097215 9.563852236146584 5.030571204987604
Cu 5.281205062196959 8.188109802820863 8.718129339272036
Cu 6.093848610694358 1.751145078601985 3.562872779810126
Cu 5.2562041567789635 5.261767455493519 5.011869550415255
Cu 5.258762416053769 5.957958506657603 7.755606242993289
Cu 5.21245742214259 6.320236710643246 10.288697983908909
Cu 6.187589643455114 2.4469860318109378 6.020030972508644
Cu 3.8529314789765285 7.422766545155749 4.034916238605341
Cu 6.408088547849351 3.550028201325534 8.212764773502919
Cu 6.173645274779341 4.082499568014993 10.615926607838903
Cu 3.4688191273026465 5.094718234649402 3.3237336984950225
Cu 3.4779152775444806 8.584076681736475 7.160636463977372
Cu 4.269539854743032 3.0117928166110777 4.507482307134518
Cu 3.325941796804136 6.269386914516392 6.211226290220901
Cu 4.278436924542184 3.790791081999911 6.862404943175736
Cu 3.215521965529731 6.812465018232577 8.888286186770143
Cu 1.9966574562251513 8.628854476017615 5.2422860430983285
Cu 4.1725131921035805 4.361617865322053 9.258927326350394
Cu 1.5981620162607062 6.375673079896123 4.330615520255496
Cu 2.328140359094818 4.191703165403425 5.369223090202027
Cu 1.3534195390304093 7.32631550979771 7.32073662014218
Cu 2.159434325305617 4.841830630729192 7.823515779469433
Cu 9.753637013776542 7.630769842564476 5.4598148512978115
Cu 0.39590271395283144 5.409352876184755 6.224836519526621
