49
Energy = -147.27667283 eV
Cu 5.454065486433323 6.054581666921873 0.6585388043137766
Cu 3.1072013397100227 4.980031828957086 8.893652867215788
Cu 5.0746832724459 3.4741735387370087 0.44373351277364853
Cu 2.693549383166542 2.8145150961452297 1.4871998315185266
Cu 4.484354061284976 1.0628742039698713 1.1828652970500635
Cu 3.1902091487909274 7.0943527670249535 1.27843530431095
Cu 6.477484859939877 4.522676766512886 2.530320938585568
Cu 1.5008898060644327 5.152994820828048 1.9287653319519704
Cu 6.7560828015005345 2.0681386733791043 1.6215488459939877
Cu 5.449994533244514 8.44859927026448 1.5864889494031702
Cu 3.8934098310627574 4.7911788202816625 2.0787267797332767
Cu 2.3700389962040784 3.5451684595417374 3.9678723726187246
Cu 4.821781979199952 2.730164530640782 2.8216401608918407
Cu 3.161174027724895 1.0913783328128541 3.3945521750375773
Cu 1.1381643513415745 7.573806694379003 2.7700604119100674
Cu 8.285985373629892 4.722017170290187 4.3712584359336635
Cu 5.691762204188547 0.48751039495147486 3.346101286084314
Cu 3.5230089913978997 8.58113196548117 3.2974301054552795
Cu 2.81228590626251 6.233947704687354 3.654196571609768
Cu 7.42154094113231 6.820836289902984 2.6242865161030995
Cu 7.079550158674422 2.578857507446376 4.042756211838904
Cu 6.205429367358061 8.491729410153573 4.077661745765939
Cu 5.064395644242061 6.6591483403718295 2.995034674595642
Cu 4.5629856523723085 4.581708362353104 4.466284651313353
Cu 6.40007112740359 6.069536549916987 4.881949189747394
Cu 6.7294879266694485 0.698985596602617 5.664034224273939
Cu 8.41679165747021 7.269397979459724 4.907388274029164
Cu 0.6989308871622346 5.544726289996686 4.5197230807399835
Cu 4.813663424710745 2.0294535570723475 5.12431240553425
Cu 4.345923159419347 7.457384126119562 5.398599799008324
Cu 1.8189933588561364 7.772315342467582 5.236310089973655
Cu 1.248016304956247 3.779535663972698 6.298344605008831
Cu 4.325622544611436 8.746825461683935 5.350085484295698
Cu 2.813778342548334 5.5678079353343515 5.92601072931915
Cu 8.235836131524113 2.782675440338155 6.343211438971977
Cu 2.4368831113703124 1.6198012799793182 5.7249852247135005
Cu 3.799881162900361 3.506787121018925 6.669569339486858
Cu 6.221210976093501 3.8591458710519166 6.053044519090409
Cu 6.532137365031551 7.714462691481285 6.5770474391716816
Cu 7.906416661066169 5.563346709306135 6.720782261506697
Cu 0.8175922449894659 6.184615341783554 7.012333076627171
Cu 6.335900443889501 1.9419262939747093 7.685911796843619
Cu 4.114797003154692 1.050494520692647 7.44474898012347
Cu 3.022216478060071 7.312232942051431 7.507637169377652
Cu 2.2588105161374785 2.468034338088097 8.192326756597161
Cu 5.041685418437819 5.74455187641306 7.191354566801923
Cu 6.749214349882347 4.1860346734850085 8.38675339670419
Cu 2.682972600169287 4.938154681124562 8.30212560580314
Cu 4.5533228789187525 3.161899203524051 8.893652867215788
