41
Energy = -120.94148483 eV
Cu 2.968383976889966 2.7919561662104617 5.831123789198687
Cu 4.757805829422658 2.5816652608636086 7.517345715121516
Cu 5.057311140828243 2.4457614066093116 4.566065721041122
Cu 2.0824294197717026 5.018634112743941 5.479366297450325
Cu 3.601617193561467 4.1853321952188915 3.758776025298209
Cu 7.1376767569766075 2.7764513433668094 8.579336663707117
Cu 2.990884325018546 4.759749428739595 7.781873967252112
Cu 6.712058284822995 3.121743065726559 6.1999632321828395
Cu 7.419936149660706 2.726207643632352 3.9135113968536928
Cu 5.541096208317714 4.725903819295304 8.394577613773905
Cu 5.6185637025367985 3.7548106059824775 2.3391409815241992
Cu 3.8772186738449808 5.472757739930869 1.7427112457506049
Cu 2.107184253418185 6.14906022176838 3.2736336104529635
Cu 4.586675444342797 4.5639660260255654 6.10040144845589
Cu 0.4595459215156584 6.75094257912616 4.9972112752411375
Cu 7.5276481886460145 4.862654780041854 9.951460787673533
Cu 7.895107534453647 4.859191808880291 7.5001093183638
Cu 2.278979148321661 7.06651847218001 6.6740697715714745
Cu 9.011506513205216 2.759447867823311 6.833023133183755
Cu 6.224829765382844 4.833584949331554 4.391544857179365
Cu 9.469388851875792 3.7440672107599853 9.03890928365099
Cu 4.212723146852378 6.5388402551935725 4.7427572459503775
Cu 4.474771938566089 6.812746104918329 7.615942301385263
Cu 2.2542993517821097 8.257843113334381 4.471203166091305
Cu 7.8995279711561475 4.7915017065450165 2.6745365947941897
Cu 10.347170838364955 4.849472003833219 7.0594413114930825
Cu 8.623396326463206 4.6016349930677745 5.119562985549212
Cu 5.963547564801397 6.377230328574466 2.5171271170354954
Cu 6.463795974949692 6.47854162710314 6.186674425232571
Cu 6.807807150363407 6.828348834126779 8.690844352112798
Cu 3.8780690014968875 7.7837003649152905 2.631509123754498
Cu 4.031197998751566 8.745366476645724 6.114767110149605
Cu 9.312010551610653 6.297393648838197 8.854138505919009
Cu 9.038780546067255 6.7871998030953815 6.33684084220701
Cu 7.879444224673391 6.802571937332919 4.103648664029649
Cu 5.905693895750072 8.323457486045282 4.074353514591964
Cu 6.064966018496529 8.744351291960713 7.403350852363363
Cu 4.013358732536547 9.849881305154707 3.954664584372717
Cu 8.460791683013568 8.461256702440819 7.988279178624318
Cu 7.752247300804998 8.7220114220988 5.642518345359653
Cu 5.845499255868211 10.300696654770533 5.519008789591934
