47
Energy = -140.01051831 eV
Cu 4.156445589817577 2.611400189182 7.833893309187741
Cu 5.263408054390352 2.3576394517350954 5.594423257479397
Cu 2.8570143405192723 2.229964762188207 5.783092274341242
Cu 7.634112614990559 2.7099672798963432 5.4923352656099125
Cu 9.038971364555621 2.092873706399987 7.3785427260329515
Cu 7.797238138574081 3.1933651301600574 9.221378706687318
Cu 5.483953692970931 3.8633297439383387 9.830293524631765
Cu 6.581860510623577 1.7143658658217336 7.579851766291331
Cu 1.9710738656782953 3.7805324029720473 7.355730836936837
Cu 3.687751486593911 3.2744510837896423 3.7789645918704573
Cu 3.7158148024427686 4.945529689490485 8.51755619500278
Cu 6.096810186833586 3.314529723375831 3.5002076317208926
Cu 4.141637307477467 4.565451876913637 5.877674480927943
Cu 8.378116102694193 4.158795614876615 3.568461482456962
Cu 1.7518681274500965 4.298701250792269 4.938378458019485
Cu 9.923095974763251 3.4818952708280997 5.463326984951245
Cu 5.0506979771204765 6.3297486363620505 10.007223981783614
Cu 8.576356246895712 4.466748578297312 7.267180186520236
Cu 6.725187900357066 5.040160918775059 5.388089060141717
Cu 7.1960798830876795 5.554726827017821 9.098830491087629
Cu 6.088016172460202 4.050962090556975 7.492504934019488
Cu 2.4024381850895864 6.077753432821377 6.67619138796434
Cu 4.48852230059425 4.100759210140232 1.6321728234639632
Cu 7.792345956859825 6.7853059741625055 7.0571504673368475
Cu 5.290870705981179 6.398558014097843 7.242612207729981
Cu 2.1877993215579496 4.679741188239532 2.489583327525142
Cu 3.4027692753097356 7.436450980638165 8.46261897802672
Cu 6.802790858964001 4.902123615634089 1.711724218651613
Cu 4.653179971395573 8.728886703118723 10.102850966099558
Cu 5.142808522637206 5.621216870419171 3.6022028067044456
Cu 9.122832526387452 5.797353562051744 5.260946640275781
Cu 2.877860332483775 6.318273217207274 4.223852567273168
Cu 2.811261999701942 5.005533738014067 0.11920969172839806
Cu 6.565598054349532 7.927342052102056 8.883030289475082
Cu 6.13866603623776 7.423492882614622 5.19656930909016
Cu 3.7781412459064705 7.925891601836977 5.907385154680544
Cu 7.632663933262244 6.51457704437189 3.3900516389804487
Cu 5.175393633029029 5.730464614788219 10.102850966099558
Cu 4.896095511626816 9.230583000126042 7.6802667335959
Cu 7.198859890846389 9.180948151917416 6.895513302961554
Cu 3.6472741655876515 6.529199778597032 1.7695952545440619
Cu 5.996888695689649 7.2650340798754005 1.7005877264986904
Cu 4.463796375369288 8.095298061424742 3.510554184534175
Cu 8.490017862652685 8.17516681354717 5.057013631297315
Cu 5.4056981892975235 9.727722423096127 5.271577788537834
Cu 6.814254172545894 8.920420365105759 3.304226802213744
Cu 7.734295842594185 10.491158246373981 4.917417385300271
