48
Energy = -145.39486441 eV
Cu 7.013237907521625 6.007268217038445 10.10647496364426
Cu 7.345792391690648 3.9867813745995964 8.659283044278169
Cu 5.018518605947734 4.642120384512461 9.472642908218297
Cu 7.656289613574693 2.0548843496352696 7.084449466467385
Cu 4.889336096333344 7.16198345724495 9.55147659743176
Cu 5.322714905340573 2.597488704263907 7.8898006481876966
Cu 3.053262908573097 3.33007353672738 8.615787024278774
Cu 7.2778992820958 8.112544886533419 8.741670004981744
Cu 9.026419292528033 4.137109390863114 6.6620726370591985
Cu 6.307077706852443 6.0807221027794585 7.850445832378116
Cu 2.880745975836441 5.821915882230495 8.838069677864983
Cu 10.251785228831723 6.302460245014722 6.207654161899112
Cu 6.588036817431005 4.075001581958977 6.329474704526686
Cu 2.7875513074953457 8.299037616274127 8.866609864091686
Cu 8.853062814149187 8.30923191907836 6.7880927030859395
Cu 4.245401225491971 4.731224981669254 7.097848386852047
Cu 5.729198527756434 1.8912984213470456 5.466599682817044
Cu 5.126469728351178 9.27097977408625 8.297733730853382
Cu 3.3388658493147947 2.537812710286032 6.252476709448168
Cu 7.897591615921462 6.226222310134131 5.983094998072195
Cu 8.004654836979672 2.8264271948532675 4.710934930221247
Cu 7.330626308612943 10.178882635544262 7.33812937926508
Cu 4.0622379763065455 7.351461497079852 7.14507045076546
Cu 4.616607451977874 4.026681372076156 4.697444069540259
Cu 9.19518318816571 7.540279527337146 4.313970889486967
Cu 1.6103795951118862 6.934396774562964 7.041461773509656
Cu 5.47329122394813 6.144332789220481 5.538902202485662
Cu 9.333000494553097 5.021740580341628 4.285739145786858
Cu 1.8146226855517413 4.491445189225888 6.767264877190713
Cu 6.347889977384981 8.272300104781273 6.38908269153131
Cu 8.247134747120935 3.759556991209351 2.4117307791852336
Cu 3.8055493336759576 1.941618137830367 3.8662030783552286
Cu 4.398998731087388 8.172865143266883 4.791085343223608
Cu 6.028539275872637 2.765393814228473 3.0525894786210146
Cu 6.687761627384187 7.565132005136166 3.9422350581359584
Cu 3.031685627325412 6.10593360095801 5.172573044026857
Cu 6.872677320883713 4.954024369039434 3.960090019656434
Cu 7.843160047934128 9.540387033768692 4.880268765290673
Cu 8.057809905554906 8.736206543649873 2.435264574989115
Cu 0.7228517949334017 5.7183522583760995 4.927188005047092
Cu 4.665858011773161 6.219159345218324 3.203449944505043
Cu 8.240485569426916 6.261971380740534 2.3727159121140216
Cu 2.182815159698959 3.8006313446415287 4.378863907511239
Cu 3.8901674993080437 3.9316374496765847 2.3431719496666195
Cu 6.126664733650355 4.824614002849991 1.6039344539429488
Cu 6.1572837403610166 7.286898571513698 1.5155702480409061
Cu 2.268436034013493 5.739729334295975 2.8465335269584986
Cu 4.021036089370747 5.958445951304708 0.9534405435150162
