46
Energy = -137.76957488 eV
Cu 6.371014057355356 4.095779276957275 0.6384400459639796
Cu 1.6572917726509409 7.577978236283273 5.237171881429272
Cu 0.34464658551562144 3.6247019694124893 4.453640223778966
Cu 1.295013644103083 1.395021615271305 5.01815130062621
Cu 3.2947160033134524 0.9279529851742482 6.303365964724202
Cu 6.062852803306659 3.7963081993099226 8.381631403641308
Cu 8.794713759731552 6.030882447336006 4.110678048393487
Cu 4.722554611380734 6.242662817151768 7.761210024419565
Cu 5.74785063296254 1.6537620372425688 0.5528484735720722
Cu 5.5052779030704775 0.7043487805588654 2.8467811562573595
Cu 7.530357455688662 3.449257474422671 6.311267975769225
Cu 4.644780803285866 2.2264368739758233 4.688412711345765
Cu 3.1875599608213085 4.766712148919855 1.8764118397593013
Cu 6.968617315755189 5.708406168572134 7.061586956444608
Cu 7.898592136079901 4.894618131490991 2.418560951916584
Cu 3.4346811624689066 1.304665603151568 1.5287868193318321
Cu 2.673955139152125 4.762201957797415 7.94343646066864
Cu 5.27285312587661 9.08340933785331 5.190630028908146
Cu 2.329680951146582 7.172896919217441 7.615119061877645
Cu 7.06684967267481 1.5622329643902293 4.666607300059975
Cu 4.6134286393988235 5.716476990610307 0.06767937471610601
Cu 2.5131308267348715 3.3956072430037496 5.841310803589073
Cu 5.661405150827213 6.299771380632167 5.026353725870663
Cu 4.090714251674395 8.06413506617375 6.026944224775364
Cu 8.1014459445539 5.556197258410201 4.894359397089798
Cu 4.9266555296893015 3.0591887341902675 2.3260961285790493
Cu 1.2356628580259685 7.530205346359803 2.887352167687916
Cu 3.649738783014436 7.051815973096468 3.6382051433804743
Cu 6.459166148557635 3.961395121436682 4.1385055164151
Cu 8.794713759731552 3.281635322548752 4.139443388216872
Cu 2.868759634735833 7.0148665098373275 1.2170573084669538
Cu 3.2790647851497408 5.857244403919672 5.880046531013544
Cu 3.1825935863805017 0.37901898821230284 3.8545195520173037
Cu 2.204757078384689 5.110105972756164 8.879101844025008
Cu 3.973361355980905 3.3063136967795788 9.14992235764624
Cu 2.448174282009345 2.7861919976576255 3.3211604927867318
Cu 7.3471533141149585 2.434339855645908 2.3074498818604554
Cu 4.119961171024789 4.537716170822619 4.087119871865364
Cu 5.518722714615947 5.715742250156057 2.432108244296534
Cu 1.8674768398854888 5.35418524833031 3.9326675299943066
Cu 0.8988547751628774 5.3830992720794315 6.252574770908347
Cu 3.8444716214855905 2.665319290078196 7.934057914120146
Cu 5.786950016839894 1.7437610748441428 6.840227516453407
Cu 5.019305239169823 4.136836262825702 6.335915423005695
Cu 1.691844824435113 3.0348384288920474 0.9801303844514344
Cu 0.749227693080338 5.294356517216273 1.8081196004040558
