41
Energy = -120.35779337 eV
Cu 7.365517388392648 9.66843687918151 2.738424910134791
Cu 8.616228370516971 7.836011715842357 3.7011223273597382
Cu 9.401922111798063 5.564287559950647 4.107791323521029
Cu 6.867316459470042 6.049809400412514 4.175489547562342
Cu 10.560161898841654 7.576986380628617 5.112261393082816
Cu 6.5414119968886455 8.51081381608911 4.671042659833194
Cu 8.811189605312222 10.154643270815749 4.5868613961802955
Cu 10.928827292689911 9.856488382130738 6.142004961065663
Cu 8.334709676240305 6.526431605810385 6.0415126684981795
Cu 8.11006790242646 4.130633701968457 5.667136150790057
Cu 10.435335624340336 5.3826618965163835 6.354329133881135
Cu 8.851574343725815 8.802940615945134 6.504969473076388
Cu 4.715657417495835 6.959108053338362 5.43910849635437
Cu 4.530608089381253 9.263304370791955 5.992884133390458
Cu 6.626474694964669 3.4432589164042327 7.749513273452013
Cu 6.712944161530393 10.402465435175472 6.180868231895352
Cu 2.6404428740217005 7.820820366107615 6.374899342535874
Cu 8.943945424765852 11.260160592042912 6.865504916613382
Cu 6.087845029656393 5.281427603104958 6.337292664870044
Cu 6.563522972924159 7.874561880653746 7.025034480851319
Cu 6.644986674548428 11.948071480605092 8.087549611971893
Cu 10.993059916125663 7.671735269731305 7.481726826461654
Cu 10.094703414585162 9.630223792516146 8.56270034400274
Cu 4.391655376479944 7.49714095717829 7.995302153070238
Cu 5.187428689599161 9.92260314024686 8.1932962360995
Cu 7.684215826903797 9.853583147387566 8.392338508336294
Cu 6.351205059919322 5.7903185535959425 8.64191150288448
Cu 7.263396362376545 3.999939514543338 10.053006364652289
Cu 6.388040247382541 8.02087211235507 9.488487085513528
Cu 8.624171069497494 7.3332092661977395 8.490318131236576
Cu 8.574842292592772 4.832255574499639 7.9922355607190525
Cu 6.310900985762211 10.43049373108295 10.29279246741769
Cu 10.761598445982974 5.648833664656954 8.740037250389909
Cu 10.437663175693093 7.665894138591476 10.124642357035377
Cu 4.345323769091737 8.823636307449908 10.285955682329426
Cu 6.593540554965886 6.1680081402700075 11.07496119973666
Cu 8.967262196772985 5.658498454176989 10.32315704598086
Cu 6.404184536806807 8.5014152683964 11.832272190155587
Cu 8.47394867206379 9.049592209599552 10.516422023634087
Cu 8.567033010234262 7.213684176566844 12.092876655640985
Cu 8.060064853366509 4.739667123575017 12.334887783917226
