46
Energy = -137.29884295 eV
Cu 2.823924606135328 1.43134063004859 10.146545519199899
Cu 1.477447988378663 3.318939060462769 0.905113202206425
Cu 4.858190092013531 0.8150992966721862 1.1883215737370376
Cu 5.424235897902162 5.082037104272812 0.8485765649928243
Cu 2.9073269805836417 5.3303169094769345 1.6188343515623849
Cu 6.3276685020370556 2.7188451655156642 1.7394816114451002
Cu 3.9541091585615495 3.145036233171225 1.0072086822396156
Cu 2.3350809063657554 1.2104850110901748 2.003110159287485
Cu 0.7314689071148553 4.973051287911654 3.023780848710321
Cu 3.0745581512368356 9.714077831904902 0.8301105322406094
Cu 6.8612205234122206 7.013026174792586 1.1296961576017674
Cu 4.448957994105917 7.158993285172378 1.7488198967056876
Cu 7.403704805142652 4.912072622228225 2.322208374736519
Cu 4.996047272879781 4.263114564519794 3.0959852146654527
Cu 6.39458767910348 0.7517975756082719 3.3466609377321666
Cu 2.022052178182723 7.204045091465824 3.042964055446555
Cu 2.519084119357006 3.439144898824449 3.0738172162215234
Cu 6.2166050422419294 6.742900114882545 3.4266669326520947
Cu 3.8238701896686016 6.152226794575002 4.032965547846117
Cu 2.3745979246610056 1.3227799496323511 4.488876305151243
Cu 4.3968277877075215 1.9584250024347367 3.3219290996269195
Cu 0.3643986520642591 2.4368328630740472 3.026623133133952
Cu 7.250259582704598 3.1418387555427687 4.048210378570141
Cu 5.7175791729982635 5.085148625210429 5.316289854769916
Cu 3.4232742316733598 3.939871539423732 5.191665776434902
Cu 5.353990876681287 2.6233626598311703 5.439937220281438
Cu 7.962661027780774 5.400353020005111 4.69476978897529
Cu 5.416866624523454 7.545606954681277 5.615671513134281
Cu 4.690375208615759 0.3497786288925439 5.357412799884667
Cu 2.7271020799742987 7.970030812104235 5.50661650374537
Cu 4.261799829513001 8.582419111013785 3.6848343919270947
Cu 7.234084036344786 1.1899179774188737 5.652545481718422
Cu 1.5760442277646685 5.790143548100204 5.209677519292214
Cu 3.910174700069884 10.060955684586485 3.1464681855733203
Cu 4.370707316989593 9.714077831904898 5.850751103788446
Cu 1.063621314913058 3.3736762390470534 5.1778391045259005
Cu 7.150709408144881 3.6502673470188074 6.647817781983519
Cu 3.7361121610501487 5.9409012800770435 6.51397990960186
Cu 3.2165699168296897 2.023542050599743 6.702329958844645
Cu 5.918727213437995 5.990417800103362 7.609927288566923
Cu 4.069674652915595 7.9983465522514265 7.675106143429829
Cu 5.580196826493285 1.4973988895270325 7.495117325485662
Cu 1.8038035333865956 6.811839701340049 7.578293330525081
Cu 2.151315818847915 4.283853430679949 7.316687798748006
Cu 4.706535750798105 3.845507631433928 7.545308654314878
Cu 3.715704329151188 5.768129783871537 8.862360530166717
