44
Energy = -130.37890866 eV
Cu 4.2502524815035025 8.656946829208676 6.259339606899242
Cu 5.680175829475829 9.64721966117534 7.936212169723149
Cu 6.846344591754109 9.225166668156653 3.4311205615758924
Cu 4.428411661380669 9.366458133199169 3.8599540395330343
Cu 7.764310915037097 10.544904271772017 7.149974937506398
Cu 8.613415466844819 9.54668352348369 5.078381512192696
Cu 5.378859669041143 7.823437475408227 2.096186280300043
Cu 6.0146612928127245 10.314183641133768 5.467092615583017
Cu 2.854120347404288 6.6948228939248855 6.892734260918127
Cu 2.979941717983834 7.449192618707984 4.443185582558091
Cu 7.836482429179961 7.61187031324677 1.8607378017183664
Cu 4.180696009191639 7.839289914170462 8.686007336490382
Cu 6.607324730757443 7.563859965789814 8.865701617517772
Cu 7.9978825843047385 7.157554114248718 4.254538913070942
Cu 5.389854685614731 6.469582572663743 6.972726578224568
Cu 1.593797949552686 5.579168515058062 5.117841039201194
Cu 5.47411230993105 7.261028706267334 4.501482840124783
Cu 8.701991006377785 8.471259619409736 8.028473683254605
Cu 4.062206507732374 5.887480582508193 2.7806814411808634
Cu 6.57767246241643 5.699539067916108 2.661414646408255
Cu 9.600499224390013 7.425497238362126 6.016651504769395
Cu 2.71772154444707 4.198145619070701 6.886557451203848
Cu 7.928401758793393 6.172492952701464 7.2003591334003
Cu 2.7878080009952115 3.9769769791416234 3.621802904299691
Cu 3.9024522649243947 5.320155818754997 8.751962040059002
Cu 4.057381384483095 5.274317934095758 5.173781633063736
Cu 5.155373554416228 6.423165898536771 10.496397404074713
Cu 6.988009777482911 8.265512315678473 6.303062008623164
Cu 6.608347514636629 5.146545855948395 5.220804980124883
Cu 9.049643740363907 5.6121264340347246 2.719192778026393
Cu 7.787692859072341 3.7083444286781138 3.51693607681018
Cu 5.278050952124603 3.968627469726355 6.9901773482684595
Cu 6.497450853863529 5.08151442024309 8.880616083018364
Cu 5.292685204488321 3.808767909968725 3.504914572880316
Cu 9.077774873754251 5.061027178910519 5.203545256265652
Cu 4.081808275432495 2.702059822198287 5.31131356136778
Cu 3.9614050038252833 2.8154458736254315 8.647800840265107
Cu 5.068527422619751 3.9703548270221605 10.486249082251808
Cu 7.796072102861997 3.7719211188107327 7.094540411155366
Cu 6.554318090966687 2.4362269372721537 5.20102323494338
Cu 8.977179744489533 2.565014397348776 5.320664224515522
Cu 5.315146790299096 1.4620162520718374 7.053983612674888
Cu 6.41928142439137 2.584039703417332 8.900489718229863
Cu 7.756366553031013 1.3791124352649604 7.1318485815201385
