47
Energy = -140.39947652 eV
Cu 4.596488916619585 7.505679530675059 9.141508111051735
Cu 3.6290234721295964 4.897715574673776 3.6588478929513184
Cu 3.0481830622196915 2.802828672694345 5.100044432958464
Cu 6.273900169192395 4.033543625204194 7.995620028367377
Cu 5.678360896767424 6.497228681145919 7.2990561724747485
Cu 6.137640289493846 5.721772907575483 10.02150080216247
Cu 8.620627732159294 9.452410455760322 8.302735656331722
Cu 5.98686998594437 8.244456140880033 5.368715212932132
Cu 4.575835597748369 4.601094169953001 6.107860380311731
Cu 1.8907848582762454 7.67071642950338 5.4769539241743
Cu 7.558701162794175 3.917561499528844 3.314697118724845
Cu 1.3724587420623406 3.771265425049868 3.6359156999362083
Cu 3.994720105447199 8.52239941946108 6.914307631907623
Cu 1.0006614101891427 6.15487439556671 3.7512964267586337
Cu 7.682230736019871 6.131442550353766 5.945808110885218
Cu 2.2051296208130235 5.207714393619119 1.7817136026071239
Cu 7.90203432663258 3.925520649057774 9.823639351903315
Cu 7.900476155592101 5.961316371730186 8.384149353238604
Cu 8.258554644678762 8.550361881655379 6.086478215249046
Cu 2.9430771792993924 6.412174005994485 7.458994111469884
Cu 3.364755390434773 2.795101130965862 2.580408883336562
Cu 8.433838879264826 6.14158654421866 10.79065118409646
Cu 9.271995438972453 4.548216289495559 5.037458430075871
Cu 6.311613349837212 8.888446762067788 7.708056428236673
Cu 10.062565521752155 5.9643851758724304 7.023806593343585
Cu 6.875849307843105 6.021023857474474 1.9877419260963458
Cu 3.7947567867436316 9.06861584045112 4.503521317417814
Cu 8.759166181571818 3.891930586053131 7.414264720110676
Cu 10.030014244304942 4.99339892592715 9.254985584548724
Cu 2.879018284445404 7.387784412166273 2.945083463586668
Cu 5.003211251682868 2.3679154106948306 6.681834301972586
Cu 4.211485036557928 4.9684086224477335 8.834405796274174
Cu 5.30953740553172 2.9285586234096517 4.187851274133985
Cu 2.003007395825943 5.0714714992250824 5.658801235320157
Cu 9.693996281338892 7.455271730603508 9.092192393109812
Cu 7.205570411306715 7.96268380749083 9.720516326826203
Cu 2.8425923688354295 3.5832087620863544 7.428349966172926
Cu 4.0407401027366925 6.763012879662137 5.18021752544609
Cu 4.427661421835049 6.173581719959947 1.4923746284691093
Cu 7.692414452078458 7.531450091185883 3.7941383054327638
Cu 7.039636530331156 3.6169193179143964 5.7047053505788945
Cu 10.461746500310316 8.364479941486476 6.955414744423002
Cu 5.4166246627945895 4.051904781979527 2.047940836123919
Cu 9.125021747718941 5.772948229292548 2.9128497916892235
Cu 5.330177355018245 7.768037089554963 3.049775734604169
Cu 5.972404556263785 5.560263205415074 4.224815830479079
Cu 9.851616704681733 7.044094616915198 4.8847718257972605
