48
Energy = -143.39219922 eV
Cu 2.5291994174267933 6.584484177533143 3.407470027347268
Cu 4.7624639807941085 5.789505328673547 2.3627442519222868
Cu 0.896850755557865 7.182074056937628 5.153665650046021
Cu 4.885886270484171 3.4661398153842744 1.5472880936099376
Cu 3.0897657934149967 4.134777898434887 3.2326689686213563
Cu 1.9422136081056571 4.95492602286495 5.314765649620752
Cu 1.4964242741320983 8.86358180969313 6.844338802672118
Cu 3.1519816144387565 8.086175860556754 5.2910312889239455
Cu 6.918494905600703 6.957967920824826 2.1989148023271463
Cu 4.814591054779384 7.888671194732892 3.542824295666298
Cu 4.308724894035547 1.9133647273195225 3.4002624192630675
Cu 3.828930107118343 3.1852059822097396 5.426310840385112
Cu 7.152589639155835 4.56508233273399 2.0937431872213663
Cu 3.8688075289012156 9.714993768769645 6.998055128646083
Cu 6.560847427522461 6.387402042399455 4.509150096333568
Cu 5.75544356079055 8.652676082731897 5.779155133338609
Cu 4.1909867336915925 5.767451000004829 4.959873871976363
Cu 1.9579736649875472 6.477385564872395 7.247899191998323
Cu 7.045654933706668 8.850682410792045 3.651497035002136
Cu 6.666727881131103 2.175137141541067 2.720342959953327
Cu 6.072244296190783 10.666507973451429 7.27935987612198
Cu 5.529458079190832 4.025580866944125 3.824644604611788
Cu 7.665344755942783 10.263424108198926 5.4755315090401036
Cu 3.0456142309261702 8.208740616237955 8.63912897240652
Cu 8.841399335898148 5.8308716349626835 3.476456615604243
Cu 7.933014047113383 3.567501762655202 4.256850334721518
Cu 4.448342613248677 6.846651944251875 7.155972616250137
Cu 6.109713665667318 2.142472199139059 5.223482065071691
Cu 7.845340145355321 8.989029275796456 7.519472685372561
Cu 3.5134707538366112 4.536352102185891 7.350863614095901
Cu 5.576470322816192 8.547054560025513 8.457430216739198
Cu 8.449921667668933 5.327325654543443 5.842958128281481
Cu 3.393289458723406 5.906699735871111 9.280078340170817
Cu 8.483692917885525 7.8657423387655125 5.324054496631552
Cu 6.008193913714996 4.609998496738171 6.213671860303209
Cu 6.892488827262536 6.776781408075764 7.035523011134826
Cu 10.555796007804373 6.414531147137832 5.380760469240919
Cu 5.255198781562388 2.6789824792109247 7.468197431972583
Cu 7.860246817694049 3.047778257186935 6.821433718947487
Cu 10.240277123776167 4.102379707863064 4.7377121281948575
Cu 7.580714731460261 7.245046385199682 9.270440249441048
Cu 5.776634930130828 5.480647009205333 8.851416717616262
Cu 4.38461598828808 3.6340443188296714 9.532418412616785
Cu 9.38625908353897 6.998389430537439 7.488147623342265
Cu 10.29529959342342 4.5409739869555255 7.162883832433326
Cu 9.300016940126675 2.954490335160625 8.754211921102788
Cu 6.844740755448986 3.2024110112106734 9.194039463971558
Cu 8.170922257150114 5.0319590172760496 8.37161268822842
