42
Energy = -124.27328223 eV
Cu 7.845963421784197 6.068668410852289 4.27066908281569
Cu 9.131137572981045 8.055122360579379 4.8629393821700715
Cu 9.572967701920238 5.913424605981152 6.026785288187182
Cu 8.400607473440637 3.7095517698372604 4.987051846825953
Cu 9.639033163780322 3.808067217553152 7.221501482355222
Cu 7.946162741617104 7.980672685074413 2.6299431744807453
Cu 6.405139748501406 4.1838948774596005 3.58936478754427
Cu 9.389614879464501 7.938001731454578 7.3567684744638315
Cu 9.772253071438595 5.818676127651141 8.617213300443899
Cu 7.134693827936361 5.803818575968156 1.9280212944521036
Cu 5.437078341884673 5.7921788236466965 5.358157992789605
Cu 7.943776631011967 4.059412162280466 9.024781874055778
Cu 8.42864716139385 9.901998797595368 6.329578005639598
Cu 6.936002982112887 9.219329304469746 4.465709368546742
Cu 5.840986285598833 7.677974616190302 1.1020001789332674
Cu 7.667659956097724 2.4462654634084147 7.098994862587584
Cu 9.0936701299579 7.933764047457923 9.784827806363495
Cu 7.079987637551817 7.536228641297611 6.285020593838151
Cu 5.8165952625727195 3.2115123551521605 5.696787163977361
Cu 7.389307965442212 4.950735004152414 6.725607857310883
Cu 4.731316736827011 5.380571008724083 2.253541211100794
Cu 7.52051253328601 6.59761573604951 8.537315257149311
Cu 5.709384973378928 7.359816107263255 3.4178448870242306
Cu 3.514178731917115 7.317797325751365 1.8124646989288178
Cu 8.131480698149984 5.868364487427921 10.713965339124812
Cu 2.2827956722484557 5.230706629457421 2.7235709475077745
Cu 3.9573447336700216 4.116072177815815 4.211649443566296
Cu 5.70825763264681 3.3771314415088245 8.1626132567182
Cu 6.035038136415463 10.044958514607595 6.593128777573232
Cu 5.344388545681953 5.811773195150601 7.810571766460329
Cu 5.848377057666687 5.081657094483138 10.071041390984465
Cu 3.453339039726286 6.668904947533204 4.172461742214872
Cu 4.768708605643885 8.325582032789288 5.433703920467496
Cu 7.328768813281907 9.049248584023417 8.42296238050217
Cu 3.7797566503633533 4.202496126669434 6.669747655730265
Cu 1.949004895068881 5.133503895672963 5.292795401651477
Cu 4.981901442484113 8.283654253417257 7.877204942999287
Cu 3.3078677636851403 6.771956915209722 6.660287845543496
Cu 3.6975443260171788 4.272127922972327 9.120232076213343
Cu 5.930741046702281 7.547590313640173 10.035678302497063
Cu 1.87024968402266 5.209779133757687 7.796123129032327
Cu 3.6130743847971796 6.67471263818158 9.184689869397484
