42
Energy = -123.67494349 eV
Cu 4.289278504434561 6.1989979056878814 0.23723128447000116
Cu 5.078143888004765 3.6360489198430535 0.5347033121741139
Cu 3.27046694246758 1.6151377455529217 0.636434958150553
Cu 2.624775064320358 4.1913040117081035 0.9135300448398321
Cu 5.73844846048293 1.2040406099199157 2.06209159616851
Cu 6.707421770705122 5.745424457097346 1.6292044467101323
Cu 4.426112492852661 5.209891284057178 2.2752278625969584
Cu 2.3997417769347082 6.568315855894875 2.1441627135221766
Cu 3.924872002429996 2.7657374443823044 2.4895901845026707
Cu 1.5092754256205716 2.4009545181705465 2.5044945642586454
Cu 6.352555552081382 3.5267119012436345 2.7104738727466473
Cu 5.164760768186526 7.514153366502631 2.5756011232729557
Cu 0.11614529016557001 4.771214855580737 2.8163539305698397
Cu 3.614926532692832 0.4670388490845935 3.218935995888866
Cu 2.3428004460422596 4.471289850114019 3.38308440971285
Cu 7.655353146115147 7.349432700317178 3.612605727330167
Cu 8.779587671733754 6.947045520472126 3.2660837842251853
Cu 8.255283499851444 4.738544047013701 3.8146591466665374
Cu 6.070164306853937 5.7601510223637264 4.001411112407673
Cu 7.6288489350804065 1.8385009360849185 4.079776403816366
Cu 5.2239982297747956 1.894996829126626 4.368475757177132
Cu 5.960203608661745 9.267055981486104 4.291469903801851
Cu 1.2399275705519919 6.382480404701277 4.589699317386865
Cu 2.737784522676874 2.2583207945746047 4.757578399663208
Cu 0.6331548944003007 3.4918915036145552 4.942588308548612
Cu 3.669564488495426 6.539118438831809 4.3518641483570875
Cu 8.645983887127663 3.0682660385895733 6.075773966499045
Cu 8.645983887127663 5.389351627792521 5.070371246811976
Cu 4.107996802741568 0.5672891241899226 5.9600152066611285
Cu 2.648665456857438 4.667653010881841 5.787184747454456
Cu 6.59663075439071 3.7324600270509762 5.284147098150114
Cu 7.48583390655899 5.916095985116494 5.961848214115553
Cu 5.654805494246685 7.697828391687879 5.287968882220295
Cu 4.448778531613481 4.107428281754759 4.4189556773135745
Cu 2.846596289505233 6.869506293971721 6.639385191739528
Cu 6.531223858260027 1.5419003362892647 6.3869578117001735
Cu 1.9409885717889919 2.770492695163893 7.059348904628835
Cu 0.7213298816252316 5.15506405536032 6.964100213173833
Cu 5.007539287279678 5.522530316524716 6.432613962210807
Cu 6.636170793119786 3.895065787708629 7.599968537956236
Cu 4.429369514376574 2.987774342076635 6.667181127185448
Cu 3.1764179226965936 4.76162192030383 8.067192248059266
