46
Energy = -131.64918863 eV
Cu 14.830250263656483 7.980705989304433 10.220092760136223
Cu 12.319492022471197 9.879578830360408 15.356397024370427
Cu 13.126656062645488 15.335345599046816 13.125698916687227
Cu 11.099903850262464 16.58862133998546 10.342044465261308
Cu 13.192053670634527 14.302123999668796 15.344975306724974
Cu 10.831733536811116 11.394901702886996 14.078126786886648
Cu 14.67640765356385 14.15025585716158 11.430648355245012
Cu 12.63356628382042 12.945114175470307 13.289888436818552
Cu 8.655157721856188 16.461363034884897 10.869355818623081
Cu 12.06089640292443 14.540011987253745 11.096292904608406
Cu 13.171235305707206 11.564532067456138 8.49772702266252
Cu 14.091203365320277 9.89685657698149 13.743630710271917
Cu 13.65575845790006 16.23791730636775 10.595581691140618
Cu 15.051047674392107 10.013929339270744 8.81759592102992
Cu 10.905846399673175 10.87489361742907 9.842508648498697
Cu 12.325719890670221 17.45546752823171 12.260167942576494
Cu 15.257697036111365 12.204108906802125 9.935886365851681
Cu 13.05316720390647 12.277030495452456 10.83111670294912
Cu 11.326968586700938 13.09624933601357 9.105537543521779
Cu 12.098181241217475 12.204555173664248 15.91639127136644
Cu 14.982946899043764 11.669168980157933 18.883741701918034
Cu 13.836747806589257 13.024108090658805 17.34138140464782
Cu 14.371228033120984 12.044398265420613 15.027376930297272
Cu 15.212515196227992 14.119419389056228 13.881316604625885
Cu 7.637198248954068 11.797193932461829 12.012693678335111
Cu 12.17350435287777 10.572044372020695 12.156208112445274
Cu 7.738079318739532 14.129074696667717 11.198366201244298
Cu 11.150136942304892 8.911158749294133 13.487965405406575
Cu 14.660346958133312 10.145695689878039 11.23926112888321
Cu 8.942652112074608 12.311641433467356 10.055771095852622
Cu 10.117774280158535 18.205017602916456 11.759430415530916
Cu 13.064835538368289 8.280943591286336 11.972385323764373
Cu 10.741842762062593 8.761076730171835 11.011699535191878
Cu 9.627813653205417 10.519449153608305 12.224999867597626
Cu 10.645718507394323 12.711851461607681 11.77716881026473
Cu 14.895353915862415 12.034928269569322 12.622829157060572
Cu 14.6173698864688 16.28907365214066 14.890334602398612
Cu 15.44720912938468 14.026447601961529 18.728095323186157
Cu 13.597408634519326 14.064841567258338 9.20553660641891
Cu 15.460820789417157 8.288051351712214 12.580619085894273
Cu 9.802853090994121 14.548907717996805 10.128760194328942
Cu 12.850518366292674 9.391727862842124 9.73270484413839
Cu 15.380936338025984 14.57322425739592 16.380282302599085
Cu 8.601207089968037 9.929138487620964 10.191614134689479
Cu 15.214816267866638 16.29289206382412 12.52351647593687
Cu 13.902424511890125 10.632175079651246 16.963897124597985
