41
Energy = -121.35507863 eV
Cu 4.235186181642299 6.388052251901801 2.4167781764236596
Cu 2.0658407289312546 6.9539560389507304 3.9480735886318272
Cu 6.13797119668263 7.936282773951121 3.0139844059600436
Cu 5.207433894204102 4.119863689791579 2.4086164888391064
Cu 7.027453983375575 5.746581471350306 2.001389561624614
Cu 3.8176839921178463 8.712499659347797 2.899621677415324
Cu 3.4316606389967785 4.835328977407869 4.132080620297746
Cu 2.902138969499877 9.617008914436758 4.868345224631095
Cu 5.414673276799154 9.514131216573542 4.785501937274955
Cu 2.306149665907544 5.536526960757152 6.198217660669003
Cu 5.857298819467648 5.771446334900015 4.119918814631157
Cu 2.079639638715637 7.923811505709986 6.326707859097239
Cu 8.515980630675488 7.5125232424673305 2.790907717959517
Cu 5.290787860710838 3.280997434579764 4.705957142723664
Cu 3.3566619977029246 3.210004849563204 6.24734417318027
Cu 7.4236604648492674 3.8589594267288487 3.648013119804885
Cu 4.689558778356699 5.360745216152306 6.2234007075012165
Cu 7.7206223540236545 8.814939734703474 4.718251154660901
Cu 4.269232344623013 9.094185236335376 6.880044576263434
Cu 9.285382656135273 5.221570032941132 3.0287073046951547
Cu 4.145576301850472 7.403389698460251 4.954595401307031
Cu 8.655718884695464 6.5413078862767495 4.984878757586704
Cu 5.643246816635394 3.3662786073463864 7.18293811223981
Cu 3.7229566777633236 6.904633669238346 7.830680976636485
Cu 5.0710537441776715 1.2626177285668883 6.1776560141554535
Cu 7.068264994622009 4.879099856944565 5.991128857952287
Cu 6.796571743486172 9.465582451612168 7.035170656053337
Cu 4.219028077202576 2.002331390409005 8.446162609440444
Cu 8.98116562520791 8.271264362669188 6.706330698080331
Cu 6.347756622093692 7.287280524918624 6.204715787013275
Cu 7.381595699545159 2.3925541821658136 5.759218982859677
Cu 3.8138359319280917 4.499989834940035 8.36303500282508
Cu 9.229205640907223 4.163852290639387 5.3931547088425775
Cu 6.00586638910174 5.802618232926434 8.30284245913295
Cu 6.716615900521217 1.4631795424130811 8.095430861149037
Cu 6.056072179222314 3.556829369089804 9.500395120402164
Cu 8.78639737867213 5.889596596324928 7.371624629468643
Cu 5.458031944576249 8.277629687137699 8.795755530564273
Cu 8.03006478011652 3.6053662211682784 7.87210549981899
Cu 7.730861477824706 7.648126372895118 8.65206183729044
Cu 7.922662714301138 5.335661814908579 9.639522191681133
