40
Energy = -117.45026992 eV
Cu 10.133463947513583 7.479473688562972 4.952847794333424
Cu 8.493013222133412 6.748792855361812 3.2818287605514063
Cu 5.657083346882394 8.96446789641575 4.679717554633521
Cu 8.113759553364314 8.932910797703972 4.341507724323085
Cu 6.844753048778623 6.859298429308394 5.001576818994477
Cu 10.108624054396733 6.068177855590042 7.083101593890531
Cu 8.671705799630594 5.329615181028192 5.288401739204786
Cu 8.54303665276107 8.047407736305455 6.580949304330195
Cu 7.095794054442654 10.381089373965855 6.210773899513203
Cu 4.531726812096408 6.872883014893958 5.676900312353099
Cu 10.405133981531362 3.862782523679035 6.251699166694542
Cu 10.914762925130567 8.451867116888087 7.140278491017027
Cu 9.549489434214824 10.16395151448375 5.986957434743473
Cu 3.9668325949875753 9.219892197952248 6.4716656218307085
Cu 6.208496091577029 4.841201299763052 6.211251753538809
Cu 2.67521765563133 7.105567191302603 7.180764530483823
Cu 10.81445233643117 10.756977916099647 8.027529095181395
Cu 6.119079498066041 8.245315087442137 6.960075481224318
Cu 7.394138237471217 6.285458906523095 7.690585579860257
Cu 12.776695246187384 9.201011184508864 8.458023023731128
Cu 4.176592382893458 8.193578328682683 8.652968141955782
Cu 9.162012631948688 7.484270195769714 8.891201498336182
Cu 5.683285048713401 10.232374129649966 8.305324007078584
Cu 4.867546224853627 5.988421038015987 7.951825509588324
Cu 11.585302747018545 6.914034571358217 8.913398749316437
Cu 8.32448847525401 9.726810537861397 8.379246977731663
Cu 6.680561157569117 8.174447303972302 9.344251343253067
Cu 6.609769870427735 4.66188342926922 9.184641829678842
Cu 8.293500250535535 4.0494802284970675 7.3476854359725765
Cu 8.624388893746136 11.886858628153487 7.625304505981243
Cu 9.369747120936527 11.135588643954707 10.019435538977795
Cu 4.862384089048039 9.307814490359819 10.590165160713745
Cu 7.01671039933525 10.448259707848306 10.431260593186394
Cu 9.375949109392325 5.09734774914467 9.260356131171411
Cu 5.229967217830144 6.566043545747441 10.351203981412706
Cu 7.744991809793447 6.325896973660133 10.671918440073286
Cu 10.811009920802297 9.08392382182453 9.785076153706193
Cu 10.180165661988505 6.82095844154758 10.971706874790065
Cu 8.715385823853682 8.813244427248321 10.91963905795591
Cu 6.564783040972922 8.166422409796784 11.82275475882837
