44
Energy = -130.6892054 eV
Cu 4.283568984077464 4.635965017881092 9.764209052645628
Cu 1.8342713046561843 4.0657180415405465 0.016730392112586975
Cu 2.4466749624076334 6.507252522380972 0.486382528019177
Cu 6.0835952793997015 2.605835147913945 10.144904083455984
Cu 6.7696704015979465 5.029085212718613 0.0184279678931269
Cu 3.727048593110575 2.4345935262858407 0.7186927485435524
Cu 4.907210079342918 6.449566523407559 1.2490963087442422
Cu 3.15166118661914 4.768955134194064 1.7965995423454364
Cu 0.7393740656323928 5.119358294193142 2.155144090294505
Cu 7.094056242085779 5.690850523533539 2.4102907601782166
Cu 1.603033699157461 2.6865811156389423 2.1721544793548753
Cu 5.4465736691052715 4.059640048167238 1.696147222155223
Cu 5.790883813158804 1.5964347213193144 2.3868071047221764
Cu 3.290768100578029 0.7057379568085088 2.6125593031216625
Cu 5.765478595361934 7.663543531146949 3.204060427064719
Cu 2.4506203566144786 6.748235477603128 3.15741022182178
Cu 7.638725049795737 3.192702505275128 1.9807905386030407
Cu 3.902503528570688 2.8947531952496677 3.095564615933368
Cu 0.09275422218246875 3.381952767840534 4.101610867462773
Cu 4.5564929366809945 5.607523085388127 3.7245209667858985
Cu 8.43008986247453 4.221398904785685 4.027825825623332
Cu 2.184393996258022 4.4294926124887395 3.9800235384609968
Cu 6.08862107349676 3.7597788347711765 4.124022624009765
Cu 7.325327651245756 1.8905935202733204 4.560708451362135
Cu 7.048277910053017 6.200821877923987 4.756780589487131
Cu 2.1398298364360664 1.9019372786608522 4.574683663387475
Cu 0.5605745055658707 5.795518735334834 4.871208634471947
Cu 3.870558277059439 3.4960434023808222 5.340424605513919
Cu 4.796514901906134 1.297027415206906 4.753315896395916
Cu 4.954635892120259 7.446579705200765 5.551615472944077
Cu 1.4949182499409897 3.778867438156592 6.2907094648353326
Cu 7.527550411045359 4.215923537590332 6.305073162523802
Cu 3.2587992244167583 1.8033492491617216 6.951271955541869
Cu 2.9258353289333003 5.968604558183162 5.772514163764488
Cu 5.351731219048814 5.168748520457584 6.109859536411823
Cu 5.68607642835195 2.605589713024236 6.713802631471364
Cu 3.6925217448505894 4.1808815093840765 7.554087019595064
Cu 6.78387277956554 6.639897266197954 7.240753628305302
Cu 1.9070866005848182 5.608684497956147 8.06920831611453
Cu 2.020956408140459 3.1647859060084818 8.813324163477068
Cu 4.290570458847155 6.568375925043888 7.878444097198987
Cu 5.953187770536306 4.569354120350627 8.431705201360606
Cu 4.458064156559874 2.5815218976318137 9.088636957945546
Cu 3.732643781598205 4.919542764511816 9.764209052645628
