48
Energy = -143.63159178 eV
Cu 5.079152142363553 0.479972536661701 5.7468682623403025
Cu 7.891581108664751 2.7152605615102186 4.602358790368047
Cu 5.903036280711406 1.6919379980381895 3.7599324428513157
Cu 7.9506734560003 1.7617456995176455 6.899848465068391
Cu 7.027598447638653 3.8053366889820293 2.5615045368272207
Cu 5.731294278249762 1.3045920896612424 8.02061793147089
Cu 3.488373101944855 1.8711075035520013 7.01271852973762
Cu 3.641541513281427 2.1790782525449783 4.575865531055141
Cu 5.909572487922153 2.709512431064951 6.123215095304365
Cu 8.268465576840022 4.2547887481946285 6.441176386475025
Cu 8.819681239410794 4.893286503937004 4.127525487771001
Cu 4.548858630294342 3.3235461401279323 2.630072646955397
Cu 4.6561644182892135 3.494814394472861 8.554564954843595
Cu 5.86580117446282 4.567418217586541 4.527264100200634
Cu 7.121100301391551 3.4659013727901278 8.5099893785588
Cu 9.384359717627444 7.277051309924395 3.897401467910423
Cu 7.372369648909831 6.322644937253132 2.77831403908194
Cu 6.04867391838241 5.070195244103415 7.104521565342838
Cu 5.969071883940996 5.593842954464722 9.454960167568633
Cu 2.144218193359914 3.501557463602646 3.05176526988572
Cu 2.189989342803712 3.790400383952541 7.867804695515312
Cu 1.7529969575508473 3.573092649413604 5.41752530825276
Cu 3.9360673833197857 4.152599265773954 6.23447077272866
Cu 5.213675730108915 5.568067236408704 2.0810536736853043
Cu 7.246159535387231 6.428674567387628 5.281684276804525
Cu 7.995442540349978 6.097413056925663 8.141325479069272
Cu 4.549579060076919 6.524451149436907 6.04967508252313
Cu 5.241391141405351 7.2700276050753025 3.928677677292253
Cu 3.6582209387998774 5.733063466429724 8.283366452100609
Cu 3.5675004990784243 5.224870306419173 4.008445266950758
Cu 5.786799256258996 8.01962708701776 1.790918042026576
Cu 2.059758844025173 5.860460799032118 6.355637848619345
Cu 9.499136275300337 6.455558750767167 6.157759177906242
Cu 1.2767461748740268 5.711716320447629 3.989543255726407
Cu 9.423219774246167 8.13431084560336 7.930337508231527
Cu 3.320230685053602 7.0868002774181065 2.4155559571084217
Cu 7.1788638727749605 8.21067996809488 6.840081449187958
Cu 5.2337745824546715 7.58387131610429 8.211563760314894
Cu 7.379384735153506 8.621383298875406 3.856355839732609
Cu 4.876778311022034 8.918302514825822 5.895478010758054
Cu 9.125280523285504 9.018105342570344 5.603215212357344
Cu 2.9816653178685786 7.966700265640945 7.249975734398787
Cu 5.300164516384486 9.747829980546076 3.6368633713884737
Cu 7.312983317402717 8.251302713635436 9.27118232790438
Cu 2.822580692808455 7.630320604501591 4.75436781328373
Cu 8.252630047230843 10.231333200837634 7.639258135679908
Cu 5.859643841195575 9.94757934182561 7.896108921240626
Cu 6.888112976469927 10.33037338868536 5.542734220410876
