47
Energy = -140.31351355 eV
Cu 5.931021721889799 3.661207977247202 1.0099411245505352
Cu 4.106290662722909 1.9583484732766867 0.9394538243407439
Cu 3.3144666345220894 4.568360153307749 0.9029105690169166
Cu 4.926824747949872 9.502307036361463 2.062755687324597
Cu 0.6910215063104139 4.822531981361557 1.4520648681751978
Cu 6.430451515097308 1.0655725147344195 0.5999724924937114
Cu 3.659761647502295 6.696125711807745 3.716417176472751
Cu 5.357170963577377 5.935486408260402 2.0896909407244917
Cu 2.455274552063217 0.14125706564961737 1.713655729452252
Cu 7.106124233741334 4.026619646654131 3.2035939172822783
Cu 2.3234084830538366 6.751609297385011 1.6862230970207244
Cu 4.349316538355152 3.7991696636931045 2.889780267829295
Cu 1.8163644538660804 8.339256460020591 3.5426919785724675
Cu 8.158402541256306 2.120913261435003 2.068527298655407
Cu 3.6704147826585185 1.3623639811848316 3.3194170604372797
Cu 7.246510211264393 9.755109375197824 2.882150214313381
Cu 1.9363624118288287 2.631522278164462 2.0004691204302247
Cu 2.1980045531704926 4.8114431363872665 3.193275982795571
Cu 0.22943969087158375 3.4494518719327156 3.68612394448
Cu 3.3208569001622537 8.92688774270325 3.9171088463632415
Cu 4.120458884368688 8.573174997253346 2.460453900941065
Cu 0.4682139080372164 6.269310375478873 3.7011279382857656
Cu 5.925119456661148 1.9126274219049488 2.747302778085622
Cu 2.401521690449263 2.874629781131759 4.592621776907983
Cu 5.466129420902252 0.2534189540734943 4.641670562944624
Cu 5.863060720741393 7.80213718370457 4.237320773466909
Cu 1.3488825957086708 0.8339944823576586 3.8910112148211464
Cu 5.024557080788441 2.8475419463450726 4.955922114826784
Cu 7.8155675016516195 6.142702004014338 4.213966000509294
Cu 5.61796380897569 5.361165467342379 4.500230186354102
Cu 7.3782918313136525 1.8474022579384237 4.661466902324445
Cu 3.6908341246527367 8.926887742703252 4.98950059897829
Cu 3.429023802136475 4.845989986411734 5.30313069372887
Cu 1.9413714187248523 7.00028509590276 5.616373895958386
Cu 0.9274070978889024 2.0372854977876806 6.153301936022097
Cu 3.3325027947502437 0.9055859513529424 5.7771928782303235
Cu 1.0843158059933962 4.60655827706126 5.78009316237384
Cu 4.424646149705939 6.849496148488193 6.062586473376138
Cu 7.23498248666529 4.025222784735887 5.744562158946368
Cu 3.1663597058398985 3.0526570051529305 6.985926047714821
Cu 5.6786586100187 1.9554839792951246 6.921474665956964
Cu 6.781342711343416 6.48026655127794 6.423692088077435
Cu 5.605522973454632 8.768779668064782 6.662102197574637
Cu 5.189096091494702 4.531135970866336 7.066035307935466
Cu 3.184583928180278 8.2599121831467 7.4461543711399285
Cu 2.8750040600342994 5.635637944818744 7.547804410095526
Cu 5.059388112674319 6.798761229727777 8.303046348712645
