45
Energy = -133.6534128 eV
Cu 1.6919671438800914 0.27421251924139767 4.994484176878409
Cu 8.107412737230966 0.9596631050375748 5.2540359195619235
Cu 3.9443271213021287 1.002276693341684 5.746751016222048
Cu 2.8394959992797406 7.413853730876848 3.7280353448090224
Cu 8.115766048908387 5.624435829393427 1.8544699833565297
Cu 5.738865988575434 0.15153080805163702 4.181557211872036
Cu 6.1743852613595145 0.48743599299436285 6.685258306539459
Cu 3.2413843439001853 4.590209537005 6.957797713101102
Cu 6.158359514209473 4.594779994815593 6.362867306714191
Cu 2.387659928692221 6.892135947402713 6.208355741297337
Cu 4.421115526838052 8.324750154761274 5.518510149112623
Cu 5.2679565261529655 3.009072792808312 2.788405085471518
Cu 0.7455314296448871 4.165431277253935 6.24813279716319
Cu 8.115766048908387 3.486911440163907 4.673725222062459
Cu 4.2047742891009285 3.5933204639609158 4.903899239623534
Cu 5.385239652663475 7.308324167154072 3.338646024014616
Cu 0.47138159135117785 6.563644616394206 3.9558300033936553
Cu 3.555780160265996 1.1163639412427415 3.3529949079629726
Cu 5.616272481313361 3.1205670089450126 0.4103715052041822
Cu 6.563823987814736 6.9437914579519635 5.631002662089036
Cu 4.433728080382509 5.997620916295252 5.237355017895285
Cu 5.419897796093633 0.883034966812385 1.707612925900843
Cu 5.1690502067853386 5.1347615573667476 7.723963728993387
Cu 2.391506244723857 2.293117522610463 7.251972215387421
Cu 5.8163306416052 5.529528333666242 1.3855837278552554
Cu 3.6783684341952134 7.024510120624222 1.3513081795116588
Cu 3.283128027427405 2.0033975368873094 0.9920914386444696
Cu 1.1001311343716718 1.593014515048789 2.8811284328727393
Cu 2.231113275826017 5.074092353266702 4.6384624449343
Cu 2.0368294833498988 2.5845651898916113 4.951085283486862
Cu 4.734406099719565 6.6277642463613455 7.439139058165385
Cu 4.097353722912159 5.285515156520336 2.99035190032483
Cu 0.2811734263553083 3.970025488679868 3.5744349263290753
Cu 4.894224424866277 2.670438736420075 7.285806543618149
Cu 6.123018027477363 2.30736929033096 5.124267703303851
Cu 3.5255436259674715 4.461777205106661 0.6958963666758888
Cu 7.4933100725221635 3.8545866268227 2.088848890511148
Cu 8.413609950681627 2.029818696313147 5.126287260439027
Cu 1.1704482822745863 7.8332332838122465 1.918907592279444
Cu 1.813638966881203 5.60118387402282 2.104985473349583
Cu 7.515306004546571 2.615080766343535 7.031102487657484
Cu 6.387673825718864 5.0473057415702 3.909637806695215
Cu 2.717908010223576 3.3895842654602406 2.8023097656478115
Cu 0.974987180210795 3.510480983874494 1.1657606166310186
Cu 7.369676931741239 1.6407998586988826 3.029043081369285
