40
Energy = -118.40092782 eV
Cu 4.528713297358251 2.8798044299230994 0.2904132521573677
Cu 2.4987006374832967 1.345049735751036 0.3623177330469121
Cu 2.1817777971798207 4.051461683183704 0.5984957928473651
Cu 4.287382218278686 4.959317728109019 1.751318044634485
Cu 6.645598020995045 4.006293848082312 0.8149044267002515
Cu 4.852551828789119 0.7998313021031168 1.7495424705082412
Cu 4.673972643992031 7.354120841566959 2.598101383718684
Cu 2.2638180381667947 6.510498041980372 1.8576668027428713
Cu 3.197604852625653 2.5033366004768207 2.231760213143635
Cu 2.398364614318472 0.35522583728674 2.7904244635918647
Cu 6.683635482532751 6.12909809018606 1.8981693130864556
Cu 7.30603193441043 1.774906936657727 1.5978085046915278
Cu 0.01932101614979601 5.019758460478254 1.8091816415549937
Cu 0.7673937332288085 2.458016385240974 2.0516195428563035
Cu 1.889451957774585 4.390696075548149 2.982648690204871
Cu 3.8696975646307537 3.764271284360339 4.099552371297318
Cu 6.6894171122005766 1.2048437186832617 3.9590852080843684
Cu 3.2966550151336107 6.043274152154063 4.035064411556776
Cu 5.588070963804095 2.9530251569869006 2.673001978864616
Cu 2.6995931009151843 8.272181046772998 3.9337463276606983
Cu 4.26846305340812 1.2589819318495086 4.173205249775513
Cu 1.8171611823997929 2.1924719754035893 4.394116456981479
Cu 7.340299347433835 6.943003993160016 4.128342540179068
Cu 0.8801937151394156 6.3341826080049275 4.020444981864649
Cu 7.8285312556335445 3.8485763977319314 4.144890916772368
Cu 6.01740197995444 3.1901341472165283 5.20767126118634
Cu 1.869283601059813 4.52980690267468 5.5749325962932845
Cu 5.00210505581715 7.370709929979118 5.122722693468424
Cu 7.624421218041536 4.064119118927605 3.2398353704146325
Cu 5.666618928656713 5.320822766581903 3.8818327188685786
Cu 2.821181638965815 0.4896395686694152 6.012818867494489
Cu 3.61262807976306 2.733401169337282 6.148663598637045
Cu 1.3486734402402984 2.4109563685095177 6.828529365879385
Cu 2.566880216271643 6.89248349417327 6.118094516968664
Cu 5.354173331143938 1.1089998082638262 6.403353901661214
Cu 6.7727329181595834 5.384451918102359 6.026821983982784
Cu 4.352000041461863 5.167234222194335 6.160806228560916
Cu 5.393293775709018 3.4381972256950326 7.598305282250236
Cu 2.863356548771343 4.196141344941675 7.8753906983785145
Cu 3.528887912572405 1.6997576141350292 8.203482058516597
