43
Energy = -127.61160315 eV
Cu 5.528884546781228 8.677952026497415 1.5264016314807947
Cu 3.7374287139674567 1.0338785137583248 0.19237452351807624
Cu 3.067675119657289 8.648374877414549 2.282977598679942
Cu 4.869280599525356 8.902417776400098 4.085592258840747
Cu 6.049235750829192 2.1637131151602276 0.6508717672015197
Cu 4.408522765770989 1.6113990762180304 2.3422380385580652
Cu 6.82971667591548 1.379121659052916 2.9526377443106426
Cu 2.0392842221979364 2.09034779438136 1.9207021438201537
Cu 2.7244510502024677 1.3722687086000824 4.359352885736066
Cu 3.8680870303567128 3.5664241088696005 0.8072079964691531
Cu 6.7270067548234955 0.9704114735312164 5.4836120289752035
Cu 7.908475606163256 3.4482743490888486 1.8249792981820672
Cu 5.1062481971626354 2.3699203048155786 4.561105523347815
Cu 5.7663127429913565 3.6861561506069602 2.616013055715315
Cu 4.1771248996324015 1.200387374466568 6.38042835069798
Cu 5.919117655585769 5.195181974182643 0.7507624334882183
Cu 3.3972669372215956 3.4891408492808904 3.3443976841063896
Cu 7.352805441814013 3.362029266624707 4.447844347352211
Cu 1.1747818181440617 3.452191163587585 4.300660286871054
Cu 2.3863424074962403 7.156284010308996 2.366701718149104
Cu 5.054584114293757 7.546670641928284 1.6266050194921775
Cu 4.089565627251634 7.2273699126254085 8.286410410056572
Cu 3.622947436060656 8.648374877414549 6.28412280213827
Cu 1.7348008252374758 7.330916886248619 7.449737887883527
Cu 2.633929957746243 5.004634326699129 8.071644137225892
Cu 5.692008878845517 7.175191672526954 6.1653986128800975
Cu 3.4636398342877817 6.2882191522901625 6.209176454569105
Cu 5.154072076075242 5.096799780158479 7.541571534669057
Cu 1.7651433593687251 7.6296168694202775 4.942289915665832
Cu 1.1302402710086092 5.218276487738755 6.09715739332025
Cu 4.303232327330368 7.443202021882022 4.078270339911567
Cu 3.9517500631767026 2.9547263799211283 8.099236544188896
Cu 7.184000974359255 5.233873523751227 6.021433693686114
Cu 3.390977934961475 3.724757411978036 5.874214948531691
Cu 5.137206183972058 4.989033569280395 4.807578202042453
Cu 1.6095804558149427 2.7649391220891255 6.919892774804085
Cu 6.572350153500467 6.044817480994306 3.2073927957665456
Cu 2.581104398706572 5.521678701590651 4.17041530687567
Cu 6.034647841057736 3.0600133288104407 6.665388057397787
Cu 0.3564477710377407 5.886627235120955 3.646961857677095
Cu 1.8270343511219378 4.704079194856211 1.8975426317774478
Cu 3.4464977588184613 6.0121160256217845 0.31567992754894375
Cu 4.255624817919426 5.558616091064258 2.4544537845815766
