45
Energy = -133.73999494 eV
Cu 6.691302139064521 6.450072001193725 4.879770500121362
Cu 7.970505021816147 7.259115706132557 2.960482620065394
Cu 3.2888064646835624 6.789084288849797 8.44679967009086
Cu 7.367676223466838 6.443911597405083 8.771355373740398
Cu 8.095069667363585 2.54864128132623 7.259604292240585
Cu 4.241238823792191 2.3430953667183205 4.203284099555911
Cu 9.267634987348902 6.572713565443735 7.063091383540964
Cu 6.135328826236363 9.057600242996054 2.254980841145583
Cu 4.233033356497716 7.7664737138276605 6.203739207140681
Cu 2.2498359943994757 7.102293132176608 4.606224941851623
Cu 2.671241060438071 4.34781680540688 4.216613611260977
Cu 5.669106720957292 6.58308160571537 2.4550421783563423
Cu 4.3546779539963385 5.925186139357807 4.6158145102074455
Cu 6.19506093475837 1.213900348173062 8.29733150154015
Cu 4.199711152206687 7.9945339690113375 1.1493046394443327
Cu 7.566116889338069 4.95630135477454 6.699663680922689
Cu 8.825842775855113 8.048517545933676 5.088756761778503
Cu 4.163260869572181 8.257185186051426 3.548702663171285
Cu 5.378410090774643 7.965445217078471 8.434278312432113
Cu 3.2314327106523297 6.165906269797475 2.5063056997536246
Cu 5.798465186022743 3.446063464136825 7.69816523919914
Cu 7.2158457575871 4.783329857570609 10.566439872321506
Cu 3.5961996463254344 4.351720284154799 8.495639522088604
Cu 8.881320276102052 4.512295944633266 8.746677479041157
Cu 2.9305553222266507 9.529796492429872 5.233852246070187
Cu 6.136113586311244 1.7887349128258163 5.839650703823404
Cu 8.343058234363125 9.624361279308976 3.167645540903984
Cu 5.199889185720651 5.746527788327778 9.62849775062739
Cu 7.107970321843635 7.889902991069303 6.809347901540881
Cu 7.3072948745074 4.808324039043236 3.077832779464294
Cu 1.8413764715091143 7.931261797971661 6.865857382092038
Cu 4.837876553774877 4.250993621113814 2.8089879076723383
Cu 7.593902033841939 2.6286637683002874 9.624477173550913
Cu 6.519420317772001 2.472186512316248 3.3410772533560795
Cu 2.6073963038943258 5.5767888583714775 6.482273187544081
Cu 5.891730342504927 4.0394027025686725 5.1288121007087435
Cu 6.570692690107961 8.86959227126139 4.627711487218672
Cu 4.8929415044596425 10.491668581565133 4.115502731617362
Cu 5.280466435715787 3.27778532012657 10.029474666291353
Cu 5.414981816300748 9.788210586026524 6.567276073117002
Cu 5.253089209058342 5.741031318974515 7.07304380151745
Cu 3.7835705088669154 3.4567970952757943 6.2650854835994005
Cu 9.863002669309132 4.200250514753246 6.516595631865772
Cu 9.052780161628077 5.65546737655152 4.677773806476278
Cu 8.219844061599566 3.2830434185237483 4.886231924503443
