41
Energy = -119.54049987 eV
Cu 10.54503865985256 4.766673119571853 3.595509910400234
Cu 9.681137000638609 6.204797742857997 5.287550292434828
Cu 9.003781023197199 5.295399820383633 7.597202908185589
Cu 8.34629483320744 2.809552938215923 7.383201049868223
Cu 9.479536665617312 3.8184005903117617 5.570696783232133
Cu 8.17681947905797 4.784766341668516 3.763569755394958
Cu 6.802530816050322 5.900937316594189 2.055933685457012
Cu 8.047812203741612 7.397675371527913 3.864163725248032
Cu 6.063617475213138 8.486703331356438 5.212573527402549
Cu 6.177727205490687 6.042759570430643 4.445560598386531
Cu 7.279040461541967 2.758502483244427 5.0864759400258714
Cu 5.690728982497903 7.93650921730038 2.8957716807380423
Cu 6.978983215256105 3.9054586727897243 9.025953147484424
Cu 6.975114800505934 4.737559420339561 6.540873848410079
Cu 6.84578104609907 6.339791430229312 8.57504278329685
Cu 5.90807026214458 3.7886807882857907 3.408455863397755
Cu 7.782786268762337 7.141791958266561 6.368747578321255
Cu 5.899943904064598 2.5766716229879654 7.133250543971419
Cu 4.686877089466637 4.429004285218743 5.572276863469861
Cu 4.446673153662763 5.555611105592336 2.4448337838952705
Cu 4.973638060625743 7.265090543938809 0.7425753124589151
Cu 3.0179773233494123 5.917216402921415 7.036485078180682
Cu 6.05083030337644 3.1629544002781547 11.10700410819457
Cu 5.395462896113536 5.3385976475119135 10.337586350616014
Cu 3.9705645893777453 9.187653772398292 4.176639232059102
Cu 2.065579850657269 5.606975997935945 3.248005920672906
Cu 4.2145682230050605 0.9205611888733776 7.316600391115547
Cu 5.375975823881778 6.70867769816947 6.678517262140818
Cu 4.294203536438415 9.581235852864218 1.6956779428921365
Cu 3.4875849169181317 3.5991098744242174 3.5392151718308775
Cu 3.787145322844066 6.574820833639545 4.683872916418798
Cu 4.689265113769546 2.5935776403512687 9.201528391454303
Cu 4.748215231399668 2.044079286011978 5.075107764678711
Cu 2.144399419799063 4.451480105092203 5.359472480472344
Cu 3.5805068216525684 8.27419477499524 6.449516764907142
Cu 4.349294206742115 7.05572992158097 8.823357866294208
Cu 3.1255283991145313 7.625837962277334 2.375030139727037
Cu 4.847699293254483 4.759600585529432 8.10356024387852
Cu 1.8501722170651367 7.926366738007745 4.48678828331225
Cu 2.1006626242907283 9.783391961952134 2.7991178247892976
Cu 3.3088941893356147 3.1420625931517567 7.13315919396468
