40
Energy = -117.57403418 eV
Cu 9.213626954839027 4.063663393818462 2.9499639765493977
Cu 9.900900015071942 2.8631836241286193 5.012756227827362
Cu 6.820109415518158 4.511066967823561 2.4397222957097116
Cu 6.505446491794131 6.749422297337762 1.4177302321423215
Cu 8.258499182429361 6.367644132272827 3.117467687449151
Cu 9.041783675786228 5.168600531731697 5.134862203497762
Cu 7.510578038373062 3.184192595973858 4.4485290215192945
Cu 5.141623612559744 3.6313844789037244 3.9567801760645818
Cu 9.612773357058893 3.9420447333903126 7.198080322147569
Cu 4.756235295941975 5.890798162942032 2.898453002452519
Cu 6.340179182115407 7.892142861769768 3.5604086693869044
Cu 8.114424898129245 2.0956782653130333 6.558429606769175
Cu 6.52298984598566 5.547666751137897 4.743761659221251
Cu 5.72060019036208 2.423633409421425 6.087915340806797
Cu 8.11269232181667 7.482249954446089 5.285863826954384
Cu 3.3469816964245904 2.604192107528313 5.1213836823514045
Cu 3.0927324184470337 4.933800843281795 4.415949677027198
Cu 4.491296754896941 8.115420873172853 1.953238258017125
Cu 8.866429078976118 6.2719228748967 7.345559321476342
Cu 7.2305153075813955 4.310227679061942 6.845336886849002
Cu 4.64133674417339 4.630003239016756 6.41952579594582
Cu 2.032090652845278 4.154770969162584 6.515097191531535
Cu 4.306562548901479 9.111620056665632 4.194967093333874
Cu 1.3609881578024388 6.314741217804449 5.381414954847444
Cu 6.346600029107819 6.618124735459257 7.0069855741320195
Cu 7.91356102601651 8.519664651760692 7.497005105490005
Cu 4.511853497871332 6.89096321591006 5.323856721807469
Cu 2.749999962334791 7.26811696112371 3.53906736819123
Cu 3.667245067264363 2.4827221321095947 7.4697138600049495
Cu 6.119735340756126 8.847038478205596 5.832473719847764
Cu 5.560165119414734 3.656350231043225 8.50869274263822
Cu 7.222500840337482 5.441827830592552 9.080897585278528
Cu 2.648076439088429 8.372805961327218 5.888299972866747
Cu 8.703427030768772 7.344145365524745 9.522436896610987
Cu 2.91183994089413 6.319375397278279 7.283520577176046
Cu 4.797131307126899 6.0033732253727825 8.856445524430764
Cu 6.341581812354348 7.79910437455231 9.229623302574485
Cu 0.8033983488429376 8.4623969092343 4.375936911136725
Cu 4.494610147170476 8.16978710539272 7.5803229896142605
Cu 3.075965646256346 4.368346979692811 8.750067629334717
