43
Energy = -127.80606595 eV
Cu 1.4119979271316228 4.062409903858256 3.4106225870696094
Cu 2.1961068881189454 5.773372944928409 7.2934143277965715
Cu 3.7141469746234947 3.282731833225195 3.8374096486001315
Cu 2.0853603274078827 3.715500959712564 5.73877093851692
Cu 3.219976693615529 7.513879479478537 8.791465900049223
Cu 2.908420639502977 3.425749699372635 1.5539313550845613
Cu 1.8062555119402142 6.10166518789294 4.781519386803188
Cu 4.627864312705417 5.6835862098348455 8.070375582262557
Cu 4.60912411071247 2.9197666701509135 6.099660350466817
Cu 3.8996718239435193 5.246400102835516 5.545716346614468
Cu 2.984998412457033 7.834113161442734 6.340640132636312
Cu 3.19995828146891 3.6766674960281014 7.923716969134135
Cu 6.199445283115925 3.3260774891714133 4.258699764540048
Cu 4.957438696869889 8.801330473612072 7.658716945659098
Cu 5.656877482139896 7.388062663203656 9.596863357296339
Cu 5.204620279556447 4.1820323154524655 2.045918590219281
Cu 3.2021975092972275 5.502169181820108 2.74956173537611
Cu 5.5749491805224825 3.3609937714096527 8.311590219864065
Cu 5.284662961634837 7.204283032611485 5.774572274545921
Cu 4.56602202884572 9.477913679876547 5.312009342949282
Cu 6.237774531090708 4.919197724738585 6.26357183625676
Cu 6.813098240487472 5.177862168850907 9.344248570150945
Cu 3.744202819439043 7.529319558456485 3.9379521302855633
Cu 5.078412116332112 6.855356445983495 1.8709522423035105
Cu 6.817541293138846 6.9216959277000605 7.5762969963912
Cu 7.207435533834753 2.7646343151114623 6.529852661078722
Cu 7.896431442363725 3.022994617511576 8.876426186128793
Cu 7.277034789547437 9.081187261336543 8.529156344730655
Cu 5.722497650999584 5.7530739188857005 3.8551770138065344
Cu 6.963891968768294 9.0685119078572 6.0303845553748285
Cu 8.523569253041611 4.966735073584362 7.406771306129381
Cu 8.412224568528345 7.085789236477852 9.366273834679726
Cu 6.12366546103153 8.390427124907722 3.7592002708647323
Cu 7.553468630314921 4.629206521042485 2.6642339232003818
Cu 7.694366039422118 6.6526682459226 5.242797615074509
Cu 7.484318913931259 7.042560322822256 2.375130846558551
Cu 8.399656708867724 4.308533982479197 4.96646010762569
Cu 9.267508288476675 4.829275953492094 9.739906415652651
Cu 8.99709789562889 7.94182960741293 7.025054291202601
Cu 10.44876178433008 6.339950140103897 8.217715557800016
Cu 9.36350494703079 6.112653639450353 3.51621846540866
Cu 8.606456806939843 8.504497222291855 4.142982457405512
Cu 10.043236430010944 6.105194066919876 5.821506916115786
