40
Energy = -117.25805437 eV
Cu 7.1485944637477425 2.8783288246097536 10.452426496252539
Cu 8.16450406390741 4.034800843011595 8.429942624262129
Cu 6.900927470171159 5.222272869946999 10.082568897853836
Cu 5.854079809978423 2.956632029217623 8.444920656940674
Cu 9.416952859910865 4.301255758253431 6.317530891526172
Cu 4.862004851704919 3.990346744789777 10.381027714728345
Cu 9.922325909532326 4.764498307576613 3.8389119669732072
Cu 8.383814416460684 6.445219646376228 7.309679298408584
Cu 7.121026515722522 3.273338289591385 6.3891764776438835
Cu 7.037307676590668 7.374318977925942 9.102207349203521
Cu 10.01338356121104 6.530837267148748 5.454678383666923
Cu 6.134540401983129 5.301725071394045 7.604695280433428
Cu 8.477304550953162 2.9734558386526273 4.416944225777346
Cu 7.5405243059904 9.022834657746564 7.3740884442067784
Cu 4.779459332348267 6.328102364383452 9.484236339389927
Cu 6.734506505506176 9.811322021245845 9.493006764730882
Cu 4.661399828250898 3.1862315939035333 6.278266629361059
Cu 7.644496848035232 5.441889028992387 5.121781327408261
Cu 3.8261239396663034 4.461200439702434 8.178284489242133
Cu 8.79729520260771 6.822796914311187 3.2162964801112732
Cu 6.467888892058583 7.251019341430037 3.7766597887532605
Cu 5.043134032674078 8.508173473123307 8.411480677130685
Cu 6.143524991770855 7.321802500972944 6.285832394041798
Cu 8.246415862656773 8.114377024631779 5.2570462187086635
Cu 5.674821034800062 10.602769509987146 7.366831013413311
Cu 2.765451232772187 4.915303729272359 5.948311727996854
Cu 7.666612027275268 4.653592082010277 2.756498126998462
Cu 3.8730222335003845 6.739108643942102 7.189681338112265
Cu 5.088883658395298 5.3991303274177325 5.206392441836866
Cu 6.108299669923565 9.468851441143027 5.228954909489585
Cu 6.094550426994977 3.337019090087689 4.167126529459619
Cu 3.682688808611197 3.629495001261436 4.0700291671947
Cu 3.8545111593724752 9.160330942018279 6.432001509625071
Cu 6.847570995920021 6.6064968782387705 1.5396973622522951
Cu 3.009632928110699 5.89613843508984 3.6191875832257203
Cu 4.307240596286516 7.844280195722134 4.548965146402693
Cu 5.220048715198627 5.11186361891553 2.7072733073789608
Cu 2.190029949109637 7.334185260483217 5.521809125873853
Cu 4.515544734413498 7.366440473266476 2.177215677178512
Cu 2.369764214689998 8.153987402624535 3.1742864786592637
