45
Energy = -133.00535495 eV
Cu 5.490135483621895 2.3316403428833374 6.426907552592844
Cu 8.21237236130359 2.755380618255414 3.2128633236315958
Cu 5.840472955607284 2.8569051317825296 4.031911194416187
Cu 7.7630376865420745 2.8512184371655063 5.6488288316399835
Cu 3.107646854915453 1.8954533418232642 6.769879550962184
Cu 9.148810477979966 4.735019311642697 1.9469583297935287
Cu 3.8248561397097554 3.6037427658916794 5.21488166619468
Cu 6.794729413444952 4.6253822009776115 2.6651233381090464
Cu 6.6818446929494995 3.9251439999551225 7.85434175874598
Cu 4.697760233782527 5.2295108028394655 3.6928109767325408
Cu 8.837462234616261 4.829186341693313 4.315003041309562
Cu 6.429138257909322 4.8303536341057765 5.432141135474877
Cu 2.255460567263232 4.195081686459857 6.944001793815716
Cu 8.634220645788368 4.8997903130727405 6.760325739371731
Cu 4.217135806976047 3.3816978436382836 8.354300144226302
Cu 7.920424155747934 6.7469228795472445 2.683220155351268
Cu 2.942695934993136 5.962677852751368 5.2449413886527605
Cu 10.27886211739205 6.605782853304998 3.1370455968775324
Cu 5.586994945732644 6.716450810314189 2.032449426747561
Cu 4.5581757854477996 5.3443990910607475 7.02912135593056
Cu 3.9332956359100146 7.622577579242339 3.6309886482457507
Cu 7.847080899084744 6.901289230084576 5.346946844989897
Cu 10.265745397669951 6.496626184941549 5.550400082988982
Cu 9.411172721663098 6.912732630792831 7.797033449715589
Cu 8.040992943244449 5.472792951299855 9.2670468303152
Cu 2.9210733368801685 5.557933924409107 8.838325369130077
Cu 1.3840146179373536 6.524771593424038 7.045900307353879
Cu 11.223656257329488 8.46116872765591 4.431813817354705
Cu 5.386126908025985 5.363773236200618 9.430909696594366
Cu 6.346924883728599 8.3500039586425 3.6803095449612946
Cu 8.853659016570278 8.6337085428132 3.9181206418886987
Cu 2.148116352770784 8.25971974278143 5.207049141543659
Cu 3.421901771613027 7.821367547531262 7.137866753240613
Cu 6.725194360986994 6.484975508039848 7.517936033658478
Cu 9.57134385169732 8.802549694265549 6.218878118488615
Cu 5.359922610731669 7.090387467011977 5.566356411658319
Cu 9.056900771932236 7.672654129828589 10.026033506132073
Cu 7.114794909546772 9.213336087239007 5.820798064830273
Cu 1.898524453802334 7.718894081543616 9.126069417199451
Cu 6.686933676552898 7.55143241539879 9.729801491463432
Cu 4.325326345012088 7.595152083678514 9.372868177513627
Cu 4.544003011165988 9.326847732592285 5.452874958673687
Cu 7.999361863120034 8.833017188580481 8.09833700215932
Cu 5.606631801616357 8.740247068342684 7.662771094680476
Cu 2.9797841406490972 6.545019725460119 11.002227585609194
