46
Energy = -136.8251313 eV
Cu 4.542727246795956 6.008106740190232 7.367845427296905
Cu 5.75168083888348 6.990661397057586 5.173714015552815
Cu 6.6135912750310535 9.392319919218487 5.496828439570641
Cu 7.8716753914393145 4.867667973088977 9.839654922925758
Cu 4.429201379270997 4.801763304813992 5.078182622792929
Cu 8.97597357457164 8.9346012745424 4.879892848275717
Cu 2.087356131520526 7.593839668775956 4.916870026864342
Cu 4.515326565504588 4.932103009835771 2.5009555370573433
Cu 6.630648926291039 5.077293028831531 6.486951276610362
Cu 2.358303744829062 3.397291381666797 5.564172897274611
Cu 5.9114628226447135 4.163559021053519 8.760489595097349
Cu 5.843386419247497 2.6193399442995515 3.2018635451433473
Cu 5.814463782042759 8.830995069583457 3.3274900506331524
Cu 5.973718697192421 2.1772276877238426 7.399240465588393
Cu 8.141436297789914 8.259739257355871 2.594038807476656
Cu 9.967252299765669 6.879426743973333 5.931175337264301
Cu 8.059484444212364 6.72990011179173 4.509877729542429
Cu 4.000528222532646 7.126286466008124 3.4547688295139727
Cu 4.004870874762414 3.5911378405444467 7.325713417570009
Cu 6.685228193402998 4.802284644549586 4.023819973723994
Cu 8.803184393473066 5.718790670392053 7.732887376209053
Cu 6.647760891299288 6.641162124995241 8.711654780296634
Cu 6.268561469386721 6.634082901746925 2.4898091588659974
Cu 7.643347664957955 10.468403010833393 3.540613522126705
Cu 8.572713706464878 5.64393940014279 2.4250887118524993
Cu 7.735503744692519 7.651044055243576 6.765435818100304
Cu 5.55885958895568 5.668177053957839 10.687182445852002
Cu 4.675911751534229 2.309828754369228 5.3235841266787425
Cu 4.333214510054266 7.366691812981245 9.376225505804618
Cu 3.17497306430554 6.228404483150305 11.151198241025511
Cu 2.3929161786945645 5.311593525468859 3.88773113211196
Cu 3.3837603734186246 3.0145914981877717 3.349173268690895
Cu 10.198951484616657 7.259449747879388 3.4716875188165517
Cu 6.711355733492701 4.25615447790684 1.5550463907975736
Cu 1.7468483594976931 3.9149959229537523 8.011274750552214
Cu 4.147766469756968 8.865278671436807 5.251375638106207
Cu 8.317620566627182 3.2593425857238967 3.2160229906442286
Cu 8.839224844299725 4.577284569177646 5.442692124491115
Cu 7.141975102416992 2.7493546967358258 5.358618998241108
Cu 2.2360008490142915 6.213620075320079 8.808828781686747
Cu 4.64981299124519 2.958325820057854 1.1407516458497562
Cu 2.977817939061712 7.928827831811535 7.200912613893371
Cu 3.6405411532199254 4.468238866055122 9.580958002000127
Cu 8.055109930133412 3.418887698207153 7.651919654256509
Cu 5.422218004034457 8.353919800321176 7.376895244277691
Cu 2.269675840542429 5.668009192966565 6.382829525924901
