49
Energy = -145.86693429 eV
Cu 9.011898007734224 8.923227706717157 4.34788085044324
Cu 5.398641267174265 7.232661419016902 2.771800713751282
Cu 9.66438681240337 6.508011282948324 4.577361206613696
Cu 6.2413530239183 9.223784697671372 4.0446063700471155
Cu 7.33530825606022 7.029933348827129 4.154191416852727
Cu 7.828595885748225 4.5997466499791715 4.361593625001302
Cu 5.489228491634639 5.334989514998103 4.397013100348595
Cu 8.552765305465085 2.9250750133050003 6.153229256338966
Cu 7.637221893148608 10.61712741219815 5.448403842053439
Cu 8.522113754705774 7.87217403194172 6.397963832879401
Cu 9.812332174499446 10.220785826306841 6.520144041547048
Cu 10.93937176751226 8.096766927577056 5.933712628704632
Cu 4.674660075788858 7.5710631585511345 5.034648653593635
Cu 8.822783107983666 12.398399616165076 6.7088572917257165
Cu 5.192853976946999 10.784720692513229 5.807794888811599
Cu 12.295534536274356 10.032763182655817 6.465986552480874
Cu 6.393990335676377 4.022713610165736 6.376507455217665
Cu 7.530515691310693 9.051439203304284 8.55978021854327
Cu 4.281015910318591 5.639080008448098 6.632276663998783
Cu 3.7802883362769615 8.086985049449703 7.282544933035861
Cu 6.511319252267153 6.4062780246757525 6.4418277117712375
Cu 8.786328329584466 5.274286160808411 6.421400628262992
Cu 6.178774540909406 8.83148180167285 6.523560828893305
Cu 10.583734320941215 6.346433923862497 7.7007085399672315
Cu 12.212466760415268 8.196015184737915 8.107562680175713
Cu 5.765429020039816 4.9880663608044715 8.64484365919211
Cu 9.065490109199793 11.128220128267811 8.830007984014788
Cu 10.30531638362546 3.8723276488108795 7.718492719395662
Cu 9.863937097067764 8.591602769149612 8.398952137884711
Cu 8.01727821879277 6.541979643045164 8.399224481880095
Cu 3.541598192604312 6.1286595255822895 8.881429648307764
Cu 11.398024852973595 10.483756150119468 8.634545753798925
Cu 6.89306362492976 11.286306186596743 7.627618794957662
Cu 5.6759388289180155 7.406154301764381 8.579965874984106
Cu 5.16021572412479 9.887071817600145 8.550331051686806
Cu 6.981282646033443 10.947662446220358 10.113613648157173
Cu 9.730692260115944 5.193801514031804 9.718530646151406
Cu 8.566975343549958 7.755585552202193 10.42281681668421
Cu 9.022079128937948 11.68064188236126 11.225466822052736
Cu 7.964712997779213 3.9965554903626996 8.387127864750633
Cu 10.990353384700969 7.281232834264935 10.10795494963024
Cu 7.4415256516972885 5.432122410546933 10.524255017822629
Cu 5.213078519479945 6.4145717322935445 10.755771946190006
Cu 10.17595403673591 9.666111404955116 10.623303572817177
Cu 6.088473096781239 8.738218475134142 10.662890082869897
Cu 3.7785320396233555 8.328889067101953 9.846386757878342
Cu 9.461833501309513 6.219854349322166 11.938634732333398
Cu 7.11956709440162 7.193673265360898 12.257351015391205
Cu 8.057583647821986 9.56740881154698 11.935543306052717
