48
Energy = -144.49121239 eV
Cu 9.618208908277753 3.476430967816822 2.5072038591096972
Cu 10.706404233372517 4.997364322521981 4.041547009728013
Cu 9.310827545823916 6.365397538903538 2.018445942406331
Cu 9.71586222495207 7.155081972367167 4.470088783044491
Cu 9.274822718655281 3.124351634005184 4.907461085923677
Cu 7.657544870781743 4.264714755534535 1.408047324677299
Cu 8.655606101548878 3.15562081295459 7.276020665133935
Cu 9.374191032590096 5.346339748562388 6.179458758788068
Cu 7.314675079889897 2.8663422553570816 3.427792587149711
Cu 8.308924795899364 5.1729408751538895 3.711383136311773
Cu 8.558049177131952 8.969055582932166 5.672270415332774
Cu 8.558318948908926 7.380026694294538 7.516153773483951
Cu 7.7906486960515355 8.046316918421962 3.307316146320285
Cu 6.767400841506092 6.417605009581592 1.8087729192799262
Cu 7.557209722072269 5.228535734077266 7.990966637539481
Cu 7.106506974808464 1.870685668198024 5.706783664581847
Cu 5.160198053783939 3.0516552181166543 4.673700316556162
Cu 6.215921398306447 3.1877929132257457 7.677245728286084
Cu 5.37748295286923 3.8577321887908202 2.2535386597975897
Cu 7.14872622775741 4.295456058203947 5.691171833619146
Cu 7.391869489904428 6.785119990417893 5.363037055400001
Cu 6.894632048903258 9.208950259451518 7.584636986269945
Cu 6.217909856110997 9.02590375489789 5.133679902640243
Cu 5.86173862488987 5.474908273258569 3.9543610414478256
Cu 4.788362688340627 1.5725712656043347 6.612315461041207
Cu 5.326865916119419 8.020350459584677 3.0510196699372423
Cu 4.3146375882924035 6.069508307909657 2.048908336679121
Cu 5.162143737751431 5.209642743428015 8.835887753933752
Cu 6.916350596266641 7.100746325824084 9.469949523937373
Cu 5.95031832929036 7.041437124866789 7.2742310368125995
Cu 4.458003661687116 9.164555258705368 6.861241332449148
Cu 3.5206812626852755 4.729174324028613 3.9535199633026834
Cu 4.782064161709318 8.270789132462118 9.183209918752933
Cu 4.801137581443241 4.976227276843884 6.37236441387196
Cu 3.8299181385235284 9.377514799688928 4.419949022543716
Cu 3.091163125341633 3.336954069026007 6.08448964370616
Cu 4.539066409440232 7.167002704048711 5.238861013567236
Cu 2.800274874192907 7.169669701923692 3.617302051149476
Cu 3.437610710398171 4.487160949466115 10.36059692796366
Cu 3.9477408436505645 2.9967142446943082 8.443718694066233
Cu 4.921800608239545 6.475923031097746 10.870154312121938
Cu 2.5019207706042663 8.884740403988532 8.35453740517425
Cu 2.2474814297937056 8.252698198567744 5.923448774336814
Cu 3.5627580936749323 6.891649620643318 7.495399997754104
Cu 2.2844365164581943 5.737833262637943 5.76105447073604
Cu 2.4376969554132963 4.803484332910621 8.100576119642884
Cu 2.767495949025097 6.7674006104230795 9.752265470261076
Cu 1.1643970573741627 6.869930235092181 7.731921983943227
