43
Energy = -127.23963155 eV
Cu 8.869599667401523 7.46602328048136 3.461694420989211
Cu 9.000231862394063 5.4654297004577055 2.2089751543381233
Cu 10.552446195120131 5.519570789384659 6.7821533090964055
Cu 9.874739042823878 7.384152056821368 8.212070771483983
Cu 9.313574011438725 9.509336307399781 7.176607300201478
Cu 7.7972648735668875 8.818675611747121 9.058489414429687
Cu 9.979227265930344 5.142182021693528 9.173225398698278
Cu 6.6843018679971 6.359366150972422 2.4752433373446423
Cu 6.821468578094562 8.806173497646482 2.7775019672163337
Cu 7.867676407141172 7.532419039705104 6.796650933304521
Cu 8.656068741325294 6.901320508808254 10.239702523977945
Cu 10.252167608160308 5.596168619512362 4.323211264726111
Cu 8.257740307846403 7.567469956519814 1.1196270902907044
Cu 10.010231755319968 7.662330654630402 5.652522246192854
Cu 6.363297309420104 10.911160228486475 9.034706004238359
Cu 8.15401025876353 9.277333007516457 4.952341145511824
Cu 8.281375917722935 4.917845637750693 7.473171063840808
Cu 9.360522302561266 3.7151708958621277 5.653046823884357
Cu 7.861611867777564 5.199851697837061 4.471220224330739
Cu 5.360980333757148 7.936044045383189 6.815894104795295
Cu 3.793032285773979 6.3729705815285325 5.621113571430706
Cu 4.101698327634034 5.801792130763862 7.999893540882091
Cu 5.330258931454258 8.789086814886039 9.142383967330302
Cu 3.4660063161930146 8.768495796306283 5.477948918031528
Cu 6.557141519828045 6.534757432955097 8.652529217866547
Cu 5.106564277093374 5.044013382369124 10.20274221289974
Cu 6.193142764901508 5.693815747742411 6.398842473883973
Cu 6.630552159916046 7.3609893990891315 4.709155712212096
Cu 3.2237704281757855 8.11183514217985 7.880711714011067
Cu 3.901917028549565 7.145427321530861 10.09010971601539
Cu 4.415817368944198 4.016098145377561 6.250827543075231
Cu 4.592118664346697 7.625388025817268 3.5586622201324403
Cu 6.931100077044049 9.932987718417086 6.9554953810587925
Cu 6.116226736453282 3.983129838031221 8.20835460990427
Cu 5.26759701719712 1.9695613257072444 7.231365117482102
Cu 3.820239644570449 3.401151861853263 8.634750990536535
Cu 6.851164783140157 3.4078242766193636 5.891005734649481
Cu 7.604209625100877 4.775472115558805 9.96687094217257
Cu 4.539834721659211 10.208699139806422 7.218047088181878
Cu 5.640140889036991 9.626972231627859 4.841176395056706
Cu 5.373940061320648 5.167364014893553 4.1694065198379215
Cu 2.651256817713084 5.118261082377534 9.876499815181603
Cu 6.3036887718738726 7.185838158428899 10.894007491759538
