48
Energy = -143.93191089 eV
Cu 3.464672189400165 3.705813173388707 0.45579473674054216
Cu 1.3875649146549924 4.669693064868068 10.15847799737608
Cu 5.297793745312686 2.095825590802837 0.6518683243805448
Cu 9.727079582815787 3.5905285237018525 0.988472631722206
Cu 5.374289881372577 4.943569173624164 1.265800362527367
Cu 3.199787000185676 6.251919326397962 0.594906372662108
Cu 1.7665584045395581 1.8635906851710702 0.9734526300704774
Cu 9.191938184296566 3.9409255404205883 3.00311713934223
Cu 0.9573334280552788 6.053504934939738 1.9110825952992452
Cu 1.4690527100052642 3.603764781668035 2.455645877987166
Cu 7.293415742855762 5.700434509470601 2.724541758585792
Cu 6.864587405520589 3.168113966869918 2.2495547138581657
Cu 3.6318350572501292 0.4443835257651451 1.9347478573434038
Cu 9.849883689805694 2.0112815252663006 2.8035558086714865
Cu 5.950841480957817 0.7910401689081283 2.737169238967165
Cu 2.5068992934861156 7.379619216801177 3.5542454560978105
Cu 4.93546197851084 6.95111681550278 3.1384131806769346
Cu 4.035210307455232 2.672527792279553 2.5587151216083606
Cu 3.259745345628654 5.175258767860361 2.6488860195770645
Cu 9.472010455651015 4.555871503741442 3.2796985302349264
Cu 5.282269705289467 4.602167603679108 3.673890853854657
Cu 1.9676829518852998 1.4369320737167428 3.5617628473686627
Cu 10.087025820994343 7.029277390429724 3.9017422596529787
Cu 7.449756439395087 4.08233250325081 4.553981234563599
Cu 8.931756119508966 5.863473638966934 4.715556456060846
Cu 5.7136859930798405 2.3714742500974713 4.457684925826243
Cu 4.003620578427363 0.7304130953307861 4.563178281186981
Cu 1.4562712904532134 5.251774423174064 4.25961574354735
Cu 6.4379578080465745 0.29745865971403157 5.26316223516728
Cu 3.209086619489345 3.4302632333907406 4.686444546034284
Cu 0.5678436774047506 3.040271813773213 4.896956145242405
Cu 1.5549022161037414 7.047214421483538 5.843055719124015
Cu 8.084774415153033 1.7733401836514124 4.013311369685946
Cu 9.472010455651015 3.418810517344193 5.492732996793012
Cu 6.410687464000143 6.398440644063781 5.091203357457801
Cu 3.7103122681467284 5.717946590195089 5.328551330068416
Cu 9.689203181541444 5.313167192436765 5.6515564481170895
Cu 5.5128377857608015 4.143791406736967 6.043766699601749
Cu 7.371460933417854 2.3834026822597427 6.42665553795103
Cu 4.241223553102752 7.929021833721615 5.474946703410192
Cu 2.433335036761507 1.9978275898471212 6.351780790743677
Cu 4.911960264604587 1.8532222723739158 6.760466888048949
Cu 7.746724598729546 4.958845193800217 6.805958672642654
Cu 1.6998563038169283 4.506070329525089 6.584781966237715
Cu 3.7450354313994105 3.9327446396245582 7.640306015036557
Cu 5.443492461656439 6.078144156072407 7.374922256324943
Cu 3.0614194246283817 6.364672046084536 7.590288090483173
Cu 6.170255995733809 3.655768856901311 8.245716657701287
