45
Energy = -133.48163747 eV
Cu 3.200869757015942 5.580542102998015 3.427554821942856
Cu 2.0680225192838613 2.757707716385226 0.757920927864668
Cu 2.5842817025379485 7.819790724243707 4.5299547613993685
Cu 2.357389365423938 0.7823827986356028 2.5848560938176113
Cu 5.3045238013652725 8.208069589820044 3.020470496077821
Cu 6.4766684891381905 8.02609671300431 2.6578415017609953
Cu 1.0947991901152023 5.884648903933136 6.666101293511959
Cu 0.7257277866204396 8.190754935926572 5.9791246446318596
Cu 2.9616078535090167 6.208630088592662 0.8384580911151223
Cu 5.854375489254617 2.7384012215998306 5.360900678082722
Cu 5.846242736308037 0.2779137463360733 5.441924898035988
Cu 5.084472503555563 3.6119031061663343 3.246625069742946
Cu 4.983001427826676 7.471706908474977 4.840174848091394
Cu 2.7283947882400885 3.1727521647183012 2.9152560079441483
Cu 1.1480759143678003 4.898480590258172 2.2097508743134564
Cu 3.3410737611438686 5.795469183003158 5.883849924538225
Cu 4.128442260128054 4.20640557573435 1.0815492972783403
Cu 5.180176940190849 6.542184147550183 7.263488000768099
Cu 7.639559268136397 8.295261452192419 3.965789634425668
Cu 3.3346959571360038 8.19075493592657 4.956037952978539
Cu 7.981222806813435 1.7354964437705827 5.313971288705194
Cu 6.577501076571561 3.9961265656024376 1.4544397697279194
Cu 0.5384909144201969 6.411014326851824 4.298182749892195
Cu 1.9153505979712464 1.7464976461667907 4.939611544244287
Cu 4.05626344367016 7.715357635514192 2.4343320902328403
Cu 0.49427707657281383 2.524745061906439 2.8592600077577024
Cu 7.466460723496149 4.08880325613498 3.905320121601452
Cu 4.790203493725247 3.9497159198302323 7.363331528321443
Cu 6.3573884602175115 1.833831184783859 7.431534361149746
Cu 1.2106101929555444 4.148818993500853 4.721159449344491
Cu 5.522291740135437 6.355460494265376 0.73154586325334
Cu 7.844802526501988 5.997782363986508 2.1184186960328106
Cu 3.931671927127003 1.601623230229964 6.540525120915215
Cu 4.531198546612524 1.8168697319397258 1.595736847007124
Cu 5.655091814135638 5.1517257761694255 5.345493211097698
Cu 2.9735735206811835 7.847104913839675 6.968633439205715
Cu 3.587074207336294 3.592109853479208 5.124995494820435
Cu 5.642779857040495 5.8707319407544905 3.0096648548621516
Cu 3.079134503676507 5.628697423086675 8.26656804976547
Cu 1.561974323795893 7.38095823975893 2.3753483825409925
Cu 7.434541635900392 3.990519467447156 6.578102236295753
Cu 7.4124338643143 6.578405964477232 4.538049095638764
Cu 6.644336920939546 1.7288597008017925 3.1155620389624854
Cu 4.214373596752926 1.4754741332023882 3.990955268240102
Cu 2.204604639659064 3.635082615011779 7.021682594384986
