48
Energy = -142.71838239 eV
Cu 4.012658677530283 2.4920361678942893 7.751358174577654
Cu 5.605546664932408 3.6838075187682313 9.284838841399365
Cu 2.9801616627005356 7.129782548500854 9.612673014958322
Cu 3.459713137187778 4.77214965671455 8.753414945602152
Cu 8.125411366794582 3.60074364042571 8.436326644941971
Cu 1.4987186840345714 6.11523185269869 8.017482528279258
Cu 5.1087602967104955 6.075236194016227 9.975517280529553
Cu 5.283569134032256 0.8923654139090547 6.1389252267159
Cu 3.9104730544459905 2.6392002412293447 5.250090818100555
Cu 2.2449425748592864 3.9219434832451507 6.816049714723191
Cu 4.68725573950173 8.82020378846775 9.000167341347636
Cu 6.279330195455248 2.8733893873993326 7.000783626343834
Cu 4.58569177379263 4.66699553993598 6.463644677780607
Cu 2.8202741534716287 8.407004645274927 7.473354516337292
Cu 7.351710336404994 5.275715634272067 10.164503265245939
Cu 4.6718312807425875 6.834939582279598 7.6281527761013965
Cu 0.8024775605086596 7.787131525961033 6.33363893065034
Cu 6.613157810630691 5.322856094623197 7.807723243719639
Cu 8.670534664063698 2.466637018940135 3.4959342274590304
Cu 8.787497208710791 6.398413803280514 8.56446531150256
Cu 6.304169141050446 2.4800069151962134 4.497242762475286
Cu 8.43081508522735 2.8613978083300853 5.857604628689413
Cu 2.4319841511858318 4.500387087103196 4.399884144245238
Cu 0.5116745243059607 5.372288185532768 5.919974894923756
Cu 2.8329046498558585 6.321272990896005 5.968050003273438
Cu 8.945873004549158 5.110717969294145 6.621378756029665
Cu 6.838365953750978 4.772713878826304 5.365351170570598
Cu 1.2794937506807897 6.839129882273273 4.126674500694479
Cu 4.845102933425152 4.444729229877296 3.8320460948835775
Cu 9.39175709495978 4.630959216311895 4.315774126647368
Cu 6.743654538047339 7.568578229571946 8.921868008511565
Cu 7.174153388786553 4.292941277728423 2.922670162393578
Cu 5.3274913041513505 6.770538423165236 5.115912095403264
Cu 5.1162128400799 8.887506273482586 6.346034739287827
Cu 3.522841614763947 6.523850413156265 3.4238087432144275
Cu 3.042031083692399 8.495409235278913 4.957556196762792
Cu 7.402479294040019 7.2469951632962815 6.499984194615328
Cu 9.465126740069607 4.2030476973370305 1.9377982106245588
Cu 7.707539439916523 6.612696316440885 4.009542354318196
Cu 9.723972966089262 6.9677027827243165 5.300384082611314
Cu 5.75119250871823 6.325092762296887 2.5265270874210835
Cu 4.954638789339222 8.564158666548774 3.4177561413393245
Cu 6.990919873092345 8.832912305147833 4.681052093307978
Cu 10.10717547733744 6.428321252825621 2.8488416528601035
Cu 8.022699588659094 6.142119483936539 1.5346617729570058
Cu 7.121479591511944 8.352230537208763 2.1694771646007194
Cu 9.16362069641905 8.562192789157095 3.5038900517393397
Cu 9.41502105518674 8.058183150237774 1.1285413401463034
