40
Energy = -117.86613595 eV
Cu 8.672464005852726 4.242379809144398 5.9916945065315526
Cu 7.136183317330618 8.281812118194845 4.787563478295269
Cu 2.955997963146571 8.133379210852222 6.047976532579333
Cu 9.530430533431582 10.837713649385002 7.355621554190177
Cu 8.968565048135389 6.636063592056512 9.778564228206037
Cu 4.586312479703168 4.8180052717700015 6.002954680719711
Cu 2.7600825841094774 5.99453928864338 7.243973590488491
Cu 5.53726157849694 11.394411861782864 7.382874492290646
Cu 6.538781286134545 3.914023921643021 4.763613657875167
Cu 7.431754059056582 10.420760091256343 6.1344486713110875
Cu 5.21878649780424 9.37423931086102 8.6759919308842
Cu 8.638002382045181 4.395821040105764 3.5772221757014475
Cu 7.146528331174363 8.295085776169495 7.333516610798822
Cu 4.647694543588698 4.928236537571362 8.460981542364197
Cu 4.906812799539248 7.16330557179915 4.701278313986412
Cu 3.3699051235535253 10.241804781617876 7.30380408783975
Cu 7.163705114276608 8.345278056888333 9.88760156789934
Cu 10.74997982906354 4.890449758936909 7.223084590015643
Cu 9.283385634310674 8.776086003915042 5.957211899507384
Cu 11.046991672302763 7.037226841312309 8.470156690919612
Cu 6.845561517498906 6.106663369907732 8.561130610522266
Cu 4.920646083574788 7.13365380624221 7.28020443064063
Cu 8.974372060022903 6.572880657344734 7.265273727049885
Cu 7.450396121645046 10.469093097962364 8.620107384351687
Cu 6.536701727876272 3.854756438583083 7.243890137068705
Cu 5.207437597380463 9.339603623674282 5.977097929618208
Cu 3.0512973020403 8.138385256240106 8.495586757277097
Cu 9.302759142198962 8.818327869876098 8.667730143769878
Cu 6.8412354109691 6.086573143207243 6.032175175450852
Cu 8.647716550320402 4.386714734996038 8.451578704714219
Cu 11.301973287670451 9.14123164224305 7.267156957275596
Cu 6.829526338931703 6.075041997141068 3.5695114066061864
Cu 8.985645768204657 6.596507715105543 4.68829439609657
Cu 4.958401736124677 7.187465511289033 9.789492526975335
Cu 4.639395317808754 4.9373532752800084 3.5905071753978772
Cu 2.7779991834962257 5.981770887987995 4.8136354774129595
Cu 10.721958088904 4.882865567585341 4.7892466101493385
Cu 11.132338872587276 6.999314231942286 6.023623528099548
Cu 6.8667562102129125 6.168907550223555 10.989231644893776
Cu 6.55147791904062 3.960965918241807 9.689509684409854
