47
Energy = -140.38816289 eV
Cu 2.2668315706443907 4.933814824663289 8.868346483663997
Cu 4.706667174638187 4.317527827743505 8.793244901273164
Cu 6.0448707856995805 6.169593727462356 0.48661248834850906
Cu 1.1672790773866049 6.441341564233544 0.9696447157448184
Cu 2.978268360002985 2.9661066968798804 0.5648592762429601
Cu 3.625449165864725 6.503880527060486 0.6948384806899619
Cu 6.87220848348424 3.779073987520321 0.6765090699293765
Cu 5.1483719213754 2.0007414212523966 1.282705805741772
Cu 4.826422699262875 4.456440877286124 1.6980183310271557
Cu 0.6793336723403621 3.954358925564881 1.1219412468367245
Cu 5.009238474247963 6.743788882140898 2.7436419183959972
Cu 3.52123224865261 0.3396879006473335 2.5559084772918776
Cu 7.0908849036833965 5.348508276052639 2.6065825835171155
Cu 2.539384147155799 7.343607759956827 2.8627807044129914
Cu 2.517588108399299 4.887346412710721 2.3374292027786243
Cu 6.3314536787836415 3.0911398577622187 3.2471543153523372
Cu 1.482365269153997 1.7259492196774362 1.97813271970158
Cu 3.5534307274719206 2.7137677279945502 2.9810043773909936
Cu 8.568134295036424 3.3839171019973944 2.4120982779693048
Cu 0.38220868452494766 5.7868541270664355 3.2093035825811147
Cu 5.7586252512528855 0.745325683151227 3.4359844318963413
Cu 0.8451552775556697 3.392707743635005 3.63721208397322
Cu 6.493832550313305 6.270164489608179 4.799481213617513
Cu 4.58128133951476 4.7084826931109385 4.123146620430034
Cu 4.038284298048507 9.31814186278426 4.988739107334315
Cu 2.4083283804607225 5.755863351159786 4.6426504756255715
Cu 2.685823929569084 3.4421048870412525 5.231243832441589
Cu 2.0290300085973647 1.1631742635488918 4.328413089729371
Cu 7.224269637738667 1.9392705150034206 5.244690434872602
Cu 5.738287072702416 6.803526609600719 7.033757894295947
Cu 8.145165887638926 4.327944888175529 4.6103198080927354
Cu 0.47448798414155585 4.850663554083821 5.695130042403403
Cu 0.7925866131206195 7.344944769384222 5.121179957055933
Cu 0.696244982691768 2.3892168818895407 6.007896831313488
Cu 4.205005105822168 7.237331256570737 5.050439772759788
Cu 4.772159238283047 2.254015030647923 5.114139435131918
Cu 6.180186359639765 4.0571419039139505 5.953751631388229
Cu 2.953759028583591 1.4163697477925916 6.649191606078493
Cu 4.058795010036509 5.15533891994139 6.49167251683067
Cu 5.504653698676871 0.847189860683279 6.871636396609316
Cu 7.048348358717812 2.6430582975964563 7.654264107392456
Cu 2.00189858602546 6.2963301960889275 7.061113596457435
Cu 2.124596831720551 3.830896321158335 7.531912855749892
Cu 7.8549887196815975 5.474065130403701 6.827154249529976
Cu 4.525472816409741 2.995580807739007 7.697285094119598
Cu 6.044273429686894 4.784999379353865 8.355674292791992
Cu 3.673053089815195 5.274853396428442 8.793244901273164
