45
Energy = -133.6634933 eV
Cu 3.5823378406859607 8.564979362714617 3.710164840207771
Cu 4.310003223737284 2.0242418494298193 7.59952421225517
Cu 8.342541503610512 2.9996257355534555 7.360099940071146
Cu 2.6446931463296046 1.1085483661396367 5.8371227146693645
Cu 2.3659049829599823 5.5099727801543255 2.2340111219997314
Cu 0.5517737643210836 4.969844572268371 5.786965293784433
Cu 6.74487456030274 5.423546569665944 7.363879850960573
Cu 3.0079506890665755 7.808867298436089 2.613207399303581
Cu 4.123412965920365 3.77322908175644 2.352918645743345
Cu 2.1586818952013096 6.7527422834087965 0.21814011414475493
Cu 8.085228040944004 5.168679608372984 3.0363153089367523
Cu 5.247632977641317 8.347634220557612 3.500379167600167
Cu 7.3099714141592615 1.9411271545350899 4.953686126248771
Cu 0.8319653218101989 2.782837129746846 4.679546490572164
Cu 6.184838810889504 3.3115173423142976 6.536191661813895
Cu 6.092706868117819 4.035802073005123 4.020513147319152
Cu 4.4323954192602955 6.134126673107517 0.9517811332559902
Cu 4.329169279559677 4.4807628325505995 7.944578254909735
Cu 2.610314748813181 5.932174818550602 6.677257318520459
Cu 5.3529703852282084 1.6784207431441285 3.24620655984659
Cu 0.2582167176263169 4.915431943495754 3.33518688974311
Cu 5.1276928359328275 0.7158116923661422 5.528147110681488
Cu 7.494193276415355 2.747531316569257 2.5289941211898967
Cu 1.2273060241716103 0.7269096307724361 3.0141895150383684
Cu 6.693946272165049 6.473087418710492 4.666414580408737
Cu 6.704828055188268 1.135286850128429 7.368249191346043
Cu 3.7888216462049105 7.5136056315291 5.199330834889025
Cu 2.887009798138122 2.1592345249363594 3.6978853922619233
Cu 3.3429956833782626 1.5100884765353741 1.4844216542298254
Cu 0.4934126273162244 5.009985330522601 0.8105159348768083
Cu 6.276925599880773 3.152705591572673 8.866472728612282
Cu 5.576186942424905 2.378567649947734 0.9143728876676362
Cu 2.326050305042662 3.436214855410374 6.732999327624434
Cu 1.5710943366773205 6.803533026936735 4.428511179158906
Cu 2.6319284515904284 4.570999870234968 4.4536212173610945
Cu 6.2921901202889226 4.622142173274428 1.45269029772576
Cu 8.075621958870748 4.43652220221888 5.384072961518186
Cu 6.57661335874913 6.882621948041702 2.139954569795817
Cu 4.578369055776961 5.999207629472121 3.3680152738856566
Cu 0.6071069388040929 7.141025418153288 2.1311528461572093
Cu 4.7275105389049195 6.925442400695619 7.499409985575943
Cu 4.276225996586757 2.980671511834303 5.295061152012041
Cu 2.8602980351278644 4.193673476435005 0.256762663121299
Cu 1.4389947897241888 3.1127710145884375 2.0636926080209586
Cu 4.831534932650381 5.331022670868739 5.731827911128816
