45
Energy = -133.98527705 eV
Cu 8.64683292128029 3.1478274348049897 7.57155923382227
Cu 7.143125667054923 2.6537188182591755 5.550581572006219
Cu 7.094199658828663 1.1392299265697794 7.541041864047552
Cu 7.363650381178957 2.3134635445232696 9.692770789536786
Cu 5.168400550943989 2.8211211221065033 4.041443091569452
Cu 7.796656549436527 5.40659598294033 7.098667858008777
Cu 5.071516127043878 1.5775035796691028 8.911905539030318
Cu 7.539168799530083 4.733131860753038 9.496136376121274
Cu 7.392071023538512 3.581977814570327 3.3068734481137034
Cu 6.86863726828987 6.07984448933796 4.9227899862972055
Cu 4.942340455918134 1.9275702939260224 6.400715554787546
Cu 3.457017960366797 5.412592985972276 9.520407650276244
Cu 5.766356446174671 8.572138535789419 7.914322630466776
Cu 3.0389547691128165 5.493485269513144 6.96156617847344
Cu 3.1305348073278245 3.39042145400681 5.534974477926262
Cu 3.8096802870138915 3.473324644440534 8.018601200065339
Cu 3.1348933433102326 3.7138462585259964 3.085216281577906
Cu 7.6127423487952 7.866167896461425 6.563538336485273
Cu 3.398701313259388 5.808421587881422 1.9459827738261004
Cu 5.271668336336411 3.78319721888921 10.055115306414237
Cu 3.5368415746434247 7.510168108073163 8.185612525674117
Cu 5.234754404966983 4.535338789252048 5.924040516339501
Cu 4.920716519776973 7.060887060517232 6.16874451039874
Cu 4.927538065184737 3.7714124225992824 1.3796546113218673
Cu 2.5236936945214397 7.632702332114175 3.257618856519544
Cu 3.3786635846078594 5.668518133500788 4.5101475795774375
Cu 5.212730037270016 6.113212983599688 0.4300025642279595
Cu 4.320039793319773 8.140969219126818 1.6118811652152598
Cu 2.5390673513612936 7.623216863919061 5.728677998262223
Cu 6.299492192281405 3.4050047160350387 7.822098603351964
Cu 5.450919603778855 5.734712866373453 8.16128310529489
Cu 7.148800141284196 4.946988618141569 1.2662022355117095
Cu 5.711314241322985 6.1650300543823064 10.48803214464709
Cu 5.5121786660390875 5.161890378700095 3.1501157741340484
Cu 5.0578247969919525 7.450833605986602 3.7872700674182957
Cu 3.8300889821534367 9.488755399444086 4.099654102907062
Cu 8.863430359731852 4.271645915840854 5.165228782704959
Cu 3.881513530527671 9.37961428883736 6.603062919724394
Cu 6.733407466192989 7.281664775335405 1.947413873612108
Cu 6.015135727618416 9.48368689142776 2.8812749233691317
Cu 7.425532812574316 7.09074927966464 8.90341360850305
Cu 9.24484401730512 6.63233038035853 5.325395129942647
Cu 8.469101352945483 5.817934110530805 3.1274348491016943
Cu 7.777670098997612 8.163926381026688 4.010165045414523
Cu 5.993029785149939 9.273680284912224 5.38887505319047
