48
Energy = -144.12137902 eV
Cu 2.845707654907522 4.865927774324319 0.5325297046072602
Cu 5.373898919266557 4.309333415049069 0.6423860392293431
Cu 1.2883632805790068 2.8652907009227184 0.5754583390294141
Cu 3.672618654743487 2.5409294321013767 1.3656048000856378
Cu 6.053280464172283 1.7983391724003353 0.8304573514778707
Cu 2.2203419573500205 7.2540945937536305 0.5384682947947873
Cu 0.45755383390155957 5.180299667307568 1.24744672437033
Cu 6.414105721781645 5.584084872802314 2.6168601619462892
Cu 7.673636502844305 3.636889135886087 1.4802632978537213
Cu 4.506363648071398 6.693605283613388 1.4087950020137099
Cu 4.01837395092399 4.726136035368262 2.678879617908268
Cu 4.827581835845696 0.8539537191877978 2.916655652634713
Cu 1.8673901899779644 3.7970315611444474 2.6757569947499973
Cu 5.737719465325588 3.0700606263067147 2.757035543990938
Cu 9.037346030802377 3.069492501872678 2.459767462806956
Cu 1.782492760555362 1.4298891173461468 2.663497535654404
Cu 7.538596050320105 1.5739278567967112 3.032901888007636
Cu 7.76066112430406 3.911550883099663 3.9767118665014807
Cu 3.3594437066918457 8.388992207822177 2.6652843582376007
Cu 7.044601945921084 6.218961532447796 5.023175064263662
Cu 2.0885308942620795 6.2913948918979905 2.667516666456335
Cu 5.278380855082513 4.540350613834915 4.609067875845068
Cu 5.809976745840677 7.877343322263732 3.3594645552052147
Cu 4.043551347264604 6.661871970605832 4.329416685404057
Cu 0.24865929164798972 5.06377293131739 3.9280531317182654
Cu 3.5823412196918225 2.4865408371286515 4.180284310308086
Cu 3.3012387310748315 8.7594188371684 5.110521910263818
Cu 0.850126836473305 2.7667173512598717 4.672648259632559
Cu 6.034086528869355 1.9706027813953573 4.956370097789131
Cu 2.1496423875272144 0.6836680952652445 4.985427135914071
Cu 2.736968108343273 4.686162602818191 4.923559060611349
Cu 5.4821147392695195 7.93641722487045 5.870543406987956
Cu 8.377985654537415 2.2991970324592805 5.782500766839548
Cu 0.9946366823854216 4.880096119885574 6.439025279734093
Cu 9.037346030802377 4.78456108216579 6.026555678863584
Cu 6.839518600892183 4.029813672627758 6.311935254270881
Cu 2.967189881906526 6.754908753015035 6.68734414164016
Cu 1.4874507680050362 6.952138924289626 4.884690000684204
Cu 4.50642372822271 3.3138706525343196 6.465081499045712
Cu 2.202350096390069 2.5622977813271457 6.645799812457909
Cu 5.098914072900224 5.7448711539782895 6.7905296026175375
Cu 4.178678369886941 0.957690872124605 6.304625467666462
Cu 3.112843618099628 4.593337179261954 7.8844840922948825
Cu 8.177830015065801 3.550991405846884 8.138829081684147
Cu 7.432175651803824 5.96152437483563 7.5645724075585035
Cu 6.305340897738437 1.893360957546651 7.484167952291665
Cu 5.709506233130031 4.1131852269328 8.520021786113203
Cu 3.9826236887851665 2.215117997350346 8.4890431154978
