43
Energy = -127.17333592 eV
Cu 7.097005235133907 3.4308701437398748 10.295759169261359
Cu 9.001656848368656 4.64389292624638 9.330484669927639
Cu 8.833157577356626 2.298967397725837 8.472894955219674
Cu 6.8661284801371 5.933868627592405 9.69267770402573
Cu 4.888589981623367 4.531859870783027 9.71845563548785
Cu 9.53427950318005 4.259296694241856 6.994184079630764
Cu 6.541400360801256 1.573481263584155 7.613757701581322
Cu 7.138317039932373 3.8422257449547885 7.993653356059596
Cu 8.148084198235647 6.249340034365483 7.565760821658978
Cu 4.507037351182812 6.991473856400665 9.305599521928983
Cu 8.209818333622852 2.4711571274382282 5.967715464867144
Cu 3.247994658748921 5.36132619996078 7.9297634682896785
Cu 7.240383071566685 4.706005990772186 5.737020647672909
Cu 4.685226192732741 3.2955723395028214 7.6252888610332485
Cu 9.786870885356425 6.4239207471908415 5.828394256503091
Cu 5.645591432511525 5.641275499223545 7.613125161797742
Cu 9.309174983845448 4.419283275181547 4.492231983269677
Cu 5.7541331632594375 2.6965693515863736 5.536176402556147
Cu 6.466223509310349 7.972125683381504 8.009830819168364
Cu 4.45476193292001 4.857810187748794 5.596076450110367
Cu 6.286921086928573 6.915980264816157 5.649928323324179
Cu 8.11296298051202 8.344194695729776 6.012819385401291
Cu 4.455876821771174 9.261567501775325 8.422055258315426
Cu 2.2668876883440534 7.81614578042586 7.871743285321962
Cu 4.195144446017981 7.507349863760269 6.702402540172393
Cu 7.257961740209402 3.241004503146812 3.6671090725215616
Cu 8.326697114595063 5.072934048806182 2.3549569450893486
Cu 6.1457992037553355 5.4772854307596335 3.6831314241545154
Cu 2.720039536031067 5.003681825175384 3.7035504253421814
Cu 8.252307039127444 6.819205331387747 3.997656693169395
Cu 4.205949267528091 6.978275643342253 4.279501573081029
Cu 4.663905722864203 3.5733423465205614 3.4159431913732363
Cu 2.157493638850578 8.350411968665377 5.201095356021665
Cu 2.2980637389267287 6.085419746510105 5.836738680094119
Cu 5.762115094631571 9.365278251326325 6.045635210010058
Cu 6.158659334294611 4.308404903932144 1.5785694102940007
Cu 3.37734580709605 9.955481511095623 6.43577131771702
Cu 6.36605507429414 8.438329268903168 3.7804217294221196
Cu 6.624230503283747 6.855940321086 1.8187497133626196
Cu 2.360208276752359 7.413943974463577 2.9200639894662905
Cu 4.256951063723417 5.785661671315505 2.0074448312228395
Cu 4.0756033180582705 9.412577445484782 4.1304599665550015
Cu 4.573926905100825 8.200131296790886 2.0683383240278377
