43
Energy = -127.19166199 eV
Cu 9.69279022535504 7.856914402090183 8.18462322658004
Cu 9.292412416138205 8.303931525949984 5.863440982414457
Cu 10.00190545873021 6.004449717074832 6.51916255407531
Cu 9.089488470625973 5.63243739858422 8.96374283123989
Cu 7.548784342978133 9.206282590878669 7.401003596555582
Cu 7.6473414630093455 7.73400930078443 9.426089135395692
Cu 8.56367237063774 6.4667386465830585 4.424892339246594
Cu 7.702287517496368 6.741293843406698 7.122816675669878
Cu 6.933658449381292 8.25401660568641 5.197264392969904
Cu 8.789204719412062 4.1750514159490075 5.246993512984791
Cu 9.69302760515399 3.82424937965647 7.533905406016869
Cu 6.659456468079764 5.534183339834899 9.113172155869563
Cu 5.595956825773226 7.866684877432926 8.066147451225694
Cu 6.365174682475231 6.98995668807656 3.1614167391988506
Cu 5.243620351493433 9.526817184235052 6.353801786704322
Cu 7.188132352528323 4.607149565924786 3.258943792243781
Cu 6.448897210237351 5.7339863177386245 5.24026528262038
Cu 8.288283011889602 2.0828195165475267 6.756592773456803
Cu 7.0897840121392495 4.1725337798133175 7.022551925943784
Cu 4.769790154400248 7.84022795568717 1.6196013388787374
Cu 5.039479763207114 9.078878876337775 3.8052424320256883
Cu 7.822509818060891 3.343463084634794 9.085035967324425
Cu 5.076095131038487 3.7062367581445073 5.443184526958326
Cu 5.390080746606969 5.297585509391141 1.5374192291933713
Cu 4.373497211010562 5.394936575298297 3.702702023395573
Cu 7.012358954600981 2.5563039405705945 4.736279966060932
Cu 4.523614247837446 7.2704871623066225 5.356406524604349
Cu 5.043445164771827 5.633448747429049 7.205232759912668
Cu 3.0120048223435036 6.227949042493334 1.4783931913854238
Cu 3.04927783718929 9.177227314010796 5.4099016745454565
Cu 5.839068650804816 1.9919737061775482 6.999870298468006
Cu 4.366287265210257 6.292958531789277 9.449323190713525
Cu 2.995147885927577 7.756163776766476 3.3378474178461577
Cu 3.1799656913709557 7.34204412935261 7.406414827618772
Cu 5.283332931084038 3.1209899508027403 3.0335856256744047
Cu 5.0889452742034615 3.6764529645853354 8.661286619835229
Cu 3.2628481127278244 3.9180450479772744 1.9625370688416603
Cu 3.0192971468073884 3.254529027789025 4.301203178202807
Cu 2.985688720534805 5.147613288013467 5.840041573139005
Cu 1.9481148340084307 5.428790142295388 3.5391974334562417
Cu 1.7690172679176623 7.137527583363997 5.324133652821018
Cu 3.4519741283395327 2.85715033844826 6.944471470096841
Cu 2.892970261126811 4.848644884423876 8.241917879294542
