48
Energy = -143.93379564 eV
Cu 6.9445361330579845 4.928868144825786 0.8967522548539317
Cu 5.429223710042449 6.900714563614246 1.3532075014740093
Cu 5.00677383396129 4.561811667769992 2.416959059274082
Cu 7.934141657449184 7.205335201252974 1.1575322193412247
Cu 7.222754234426927 3.57367086349214 3.1093730541802587
Cu 5.288127104516942 2.735115479606272 4.438759546961064
Cu 3.3573816561811998 6.4620702647991655 2.644276581151938
Cu 9.055824009700146 5.201889793594775 2.322087514291022
Cu 6.984071855017739 6.011819356500646 3.0237634880975985
Cu 6.74450253348596 8.796328671720936 2.6895514500181097
Cu 4.262169813249815 8.8657974256672 2.317106882434357
Cu 4.15514370624031 3.82834616210703 6.396333543874943
Cu 7.683243321604988 2.1907482147496022 5.110339915434776
Cu 9.23364352428671 3.376873025483576 6.737920676126528
Cu 3.2218520599169747 4.363545989265818 4.135206701902991
Cu 3.650333507607312 2.370488496357559 8.38452339331047
Cu 8.765857139808134 7.570422906042054 3.4640677533902147
Cu 6.864149994022086 3.917730604754574 6.501610905796735
Cu 5.559696491258394 5.067526494483591 4.751849334876827
Cu 5.218073106157243 7.380675935788848 3.9422313406928304
Cu 3.687318647795506 6.312173009847778 5.705594177704517
Cu 8.617649187850917 4.759202943310656 4.770246240467861
Cu 1.5718390196422856 6.1992093291624775 4.283857370236893
Cu 5.510888415931037 1.8347001141568215 6.861738953348339
Cu 3.14496148901419 4.831612712212938 8.417422698896136
Cu 6.0476138180425245 1.9317296693473047 9.526570944203753
Cu 7.234719033487304 6.658763990993372 5.366764278008491
Cu 5.487320406462171 3.93957268525822 8.538337880619697
Cu 9.436305218121277 7.398894274366215 5.791282181392772
Cu 7.73776228036149 1.7213037712992934 7.680865472544571
Cu 2.9400949024836187 8.337948015453351 4.346278589423452
Cu 8.465750085991303 5.666851830740777 7.25689457056939
Cu 1.7127043894368315 7.461311255121562 6.385673271575563
Cu 1.879356166756581 4.827553444654176 6.285474324043695
Cu 5.385577315330831 8.064416232506025 6.26625583186877
Cu 4.1033100002794916 3.6431931228879084 10.442035423361178
Cu 7.472250083249395 9.078052215073166 5.090778931485103
Cu 5.08865117386921 9.778908892798597 4.528866789637732
Cu 5.676067911479019 5.9457728299343575 7.288760470285108
Cu 7.944689114205459 3.8154873453172313 8.887333393958498
Cu 7.686270512516612 8.052524207716361 7.425224946571372
Cu 6.440258609007535 4.31635268312129 10.743747214606175
Cu 3.578097593576766 7.230571798632443 7.994814798748927
Cu 6.188823392743442 10.087590763312706 7.048206976333791
Cu 3.443683715291092 9.300704500696952 6.549692297794997
Cu 7.187948582583104 6.182011217016071 9.285186123802042
Cu 4.810553455893469 6.019243642904256 9.826384958348383
Cu 5.6919115878066515 8.159187025105659 8.748332760184002
