44
Energy = -130.79825752 eV
Cu 4.120117860990564 3.526070451842779 0.4810298639449851
Cu 4.128380474563019 1.2211678411851237 1.7657967702962252
Cu 6.334798261625211 0.0652326192523333 2.0864918071345993
Cu 6.3084191520863016 2.5378903380132676 1.3170116493627748
Cu 2.1524195832484208 4.759646675365358 8.355585799114166
Cu 4.553936329202272 5.990592451674674 0.17036947242490988
Cu 1.9530486155704294 3.156681466028019 1.8128723928763393
Cu 5.747959999895498 4.910181883954278 1.9536585616616633
Cu 7.754842377394734 3.974447480049793 3.0842753093183077
Cu 4.247780269260648 3.2986306951428834 2.85745413911465
Cu 6.908499787686323 6.8367520981635765 1.3464672907231094
Cu 2.9874494797894933 5.441194572593355 1.9114612067614536
Cu 8.265504241716023 1.5616548654401043 2.74060342809289
Cu 6.084598558283276 1.8785056321907003 3.594313200495616
Cu 2.368039776790432 7.502820816899754 3.223526410930732
Cu 2.4441072496903726 1.4695601260848241 3.7125855647789803
Cu 5.87700682323073 4.093607658132478 4.553351595143036
Cu 0.7587547936405488 5.351716348858045 3.011334641256612
Cu 4.742086930832984 7.31867777294409 2.3140480749877512
Cu 0.3217823534467553 2.8891891883661796 3.8116813896454858
Cu 4.193853378765359 5.6653906237181175 3.951601815747088
Cu 2.3632238993646797 3.993570240254671 4.136748550086327
Cu 6.614928350732641 6.371647776248038 3.8020552316951757
Cu 0.11489084211369913 7.190799392373291 4.546550884331612
Cu 2.0147304955655745 8.507016041808207 5.576377353095658
Cu 4.177559006450689 2.391635964047032 5.121997539961847
Cu 4.313879463497261 7.824312597631687 4.874120887354111
Cu 0.26898409354269703 4.731614624311222 5.510497403229709
Cu 7.24706083016397 8.507016041808207 4.429415030884911
Cu 2.149590248316885 6.169429893385333 5.181605385371041
Cu 7.840859225860504 4.894650139952482 5.54286388910055
Cu 4.61303618007583 0.06182147961177219 4.0435887044394425
Cu 1.7361575677321373 2.6213472142150582 5.999555315501922
Cu 3.8061602411619453 4.546643308709415 6.079012169941829
Cu 3.2448697877595665 0.5047866237330789 6.109595297821834
Cu 7.769667490213671 2.415116534195678 5.198356573341977
Cu 6.0515512277754935 3.5103790455141746 6.8685698620828655
Cu 0.7382328172238575 6.842701392568594 6.958161897023321
Cu 5.80861499206983 1.0550624048038344 6.166851465915469
Cu 5.668746111134872 6.077158700402417 6.181569978125964
Cu 3.3569905878364374 6.8862347237201975 7.1056247155084495
Cu 3.766791231747747 2.5804429486711835 7.532674877102334
Cu 1.923970153756019 4.704355149777157 7.480004779316668
Cu 4.428521071805048 4.951403898549159 8.287439567147185
