44
Energy = -130.48929599 eV
Cu 8.169808938432446 4.340737943797821 0.5200052239378236
Cu 2.732975442602475 5.586837699845862 1.3280714391699984
Cu 3.228047103940084 3.483615474360143 0.03711148127984276
Cu 5.660994187296822 4.279124470118186 0.22407975902625865
Cu 6.814857978930468 5.596313383941329 2.002178361039203
Cu 1.3979884511534428 3.444991164525503 1.7780567223258026
Cu 0.5727524300519586 5.842273334489221 2.607628275256928
Cu 4.870453304708108 6.567746021912334 0.9561701599026498
Cu 2.867938244017263 1.416042911017167 1.647896030828648
Cu 6.918381229588863 2.775524938084002 1.8213393992126135
Cu 5.014375268642374 1.8985512783454304 0.6294873351280231
Cu 2.7909208475783043 7.222809480208782 3.7106839107546548
Cu 2.434361781624816 4.782251384649717 3.5452632975434177
Cu 3.2134059458209094 0.1279537791639253 4.034355786824099
Cu 5.056462666215828 1.5597726804676575 3.171561391590628
Cu 4.242206669828889 3.6332655302529973 2.1834705815399813
Cu 2.463402460238225 2.3335949251020875 3.7838778462108755
Cu 8.558470372950193 4.215901230438099 3.0838145965657255
Cu 6.334184039407693 3.8993152566093334 3.8174120701550036
Cu 5.786098347882584 7.786125506503159 2.918377488819541
Cu 0.6290240632350433 1.2440628931023554 2.954606808533133
Cu 4.742772457301974 5.745184555609173 3.406812448570469
Cu 0.23628090522438397 3.6650573792056544 4.030960895278412
Cu 7.176466460983779 6.220597327990707 4.35468576956852
Cu 4.215156568631822 3.550379575500095 4.7095509927146475
Cu 0.9472580662145504 5.936199617338354 5.173839536103736
Cu 7.290471701715461 1.796442194026432 4.299253903225816
Cu 7.888535905188843 4.166940310151526 5.686205508358246
Cu 5.1016714998218 7.444416822225623 5.3475953054769505
Cu 5.396784315225345 0.36089984459639735 5.258009999977088
Cu 0.8277373852408418 1.687841727617616 5.540042131761526
Cu 3.393273331109617 5.724228943043837 5.569378736761511
Cu 2.0442837118575707 3.7228731641093105 5.758953332451559
Cu 5.656801402233107 5.028325404085382 5.878630341769685
Cu 3.4237240784024783 1.6199061239420678 6.102190592405164
Cu 5.912259686156669 2.5474449278427977 6.235097429503029
Cu 8.558470372950193 3.977025461280007 6.534604111242194
Cu 2.6199723849983108 7.742497564150419 6.323891771905416
Cu 7.133614750175031 6.516058003762517 6.8384374161910175
Cu 3.988851589025913 3.819883230181721 7.349306681189968
Cu 1.9671722112156849 5.384572495533104 7.527527415819252
Cu 4.527770909012982 6.295453336148269 7.6316865098007804
Cu 6.362144301615814 4.36115925707637 8.00276508666086
Cu 1.6822894526412515 2.8045204193732407 7.839845089343936
