43
Energy = -127.86354941 eV
Cu 7.403642486623923 1.9324798219314445 2.647195039081424
Cu 6.661074396843693 7.953356114244994 5.358092071620085
Cu 2.7413068639407965 5.777414964407898 3.0512892765344883
Cu 1.9132792789484194 2.9220628634588866 8.094688785660102
Cu 7.283850084218675 4.050224370324385 6.520316100142024
Cu 0.28222625731636597 3.4122676826016374 3.7953853176290098
Cu 3.668328916225732 1.6073384026505337 0.9907134239207955
Cu 0.24396597339217843 3.2145008904520203 6.245635931759504
Cu 7.283030887062429 4.128112119695586 3.8317410982173077
Cu 7.795768874152166 2.14479556279829 5.103577361004929
Cu 3.783175938409074 1.2854861940078237 5.904776232945288
Cu 8.306075023285084 6.024889598795493 5.295844996193842
Cu 6.0269226715360595 2.225407136733159 0.49198025374174165
Cu 6.812831559101346 6.508578764172941 3.132863330109177
Cu 1.1743698139301024 4.386799258298565 1.7613004277627535
Cu 1.1884290652368528 5.212299027329833 5.067069959005081
Cu 0.5928480790218461 6.587826624970027 2.950222747130668
Cu 6.832176491561463 6.372251249312785 7.401002970386438
Cu 3.627356694968986 5.337803881596441 5.260192656224466
Cu 2.332558086109438 7.406482247229662 4.980074862467989
Cu 4.955816924856311 4.910225342987538 3.2765581754971547
Cu 5.996554515542157 5.69087676533663 5.32083007723901
Cu 3.5193088077784394 0.9263898420880741 3.4720673644071134
Cu 4.634072360563837 6.583946324152937 1.5916863283797595
Cu 2.618719260457342 3.5232888023098345 6.456582586332395
Cu 4.614174180981527 7.412147863876296 3.9937269726564923
Cu 1.7503772877121975 1.469936244231499 7.305313510178694
Cu 5.536580508656205 0.3432937433678589 2.061463413081157
Cu 1.6238178015850513 2.0100468505650637 2.2517847851302992
Cu 2.437391906518175 5.928466500883048 7.184770126869758
Cu 3.6745426149659557 4.164541306463759 1.2199317135542178
Cu 3.955049176677745 2.4240011736037115 8.094688785660102
Cu 5.11980032219431 2.6248242966889457 2.681309898366507
Cu 2.6750091001439733 8.096170164197005 2.5559293131122294
Cu 4.516356310052471 7.215435353386856 6.564434874213847
Cu 4.856028016139721 4.641773918361974 7.315965157726826
Cu 6.039970698613021 1.907442802911657 6.848220768526965
Cu 5.1171115504084845 3.2913329384461947 5.155421294407268
Cu 5.806955320747606 0.9537122525794399 4.4551358878581775
Cu 6.369194778512758 4.482196500179555 1.4521932607700314
Cu 2.9380833549403267 3.400795917416999 3.7931908713448195
Cu 2.207428270983533 6.363813051388163 0.8077871325325409
Cu 1.5622468057521663 1.62277258623268 4.847591260363852
