48
Energy = -143.18832926 eV
Cu 10.897938414831893 5.137176070866432 3.433598290845689
Cu 8.79587557697321 6.430625512884315 3.708593682495144
Cu 9.925127856440511 5.209469203847686 5.610271430936554
Cu 8.802437925471775 3.9800662601886736 3.396867300106525
Cu 7.037197694898021 8.246055389187918 3.617108371910414
Cu 10.642632072322483 3.027180524609732 4.69777949485469
Cu 8.542935563152998 7.331182479410856 5.90662343989549
Cu 6.714455688186934 5.374450861603703 3.1616043146599764
Cu 5.944069642420848 10.642506527523311 4.343655709417221
Cu 7.517398938659209 4.604263283545762 5.470683133583133
Cu 9.113463134349958 3.100826899183357 6.632360350289246
Cu 8.537737223118185 1.805254818781875 4.518400210587831
Cu 4.855563245909973 6.888879838006485 2.869407348455871
Cu 6.831692436394326 9.112462215629021 6.089582397139745
Cu 4.850238653995139 9.348147523351823 2.4885042008885923
Cu 6.532478937546171 2.988418426827873 3.6252716852950475
Cu 6.270448920517408 6.677230509697176 5.271419822164524
Cu 6.74335205558384 2.3224500092796507 6.11382249861064
Cu 8.442014239684088 5.468417381850895 7.577407737973014
Cu 3.441967429937734 10.505737616407886 4.247239319526917
Cu 4.546066988042568 10.299583411587575 6.457963981711454
Cu 4.484113585542021 4.36850412517967 2.998481827237651
Cu 5.87195044563295 9.570772556319426 8.360370018836417
Cu 4.827482377259953 8.590268011061982 4.715348940258612
Cu 7.1455020309366954 7.49673429112753 7.9436048378011455
Cu 3.8142753337991593 6.3615940265468724 5.174670953484964
Cu 2.5620632994666632 5.892667189834236 2.957336078705367
Cu 4.805547324193876 7.7485286199588135 7.023932942916931
Cu 5.088876347926085 4.181985853972403 5.33731846727993
Cu 2.7323946051235772 8.213584859293485 3.5237332556195327
Cu 4.283370429993655 2.156217789057842 4.277897918554972
Cu 3.345883618199468 9.11121769597383 8.370590953221015
Cu 2.6070268967960044 8.785725263444604 5.923447180346989
Cu 6.74135783685216 5.603117542926173 9.488033359845955
Cu 6.320419841667026 0.6667573375185674 4.4420582501164585
Cu 5.811851183983079 5.352318763755006 7.304470632120546
Cu 5.178848064100499 7.506484775581581 9.4855907229278
Cu 4.803070950472966 0.8788991380337349 6.388037650494425
Cu 3.2304313137390976 4.740582024161146 6.981677348009369
Cu 7.242460154092429 3.486610398296929 8.2299588945275
Cu 6.4454537022821015 1.1818552767992472 8.184120077633601
Cu 2.6342142738499468 4.15027096776669 4.633272201579372
Cu 1.504656717716599 6.585901628394357 5.142719359603829
Cu 2.9497990292205274 2.4079533594440172 6.301050144283777
Cu 2.4053913556720397 6.942881992722533 7.462952147100787
Cu 4.222358314987383 5.2409917261903125 9.146673533418884
Cu 2.834520296981187 7.157418577225259 9.795615495873953
Cu 4.845260720545508 3.048273817113115 7.764300449477507
