42
Energy = -123.61888724 eV
Cu 3.65075118116479 5.507039504004573 0.3863106720319541
Cu 4.352930989411317 3.46644748083586 1.7850613989612143
Cu 4.43082883618542 7.749266882475876 0.9828254553506804
Cu 5.51313520636253 5.779477220981592 1.8701889153559483
Cu 2.041426422133391 4.378196512943542 1.7494944923867706
Cu 7.770090629415602 5.955844620941279 3.0229951332183207
Cu 2.3684524500184136 2.7809573360131217 3.46174568753039
Cu 2.7550496418924353 6.599408405998378 2.4368561754965965
Cu 6.421781949967504 8.044913192419939 2.4631190207136084
Cu 3.917824642211227 4.771292304134685 3.6909842272133786
Cu 4.620239505612635 2.4033405078203036 4.153918567185596
Cu 8.38926167390964 4.105994034112901 4.6961175348364295
Cu 4.118734808647203 8.338511695253807 3.339694845363844
Cu 6.273682150777149 4.073200745293234 3.4705586822898877
Cu 9.685995588093537 6.075514114279783 4.4705817223158055
Cu 1.593650356475719 5.071441915776177 4.1176048663631475
Cu 8.094018611491625 8.001706919689612 4.341717951519837
Cu 5.928998074149508 8.978268508743872 4.780255538245126
Cu 2.966703986887834 3.64019540597817 5.693727599102256
Cu 5.664274488854914 6.556629825252593 4.234033738407166
Cu 6.888656076188882 2.221160235341068 4.9289221679559665
Cu 3.2813925023377175 6.682012554606714 5.033506542948225
Cu 5.2570691496850515 4.809987987768603 5.943143545939542
Cu 9.564694384937459 7.595024151230164 6.283865349447445
Cu 7.28735964336123 3.654925980927099 6.851921171503337
Cu 7.353931532517964 8.611303497414276 6.674500449033115
Cu 7.4163570647380945 6.132969988120942 5.955146062237122
Cu 9.38805420416207 5.057710587657196 6.843494737873197
Cu 5.155113969309703 7.404432811501646 6.563906305431317
Cu 5.059770058539882 2.370397878521788 6.549782576441557
Cu 3.3776051482563876 3.2688367590623915 8.043735412199768
Cu 3.3207735604024413 5.579028725463592 7.235225044706632
Cu 5.968042788089315 5.7811152042324485 8.293670865541367
Cu 8.34028456071887 6.890211367762574 8.18514411881193
Cu 5.72022869614551 3.344316798141861 8.700566196732135
Cu 8.02114737073774 4.576451002452196 8.973982087416216
Cu 6.271524557244725 8.169304635632916 8.830595111048485
Cu 3.937815770183264 7.379875468937559 8.689314586394172
Cu 3.971091669401815 5.034682297285375 9.58706072267966
Cu 7.541106946292886 6.63217950316416 10.381804953854765
Cu 6.17762005488877 4.65964185385874 10.653863202517444
Cu 5.170749922226848 6.8950044019972925 10.67727738942781
