40
Energy = -117.39424345 eV
Cu 5.339487909038737 10.509752919674167 4.571236638675834
Cu 3.1057919642343763 9.420854162720634 4.729870653606023
Cu 4.364140752753852 9.964509330074051 6.720658653561749
Cu 4.558574101961797 9.00260298585197 2.843957195906088
Cu 1.225529074299637 7.871371486793468 5.018507777901287
Cu 3.2409260314391375 7.082189062761922 3.904825065834213
Cu 6.938610888733694 8.809372606693271 3.6838623764629013
Cu 3.114419570011302 7.738959508728592 6.552434453715056
Cu 6.807908197435726 9.45385089818148 6.294483345600882
Cu 5.244068646959352 7.978155704471926 5.194643622287775
Cu 5.319290230486709 8.077521620419859 7.779220165412129
Cu 2.0166023327640024 5.616400458014628 5.6391402852739025
Cu 5.564000987203886 6.865858507879123 2.8810408916757897
Cu 4.356182958347011 5.7396979887719395 5.686911962150586
Cu 6.421666418588148 5.908616926200316 7.048430474698958
Cu 7.961600766736969 6.663317492281366 3.0138999867310865
Cu 7.708224351911048 7.882580605295777 7.9752761035976105
Cu 4.245865020871153 4.915565413335601 3.177951165164249
Cu 3.999065902831777 6.166929815859218 8.267914732383163
Cu 7.836076042704063 7.344994927892606 5.475706068766585
Cu 6.547705185738159 5.313013896087013 4.622256339066295
Cu 6.591540948519411 4.675561602180133 2.2179044395969947
Cu 9.073560475531833 6.002481524587615 7.191734184949216
Cu 6.223835912273003 6.457900784231702 9.467893636065666
Cu 3.3457141303863156 3.518561352243274 4.928110996656141
Cu 9.059622917265791 4.678697937407884 2.2175711386249266
Cu 9.19764605935251 5.389623947533386 4.706177539810066
Cu 8.675151067572378 6.531344418106458 9.707547782006309
Cu 5.511858052630623 3.6489804762266136 6.2664819343286
Cu 3.232461963506798 4.090660313852721 7.308160696489862
Cu 5.5587103691513375 2.986421506682648 3.7843708321352505
Cu 7.992184350685742 3.9818713129165073 6.313852779833631
Cu 7.987082918537339 3.378758681480806 3.8855940318785307
Cu 7.748293392698633 4.5753656413600945 8.732130167450046
Cu 5.31358507956891 4.210201883609704 8.773076271892277
Cu 4.577106403412368 1.4831602514573827 5.474372328492761
Cu 7.0311905849877006 1.817243433964816 5.495088595556403
Cu 6.91222667005397 2.4232714493010077 7.938354320264053
Cu 4.465247150051125 2.0720272017682477 7.884986708025368
Cu 5.989786217784688 0.2923961377713606 7.115144267221108
