43
Energy = -125.69921252 eV
Cu 6.520743068079568 6.570308981554976 10.962957916400502
Cu 4.530901165868719 8.10636734169115 10.328414010159932
Cu 6.650518180012192 7.947679127082642 9.023106498334077
Cu 4.497937333166439 8.450203867561411 7.906751443653436
Cu 5.020392517894236 6.116656256674221 9.162908079057742
Cu 2.724035683987761 7.104840410008491 8.881695276812383
Cu 7.35311268700932 5.329716745497067 8.935310039425477
Cu 6.432927733998231 7.831583944022845 6.612888897954999
Cu 8.514470416323876 7.166172622855515 7.695110714878172
Cu 0.8374347635595591 5.6549460522237025 8.912082984099714
Cu 2.3903630691973308 7.912100915317398 6.575050334702028
Cu 9.153222402961058 4.894571902114661 7.200817292304639
Cu 4.437480816593149 8.368941057798617 5.392530190863897
Cu 3.0615212442271726 4.677417098136806 8.781437715634388
Cu 5.3464277271980984 3.9705271063998477 8.150232258736539
Cu 6.599220811443962 8.681968107489553 4.307956003765774
Cu 2.449586018016779 8.715357834197645 4.110327759436911
Cu 6.766431396659172 5.316942529107785 6.55951167736596
Cu 8.182410419435378 6.881290880030659 5.23111419010064
Cu 1.9075570176471743 5.488859848395472 6.7817417986316215
Cu 10.39517846439436 6.770119767796822 6.18454382701024
Cu 4.3773414927476155 6.0801893252303465 6.7596357265026255
Cu 7.463084718994042 3.1201219468151926 7.241472049228466
Cu 3.418857275819237 3.541767717509801 6.680903289612657
Cu 5.2369603101651805 1.9824877031385146 6.796720074132176
Cu 4.571294258721075 9.748676273437784 3.3739560089628977
Cu 10.823674558109728 4.505174659423837 5.453203829472939
Cu 5.817892946113553 6.2319169344998055 4.528438105373471
Cu 2.9327273503892584 6.386991157203404 4.728414469711318
Cu 9.984498488512852 6.103272127632356 3.816805248918756
Cu 8.40655670788648 4.136437692356397 4.940447396308636
Cu 6.79253440450061 2.2677157017229588 5.038049971344221
Cu 7.98373498626409 7.248694713318209 2.862221430375865
Cu 4.191267032082443 7.396745270300008 2.920605018680503
Cu 6.106758138597768 8.499387644419688 1.919689260876136
Cu 4.432648024043436 2.846820552906528 4.607355195966034
Cu 2.3090445515615388 4.074717639551594 4.648531214532151
Cu 8.232564516987066 2.499379083867502 3.0833992237965417
Cu 10.28088758050036 3.738686858169548 3.228323270145576
Cu 6.044113213662601 5.999292624171731 2.06404368382884
Cu 4.072164696440655 4.892161071471007 3.1912440055513662
Cu 8.285730138577152 4.880316700522105 2.4701228079376327
Cu 6.269228939991209 3.951171326062463 3.4174160011175623
