49
Energy = -145.66288313 eV
Cu 10.969233679907127 9.267742187807483 5.1582223359676815
Cu 9.445855898211159 5.137335299582768 5.918490234473651
Cu 7.01678226288119 8.171952021719388 5.0482994943388935
Cu 9.307090118397431 7.377158305701141 4.6787142304677625
Cu 4.559458699846245 8.319411686102997 5.700261783878692
Cu 10.885610327251662 7.11223375126537 6.5239557596234095
Cu 4.8439031535233505 5.809820085012907 5.984153550332163
Cu 8.941067896300913 9.398134517554166 6.425718476351723
Cu 11.844768484018632 11.292159223872659 6.331108985792669
Cu 7.182097048449169 5.736920609817787 5.303750346359214
Cu 9.656044736626828 11.473428684791799 5.4230545849555805
Cu 6.349285228211213 10.01256943795818 6.439672045257638
Cu 6.196565970133161 3.7338618672844155 6.505107516215269
Cu 11.950436081714171 7.059816694948843 8.864568494631484
Cu 8.438933215074778 7.1155113448221465 6.9217432053627315
Cu 6.103988117931724 7.496230498406985 7.269209868741354
Cu 3.668493114323553 7.077652233155829 7.770733278768163
Cu 4.778377598855269 4.9208127310981435 8.268281905615131
Cu 10.23172052374145 12.585890277445436 7.598781233482388
Cu 8.052060649776195 11.530367565084031 7.262183592604173
Cu 11.731359652384082 9.175985853690838 7.528449754379722
Cu 13.837572468425229 10.353720190261575 7.239980888674611
Cu 9.732971033451294 10.544360896657352 8.882790986554442
Cu 4.5979230931284265 9.385603309778181 8.014063803034377
Cu 3.6554243072276886 5.967740536728082 10.109941809962505
Cu 7.164865102149295 5.3458135350255445 7.910127624901679
Cu 6.516454149979781 3.288839229654375 8.989660714125337
Cu 13.494571508953623 8.997589564503011 9.206192465197761
Cu 6.111712847599391 11.292366880551908 8.701300671650854
Cu 3.727890271395445 11.312638295537445 9.170319163705981
Cu 5.30878955223475 7.522162971680768 9.551473620258491
Cu 8.567762118168263 3.4894024288553154 7.5890926429496925
Cu 9.959807274507416 5.543119796053723 8.274755222284254
Cu 8.334923056799141 12.435895926509064 9.520857233483447
Cu 10.702896566186919 12.711034394239835 9.9613761459706
Cu 7.4579987716618 9.21365989145733 8.529121235727446
Cu 5.13727436543784 9.801351816568472 10.379268247716313
Cu 9.783433808574216 8.131650654154344 8.629881386755214
Cu 6.09992655170166 5.350998182386002 10.395095571361257
Cu 12.19790300740465 11.179822898674441 8.863365021106656
Cu 8.460873236788053 4.573614608449769 9.9740702309355
Cu 11.313575414253307 9.162148380948032 10.240158423940647
Cu 7.462791268973742 10.472317008741916 10.709338021286209
Cu 9.034641176909561 8.600234542368431 11.047773024222904
Cu 10.163410652342817 6.476009562002149 10.505120650640785
Cu 9.789098405377874 10.938247655774687 11.281349033324513
Cu 7.812014175009172 6.990108398944219 9.520336518480542
Cu 6.672191499326861 8.208385468813646 11.412668694954508
Cu 8.075768095249932 6.233764334335768 11.79365650597143
