47
Energy = -139.88872675 eV
Cu 6.66121679167359 7.054627232118695 6.323740530069114
Cu 2.6049177963579844 2.6980426849905723 6.87305965616929
Cu 4.45126236646321 1.1103562768288824 7.376335084884995
Cu 7.603908114373562 3.287453667028071 4.331650228482106
Cu 5.809982150265495 5.237935961986125 5.1916312099221615
Cu 8.150564232459413 5.7484100039314034 4.586456016569956
Cu 3.970502381129238 7.948869259791981 2.3022575992236054
Cu 1.9978321772919565 6.468325848941819 3.388818545414365
Cu 4.851985869231387 3.405914258428949 6.472113436394058
Cu 2.877838073996734 5.191695071009013 7.58666482591931
Cu 3.8525486653655965 1.8445818765372182 2.2394970526557274
Cu 2.348084592916145 1.178737730215241 8.683344545695322
Cu 4.089160903318354 6.771688071301168 5.864055855171533
Cu 1.469919218804796 3.5245174646533006 8.829766956809474
Cu 4.779166200008653 4.092272727731746 1.6523858843737542
Cu 0.42035296475568684 1.8509871025279554 7.246136531218895
Cu 8.722024352205715 4.169913055292139 2.2837043052186705
Cu 6.612269316848357 4.981045612991852 2.8897827502773508
Cu 3.081921106693484 5.9162804634235915 1.2858913336398718
Cu 5.364041984692865 5.382462795869273 7.716881287765617
Cu 2.158733448049333 0.38174457834137177 6.226599088036713
Cu 8.048311315017129 6.57696125571629 1.9760810290048263
Cu 5.204585851510721 2.615169768895933 9.600829516863232
Cu 4.310660299079391 5.8196606645484765 3.4250698970880795
Cu 4.631993492235494 5.03048025313404 9.103223324389875
Cu 1.2543744873235794 2.301126885191519 2.236016754984486
Cu 1.5692650384811972 6.3655164283974335 5.773543062493615
Cu 6.654705344736713 2.5823796088843225 2.0749891549670023
Cu 6.93438550507554 4.54105023365062 0.47529059905135257
Cu 0.7392259324336331 4.206369947818674 6.497909482269098
Cu 6.3572624637074915 1.7478777323955683 5.772904254657738
Cu 7.357445098837346 4.179101378040642 6.613876411193068
Cu 3.8720066808284805 1.5169691993563734 4.946450792063444
Cu 3.9829705244208182 3.307553824012012 8.827992320094525
Cu 5.665522571741024 6.578825654483636 1.2528139918636254
Cu 6.235540695891088 7.292966125488898 3.7541176182712803
Cu 6.263194989558725 2.6288062364237055 8.215987094697924
Cu 3.0571006611423406 4.526740934913565 5.218971259275706
Cu 1.3583717810921636 2.381941516390843 4.77509958580621
Cu 0.9386471228732282 4.786219942189156 1.5110628595642432
Cu 5.10220969845628 3.2561460353357994 3.945408907147963
Cu 3.9523635259527925 7.404906138343343 9.371981368038353
Cu 2.1917622824898 0.46115972216792184 3.6115411254880887
Cu 2.764296323216609 3.42444938722401 0.45053130820350046
Cu 0.6197434126997723 4.597262234722958 4.033892270889174
Cu 2.72556258545235 3.959961900336039 2.931299338488331
Cu 2.2073132505542112 5.54158888970577 8.829766956809474
