44
Energy = -130.33111119 eV
Cu 2.1943021091107613 5.216867301855588 1.5643799416370558
Cu 2.5175162534124675 6.057033789265052 5.703723619437198
Cu 4.128562801176787 3.9668280196691375 2.3622745646888728
Cu 2.2541853566699417 4.410705645464648 3.917629643530081
Cu 2.5385597961227555 7.586148119328589 7.520448930394744
Cu 4.150657671821002 4.884848751074414 0.13002431905060424
Cu 2.313716959622182 6.8370211409722925 3.3731773737758806
Cu 3.804578847986394 5.340612386758948 7.805798720190356
Cu 4.212734995754267 3.218403476403619 4.812871951707342
Cu 4.576573646508905 5.636861304958535 4.1560999620187955
Cu 2.381077270700214 8.45704783108472 5.280036202382465
Cu 2.404748499286243 3.777535951396117 6.332198799672672
Cu 6.26967438093498 3.81192236034743 3.6430640532880774
Cu 4.517016150937352 8.102478954041292 8.62949578511835
Cu 4.7743233217987155 6.056118662305646 10.03296442198972
Cu 6.121926557410088 5.168315022714085 1.5410266713522514
Cu 4.16116835294984 6.649764058756267 1.8065596559388533
Cu 4.404221575768859 2.8345613895957644 7.264412481281906
Cu 4.769404623326785 7.072196745516576 6.180936755979797
Cu 4.399878539534517 9.36638672233059 6.4010352955650305
Cu 5.810552137009315 4.671266295255916 6.293009757623748
Cu 5.723773465451741 4.044499375157385 8.90742965297305
Cu 4.362482221914492 8.118985239986445 3.9320364569234063
Cu 6.34411286030626 7.310199243098975 2.7544051902232543
Cu 6.181056462837873 6.333890207498609 8.083057546927538
Cu 6.385139125450386 2.3532957156131444 5.805210543421113
Cu 6.316150698211688 1.7391624784220072 8.35181113081679
Cu 6.506309246082864 7.8885775300483605 9.975805692382204
Cu 6.898832024906715 6.38940511182745 4.938334249228089
Cu 6.5944487167681025 8.707991446685869 7.483187804232989
Cu 7.832610508319364 3.355135970966729 7.503514835904149
Cu 7.276664061574936 5.574188545064728 10.160757877820133
Cu 6.453763800452002 8.795923881535789 5.016062194488347
Cu 8.051003888684699 5.4443228003827135 2.988959318342954
Cu 8.180868410441908 5.636108755289703 6.874951543943339
Cu 8.494324556788985 7.9207560700605395 3.7359245422043266
Cu 8.122279571446052 4.001403126633769 5.103567144709834
Cu 7.781869782430001 3.1948132454572566 9.905309813275467
Cu 8.46646142942661 7.32550519085313 8.622122590691022
Cu 9.26421802106387 4.98305794388705 8.905623932923659
Cu 10.67069753952231 8.071917322735146 5.0000611987911325
Cu 8.549187149031232 8.045026221637652 6.179484908639582
Cu 10.351274019375492 6.635054394400675 7.156861759552112
Cu 9.50100603437927 6.021769696369525 4.8782646076691325
