47
Energy = -139.99211142 eV
Cu 1.6847974330269957 7.23040150703282 4.6394647978869035
Cu 5.236604999890782 10.243851042800092 6.4568913808467885
Cu 2.0017440433189213 7.64926605729291 7.196654451709451
Cu 5.984467411925251 6.596563202203816 8.812483485491661
Cu 3.1415624362699806 8.587769453902741 3.1782460054564674
Cu 3.2293800711110845 9.030755877678908 5.574381003815789
Cu 4.484374886287721 8.178151947497966 7.519006809802696
Cu 4.650570611415066 10.303082641815918 4.08779573561309
Cu 3.8756886529240706 10.360270569412616 1.797470797351457
Cu 6.8876279601147585 8.617277850426497 7.335938509754937
Cu 2.205020511529639 4.697489186020053 4.520484254096253
Cu 7.543324591023948 4.910208230101559 9.92574354369801
Cu 6.679334025482282 9.141994374905101 4.854616261820655
Cu 1.8797575403131888 5.164180779362354 6.89924371900416
Cu 5.266304746318838 4.223031525608052 9.304008845252316
Cu 6.0577207430251665 6.502809771926185 6.367200266695908
Cu 3.332671243529514 6.198829291063395 2.9787983030528875
Cu 8.322264791088122 6.583461167517063 7.995741788442863
Cu 3.557505006461989 6.107155791243551 8.470417067900051
Cu 2.9904149639241906 3.678536245809349 8.53958390353801
Cu 3.6040455467769856 6.536402508214402 5.804449496923533
Cu 5.2281415502886395 7.316802255456392 4.203965209551182
Cu 5.6277913331533815 8.808530003453443 2.3899332917791316
Cu 3.058650290096874 2.5225446960325573 3.8368241202229996
Cu 4.617909023987323 4.569001345015794 6.902200122521182
Cu 7.018527937667411 4.603411435899297 7.610366405494047
Cu 4.16268150754329 3.9338759066794236 2.2113583101274976
Cu 2.9176747731395207 2.9686520261402727 6.197031636024984
Cu 5.736600169732489 5.907832983382231 2.2922680781722033
Cu 8.255209861711588 7.400614975421356 5.621954940088741
Cu 7.559475479231973 7.5112652854027235 3.149657760587449
Cu 7.128065310201444 5.468825528541264 4.421687877988777
Cu 4.715506711730757 4.731873425365584 4.43915525472762
Cu 6.447337779910061 3.411219493855297 5.622092207802995
Cu 4.964225396029531 2.321179180361052 7.691295846057181
Cu 8.95609901155612 5.045497074475791 6.118320973398396
Cu 9.24752941818799 4.078888190488255 8.377100727220283
Cu 7.262087890737066 2.5180443460154955 8.725060940708419
Cu 4.816524282726551 1.623285986467119 5.278637022616574
Cu 5.081386791930846 1.61196655058191 2.855179281550265
Cu 8.584582230627847 2.6255235883139947 6.480993187475468
Cu 6.486388989004204 3.547134867166413 2.9444621210731543
Cu 8.097270012013283 5.230274850086758 2.152522422740032
Cu 9.476159583517802 6.052587018377646 3.9546185274128134
Cu 8.685753290304445 3.5856861363975927 4.109176572095546
Cu 7.162558144694542 1.555977844169024 4.318297518774829
Cu 6.773668812561129 1.0514797000454608 6.710220894061035
