41
Energy = -120.02043733 eV
Cu 6.808793416788106 8.639937271220097 4.550628698343351
Cu 6.724596414058029 10.991862930004173 5.5791011241647555
Cu 8.941563406677181 9.657349997742864 5.406775939445169
Cu 7.201373604837266 6.021632609938775 4.4130456871651385
Cu 5.615501179577269 6.993587728138592 6.073609817557032
Cu 4.751400551637017 9.299281478180452 5.80500402900558
Cu 9.152093533207953 7.5310923610717 3.993491648313074
Cu 9.101422364248458 5.136107153854857 3.2549321396929947
Cu 9.67472568277864 5.597218648439403 5.540613831920978
Cu 7.403111726602579 5.2641886138119585 6.843989111218208
Cu 8.152981359293106 7.50473317185317 6.193891179448732
Cu 8.123449402754641 3.752657904966065 5.0877946336441315
Cu 6.596885035850776 12.760815968446305 7.3082778927854015
Cu 6.7663768911719835 9.160898296739571 7.103818947297404
Cu 11.537999565073052 5.788872068674895 7.213046767626226
Cu 10.590926827699272 7.874312831203266 6.068006381872158
Cu 10.748741569378359 10.111763364531077 7.048903681527746
Cu 5.641488787672908 4.451503931113113 5.515665894909747
Cu 5.120193913465749 5.318243601215963 7.769831602449018
Cu 9.400692104138617 4.009865656250621 7.444907445657835
Cu 8.694821720139526 11.445085279754558 6.997381709047441
Cu 6.904630175923167 3.7371222769721815 8.62266955410461
Cu 9.399511197259805 6.482116403163881 7.907049585728558
Cu 4.6633899169273425 8.235667715987795 8.127217136358984
Cu 8.91459387898869 9.13751107319265 8.26849051072111
Cu 9.086723868853877 3.041988383417035 9.598926850587693
Cu 11.228908229348855 8.015662037683608 8.424896928287584
Cu 3.5096595476702417 6.333681041982894 9.204100454618544
Cu 7.037702889318508 7.053906361020598 8.48814357453378
Cu 5.162108337855236 10.846815637899276 7.695244264726798
Cu 6.527154148805639 9.171764261091381 9.599063075676924
Cu 7.448627352930669 11.257144730855444 9.037693853930588
Cu 4.8333707805821735 7.780113344171 10.560527990829051
Cu 10.60696779125047 5.08196552202056 9.43249829952066
Cu 8.632593896352311 9.584168472965233 10.628353205239364
Cu 8.212125428860668 5.297969790335503 9.881669606884783
Cu 4.378404054615902 10.143148451487377 9.872260256180596
Cu 5.332817563130222 12.442268282289728 9.440925080270992
Cu 9.55350042621632 7.391687794103466 10.135835435081058
Cu 5.750385661589242 5.550816347721259 10.071944481203793
Cu 7.282391884047694 7.318177292064087 11.00447777999963
