45
Energy = -132.76327071 eV
Cu 6.485079601655939 9.20645443919222 4.923608856187107
Cu 8.775882289222409 9.942998551688094 5.349606147249947
Cu 8.294747982035497 7.7809080504609085 4.183672728144427
Cu 4.613028991770047 10.426229747746735 6.0632772377489825
Cu 6.769959119853399 10.392604248222844 7.1112992868745115
Cu 4.148925201960263 8.972423922093538 4.179198199781819
Cu 6.00438299496121 7.245766847960409 3.3524487020024862
Cu 3.6536164298400715 7.353843795716311 2.525655941077785
Cu 10.13967256078568 7.8527230932244985 5.729248184048045
Cu 9.04122773399194 5.4423459725379235 4.81887625796657
Cu 4.387418427821923 9.625759683313253 8.413247730390642
Cu 6.777370423959171 6.581297681699537 5.640319322286741
Cu 6.797398946030843 4.830738051821781 3.8945871507392966
Cu 8.042429820859443 8.37694010583099 6.962271865435956
Cu 5.438389610221938 8.148887930872519 6.920131287399071
Cu 2.956550034158185 8.687011573900797 6.306211062529004
Cu 4.43910729574012 5.132479239927008 3.0365075166028617
Cu 4.3055612969708 6.691640731742674 5.0642367058297
Cu 2.0530296471443665 7.33342548310062 4.400389128166079
Cu 6.731389070855736 8.769531875065834 9.002827561455991
Cu 2.0366261122878844 5.609725013747144 2.5541219647947466
Cu 11.155498716571095 5.654615513698559 6.109907002232637
Cu 5.400829436787121 2.9163095596164266 3.264787656229525
Cu 10.793364841326458 3.6840953234790623 4.724753032876724
Cu 9.02651063090525 6.187464782111539 7.106268888937576
Cu 8.966008620458101 7.496392324497388 9.125050929249788
Cu 2.5326952594939813 4.889925163650634 4.773998062524719
Cu 8.482442674152656 2.9938925036103554 4.835775988069549
Cu 2.323400889437101 6.348247230252672 6.709822749868009
Cu 4.80149188339867 4.118087090542937 5.277395370810055
Cu 4.884602309640735 5.657167097868642 7.213550748205716
Cu 6.965883094832239 6.375407004477925 8.346169014204227
Cu 7.197026700980481 4.377629733574961 6.407869146690885
Cu 2.5693383995405785 7.955610423521716 8.541309943763352
Cu 6.274194345211533 2.234544635656637 5.433268772580778
Cu 4.797039514565738 7.273285166010346 9.260662210567418
Cu 9.695663549067692 3.7932014604976416 6.888919166896662
Cu 9.709172112704316 5.093380145207814 9.10483877361046
Cu 7.8956973835196065 2.1245213182130436 7.235661522089073
Cu 7.574400546260359 3.970020921189037 8.80407003950208
Cu 3.041063602158542 5.575061207271752 8.931626636720408
Cu 3.132359446710489 3.9771121332669748 7.038294154477254
Cu 5.350774393368012 4.824887538057647 9.433652325325234
Cu 5.450270461294459 3.162446674556843 7.583889415765565
Cu 9.610517266563859 2.63341385650112 8.983144699773046
