47
Energy = -139.9056824 eV
Cu 2.755211054904876 2.1000105595998173 10.433385530528147
Cu 5.378370235199458 2.428680861773104 0.19184988498112554
Cu 6.024400368191443 4.788077440898872 0.33958385632477056
Cu 4.249066072257019 0.235565896588756 0.5432521491228206
Cu 3.6857120415911826 4.262531832373982 0.8076009242033905
Cu 7.5957967337186405 3.078033349266613 1.5654197809479793
Cu 4.403181218335508 6.662496096822962 1.0533033500084392
Cu 6.665765752192293 6.065762745907985 2.2440372785438716
Cu 2.0027190258589207 0.4644639042323865 1.7700973850134936
Cu 3.755146546666469 2.08040980456531 1.9878631900217665
Cu 6.147667454796321 1.0759829129192857 2.1321870748128737
Cu 1.574170281350194 3.0965390043738363 1.8856778906322846
Cu 5.57087602375134 3.6684800236968584 2.5021909051617333
Cu 2.1586527309054975 5.5866372354592 2.056230289271013
Cu 7.667115827207362 4.457510567551921 3.735813478894647
Cu 4.405298808932481 5.708345137044597 3.1759016806684444
Cu 5.443902812334694 8.004387083381383 3.1768890496040796
Cu 4.129818754714114 10.333265554568925 2.982784535977752
Cu 3.082696097311757 3.7984281932289794 3.71614376339867
Cu 7.256025096419457 2.1398964286149833 4.146339691975697
Cu 2.9476273403931077 7.742068201090786 3.0341039881226237
Cu 2.1446190786308374 1.5687736247223676 3.9952784723371266
Cu 4.823960333723187 1.8894312226130958 4.083083328667023
Cu 1.9196508912110524 5.947623023093293 4.4691800161023
Cu 2.023461168947349 8.199158569437762 5.468741274025214
Cu 2.0288336293083042 9.731797676159426 3.9261051619089824
Cu 1.3705617245822956 3.78038253456228 5.513356752292247
Cu 1.5764329853001178 8.500735159110222 7.821292676831756
Cu 6.158715351807006 10.481444133347624 4.401285834432979
Cu 3.990432237613245 9.451035784567228 4.487943093985283
Cu 5.343855159692272 4.191719737741615 4.940798046443858
Cu 5.885292138673688 1.6500538976393626 6.260982515823646
Cu 6.562198744240711 6.404701362772275 4.73627763823792
Cu 3.3951172870791955 2.5022825330209035 5.898748108505415
Cu 1.5663875416747624 6.156874263274117 7.023694298440125
Cu 7.263019305030842 3.8172171787209273 6.168288177196819
Cu 3.9786404738738974 1.3899107787140625 7.857772585678266
Cu 4.164440247372328 7.05206724758706 5.099002246461392
Cu 3.8043820892409 0.13158741773633814 5.472146005024118
Cu 3.432974451127915 4.987185690797981 6.177355514153743
Cu 3.460417433426599 9.731797676159426 6.796387852803126
Cu 5.068676961372976 3.587145239779121 7.497475452033241
Cu 5.6716364761807245 8.473789721321056 6.125516804776816
Cu 5.600880214926954 5.942311447173847 6.918141336016349
Cu 2.4070686623369753 3.474493142090703 7.839544480262056
Cu 3.730095305870066 7.480586852312499 7.499951634609966
Cu 3.713441002879281 5.386107624841394 8.593197921256923
