41
Energy = -120.95154088 eV
Cu 4.886551686305042 2.096842462158578 8.98094137065171
Cu 6.92390644810112 3.450489205827421 8.559399502312043
Cu 5.0761932155637215 4.223648016547915 10.025169270415525
Cu 5.996405773183288 2.0425327225839824 6.731546413142157
Cu 6.827026900932628 5.78605982273511 9.375591447170521
Cu 2.8830256463654553 3.688961476150801 8.867646446970513
Cu 3.4741748693080536 2.02001266116141 7.06773354805711
Cu 4.715977651656541 4.219207442848697 7.529166791184168
Cu 8.365330197724983 5.125297961171089 7.57798690105006
Cu 6.120400349027144 8.092043763017603 9.150755102263116
Cu 8.256832433890583 2.876817343952685 6.564471376189749
Cu 4.237830042743149 6.333309457000249 9.157715178148921
Cu 5.712375391004088 6.493423084603294 7.260295563467157
Cu 8.251726620365861 7.513039741278591 8.097978048898613
Cu 4.543260234905683 3.0132757747637604 5.102844751156399
Cu 2.4691902602164446 4.101415399289353 6.394201030491754
Cu 6.947579632519499 2.846463317600233 4.3819412954232275
Cu 7.6173575448968815 6.877212843064786 5.79405528005898
Cu 2.9144601636593537 6.558242078006824 7.053921160096352
Cu 8.934168094553376 4.762035370664818 5.16204228871181
Cu 9.94858393471139 6.658993149605161 6.48278812152681
Cu 6.505854470168245 4.598873873053023 5.8896449045247605
Cu 2.7953904996793355 4.044254713707256 3.817715451033218
Cu 4.200166174656463 8.496033885032087 7.743079193796531
Cu 5.205806534610479 4.380867335881679 3.1350236091782153
Cu 1.7324911442602073 5.902196140247801 4.928543251678681
Cu 4.2007538738347385 5.483050901573002 5.333232440304191
Cu 6.710434908930096 9.007212491432275 6.927006919443645
Cu 7.637232017970098 4.957131694517409 3.1323311625233465
Cu 8.987722103272612 8.84511916981279 5.6913574398935465
Cu 9.378559470507263 6.94456540547647 4.085939576574083
Cu 2.797111795139725 8.013502689536214 4.810533028194221
Cu 6.011720119750485 6.493383945565792 4.043759023844745
Cu 3.4940798251192624 6.304552092113864 3.1299982383701987
Cu 4.994666933505446 8.095895076178186 5.530739283955066
Cu 5.5417974141508095 6.514519309905774 1.717813791277997
Cu 7.743198017525666 7.27598525523646 2.3794671314703164
Cu 6.945711548651883 8.836830548263189 4.293148905312414
Cu 4.6978080967616505 8.442588993046225 3.1158780843413347
Cu 8.976915189320676 9.234554652721295 3.1223904826984086
Cu 6.656924382518412 9.283644255308955 1.891792326609427
