40
Energy = -117.75283819 eV
Cu 7.87485448378853 2.0200970141068932 3.3778434745685506
Cu 1.7183466629998418 6.065275350436701 7.238911037705321
Cu 1.319804743610581 4.961401462044084 0.9043370474653946
Cu 3.882845432873625 2.554833010325161 2.9722045034825775
Cu 3.9249016403984984 6.6662107041118785 3.777014722825203
Cu 4.0498700254058955 6.155592240089177 6.323750227495465
Cu 5.768520828864745 7.651281101124821 5.194013313687699
Cu 6.4717811492844355 5.886015120003074 7.00330867057564
Cu 6.52514011779873 4.730407618959583 0.7031574974850439
Cu 5.96932130178513 5.366635196102214 4.751630287259329
Cu 5.919026355132771 3.0145086975142608 4.180825724573132
Cu 7.791879235853648 3.9054481255126245 5.4481106015903995
Cu 4.057447134608429 2.2110953228983856 7.886640852992702
Cu 6.32901441195473 6.744438648573792 2.7916551878172604
Cu 8.332980947755393 6.39527244902228 5.609120489277708
Cu 5.3887040355529985 0.7470992554842459 3.473654752075902
Cu 4.067398529017328 1.71633505797135 5.455798356989609
Cu 5.990936401530574 2.4941009782893824 1.6499996173026945
Cu 3.8280826416927636 1.0229407058847468 1.2555401493221308
Cu 2.2828595047615696 7.693953195110022 5.362583466908473
Cu 2.663378277292312 0.6628551045596716 3.5685939047003528
Cu 2.7596678634824694 3.883274472111672 6.845214464465736
Cu 1.9085885637118947 5.415862752647604 4.943489709824393
Cu 3.91678050345262 4.196800708746723 4.7418644007339426
Cu 1.804123671915655 2.839374687459895 4.427703440525309
Cu 5.0623224007834535 4.723771576039964 2.535838811950817
Cu 8.018090451733865 6.417775210076252 4.771425633190216
Cu 0.38197744509344195 3.9923009986945712 6.094004695003442
Cu 7.5884304080735525 4.533921105440495 2.97507870162041
Cu 1.5568983772387024 6.740462818747192 2.8888013181457746
Cu 3.7911136802558785 3.6227528793113133 0.7414237098042031
Cu 0.27933512018300444 4.506615993513912 3.309567754468135
Cu 4.43883675715478 4.829456327550424 8.339612813475368
Cu 1.832774217122555 1.6934950621987523 6.52859983930087
Cu 3.594890460255345 6.179708013331576 1.2498767452341688
Cu 5.55177634970536 3.597069022647464 6.597997269857721
Cu 2.61832162915034 4.606436913043453 2.7592268747203814
Cu 1.69741752365054 2.535737669636449 1.8783309042939411
Cu 8.332980947755393 3.040205641121149 1.206669407446868
Cu 6.6362545976283975 1.4715111320091752 5.7289089622904426
