43
Energy = -126.45042686 eV
Cu 7.1252249896950355 1.340957864105033 4.091075375360235
Cu 8.5357098967672 3.2129628982976226 4.749736473174544
Cu 8.436061722141526 5.0906822526864675 3.177160241724105
Cu 10.464301771055126 4.554135834486236 4.659230549688682
Cu 6.133716633872184 5.693451026682266 2.204297139568066
Cu 6.467625334749371 3.695256820184109 3.5710314776434435
Cu 5.65876568809784 0.3977973821937931 5.777433104445792
Cu 6.488105036638236 2.7576227970725444 6.0108622344349945
Cu 9.2755084121205 6.601352031658578 4.904603574807714
Cu 7.566062469909404 3.102735536441451 8.127496828954392
Cu 7.434908075480255 7.317949361636663 3.4572333685150567
Cu 4.783451406722269 2.0861835078425646 4.128419713543338
Cu 6.932768626037149 5.477822714907986 5.2782995931607255
Cu 4.150820270434498 4.300194014958407 3.082363399087689
Cu 8.46533094675966 8.942336165605553 5.138519537005981
Cu 4.8795080886121704 6.477407236699804 4.19922790868676
Cu 5.261016813810434 8.140847366994366 2.4464082371099973
Cu 8.859581451171685 4.728001353156745 6.640531792351544
Cu 4.011886861205792 2.0524405169802513 6.421408673858949
Cu 4.652632791123003 4.276592395943749 5.434683623651635
Cu 5.6953949341888155 1.437217947763292 8.026854637123432
Cu 6.905494921191753 9.669258957890333 3.339723054102567
Cu 3.761911017581935 6.357804021807944 1.9098074386529678
Cu 5.101909279730616 3.849480200379154 7.999043626829018
Cu 8.041995477393261 7.171856775997039 6.898655951074538
Cu 2.774471961779181 4.058805541344792 7.030295884533128
Cu 3.4136180503335987 2.228502884538239 8.721451994460102
Cu 6.190876071409309 8.198895546515702 5.489484171728183
Cu 6.653181998021527 10.77061753218897 5.412037367822304
Cu 7.000249293211805 5.392170223197424 8.137423579548555
Cu 5.115389987682097 6.347381589561543 6.800190833019847
Cu 2.988080954881743 7.911270678453276 3.6206084524172923
Cu 2.7575869080852047 5.8694651136542575 5.254067971619941
Cu 2.9799227727847493 4.512868055048284 9.389404137832923
Cu 4.61684732769617 9.656358779925094 4.360273433143257
Cu 7.381195748685587 9.522871588292197 7.355127368885198
Cu 3.548550545804363 8.084812216882604 6.002392140929771
Cu 6.453907109375589 7.713665150025757 8.673920069227444
Cu 2.786490146979065 6.37137450076769 7.733994852893006
Cu 4.807950673163351 6.012614393913986 9.223076129324983
Cu 4.931526800147035 9.920722505556846 6.88223160780733
Cu 4.098765246447733 8.269206086280224 8.440220302965987
Cu 5.75940527697827 9.953683525014329 9.154494482414245
