47
Energy = -139.51818064 eV
Cu 1.3256382928522796 7.430768094408709 4.438921308612848
Cu 3.566835597187283 7.531900640629955 3.363526185312202
Cu 2.78011066706387 9.064897814524981 5.276691149982795
Cu 2.42134138775955 5.308911361453776 3.813131635116317
Cu 1.7705291832449745 7.547483634434863 7.117409190494127
Cu 0.8060657005890739 5.560026809282866 5.757099782428326
Cu 5.165725544415285 8.793856416609374 4.979632320496284
Cu 7.119206877183198 10.25209117832541 4.6096731012810555
Cu 3.419298445663695 6.679502327426047 5.753567696506417
Cu 4.508450089604369 5.295974321868576 2.442073801220542
Cu 6.95872485510224 7.951688743049631 3.4740683031311814
Cu 6.405298302857203 9.910747991658361 6.878330296653251
Cu 4.055044016118338 8.913791821455643 7.291327476397299
Cu 1.7177098026014368 3.3851450699224026 5.261475163749545
Cu 3.885283772552061 6.604446689476456 8.174182295857552
Cu 9.061636443794354 9.274371555949207 3.6833329509833925
Cu 5.340473922883302 6.3385560721108805 4.430553614152383
Cu 7.039483090435243 5.555073665091836 2.707309403633138
Cu 9.087562053527154 10.134567940536888 6.379713553882261
Cu 8.050330310981728 8.212124954245759 5.740180676606295
Cu 5.873596583656868 3.2858383462852103 2.223404840391762
Cu 2.513198111280278 4.80316295317759 7.2460762810328685
Cu 3.5157171081901653 3.114166756775678 3.154971764604694
Cu 9.172026616459876 6.790645870318052 3.614467239882237
Cu 6.338124163794513 3.978161948579182 4.442214869645915
Cu 5.97156249113464 7.5031227271948335 6.897988899117849
Cu 3.9992259312616345 4.123464821631261 5.309752385964515
Cu 7.679526032989701 8.425255783208698 8.351826051326602
Cu 7.514989268566043 5.979731542933181 5.210588421208048
Cu 10.525969343005023 8.229539829981906 5.2370121765155915
Cu 3.3317529182732675 2.4854420602017586 7.237296939097762
Cu 5.638946609327724 5.194600262378701 6.720952780794184
Cu 4.455555188627507 4.224028214869987 8.682713616953581
Cu 3.1516040659294746 1.4982320311326767 5.003126334909037
Cu 9.816769312920783 7.838626216255934 7.468063957485931
Cu 6.119426944727525 6.197522038645906 9.046147471439314
Cu 8.066066580140262 6.098302614790859 7.647591977323443
Cu 9.836739010497874 5.89592813145715 5.864851809515135
Cu 5.361857585663741 1.747441005356485 4.184778339921701
Cu 8.782390634048447 4.277446470373581 4.038585827017858
Cu 5.755547573312763 2.7779323656485793 6.473381289954059
Cu 6.887514369696561 3.887923114604256 8.54474355246259
Cu 5.309917910738226 1.8654146231745334 8.651262159473411
Cu 4.8115195481986985 0.5963029510676827 6.526357817441443
Cu 8.16893518425652 3.9333497374201465 6.449401090911033
Cu 7.703581773633219 2.059935961177237 4.988664960398987
Cu 7.578628239942757 1.7378127755099952 7.525542009696217
