47
Energy = -139.94889451 eV
Cu 6.299935561751125 5.936985822805367 6.769648547833126
Cu 4.729925388313374 0.14105607826562475 5.882836230565039
Cu 7.05850642905984 4.494181956819543 5.032425078485082
Cu 1.0982212554557138 4.483224952920661 2.5179100566561265
Cu 4.956403396311044 3.9927391038924034 7.236190847656101
Cu 5.57009345923311 6.089520788351536 0.5081101600453862
Cu 3.705913302393932 5.690807357524326 5.844198457351316
Cu 3.0541412311822027 3.035010315658452 2.904300461703033
Cu 4.913371814081544 7.813125166901347 6.19148427129947
Cu 7.9801969867004185 6.174274295764104 0.6570599536952495
Cu 8.230486605837898 2.3419290612386723 5.14750850651534
Cu 2.1084764812330135 3.8150305060043364 5.0056318781026965
Cu 2.265170166755365 0.9449384342256604 4.6437247780428255
Cu 1.0768554323144677 6.058718238117135 4.642751024939911
Cu 0.9075125975469768 8.647769613633088 3.1314679412882915
Cu 2.412557949863364 2.8913260241202403 0.6672266246172885
Cu 4.126647351635232 6.180348360138756 8.098180177670963
Cu 3.499013063698599 2.23749277820541 6.278137646432761
Cu 7.416429393088701 5.27246522625484 2.8091884023401192
Cu 5.905022774108529 2.2639931030925102 5.799592419601554
Cu 4.576239532508172 1.3834348144258863 3.818025234309996
Cu 3.126352038372256 5.4716110373488025 3.454738697079459
Cu 2.825983927226224 0.7623798696119962 2.096459261198849
Cu 2.989838241861614 5.383876345416056 0.9989040980612591
Cu 5.408012841695893 8.647769613633088 3.9887115206401096
Cu 6.786678194895002 0.4937413423321693 4.409022236258697
Cu 6.829424323715116 3.8992721270093367 0.835794837633017
Cu 1.6808958722086946 7.00847773736593 2.3944274501522957
Cu 6.598682970206119 2.808619228874067 3.2276466211178714
Cu 0.3146297445971367 4.762933249011347 6.588438285379921
Cu 7.288879588678393 0.7292832300012175 6.838017727601455
Cu 3.0599486940463394 7.694733387948599 4.504695311866304
Cu 4.522033964232407 3.931126917141889 8.842400741386538
Cu 2.505021715752294 4.267566168487294 7.469896245219907
Cu 7.367266724278373 3.4669898332270495 7.249184983066785
Cu 4.8673984707012865 2.155813170711165 1.4395850131732444
Cu 4.186601078311824 7.321012704715067 2.187695772007159
Cu 8.850916405350228 1.0293340038723329 4.812674898310558
Cu 5.382181510215278 6.223599161911894 4.124536082243889
Cu 4.614403763265584 3.850917691805791 4.587251568039536
Cu 0.8130992156863868 2.032438780530796 2.7824223113640127
Cu 8.829411867244579 3.4896534131167525 4.51281987800462
Cu 0.9714404870762425 2.3543316461566888 6.515987294298387
Cu 7.353018690030211 7.193543675446676 4.795823822104961
Cu 5.01474533994131 4.505694708402949 2.2500775233561514
Cu 6.694590969495307 7.5130434909441135 2.273049577807141
Cu 1.8995621968482679 6.763638090456738 6.8839121673155645
