45
Energy = -133.59045547 eV
Cu 8.030935783079793 8.563947293564338 3.1763414750894
Cu 8.49952683873658 6.213448108596934 3.5764559072989877
Cu 9.346355512427253 3.955902222081537 3.3167115459677308
Cu 6.482853174333213 6.7652376516701 2.165941974735484
Cu 7.130438050317438 4.409356127052108 2.425857705915316
Cu 8.672930380424388 7.852355420853427 5.496422969730603
Cu 9.852522367385125 5.242755279734404 5.413685431200979
Cu 6.8974593425715645 9.617572509585333 5.109491725921145
Cu 5.66124410776688 9.06950920104157 3.077204818518152
Cu 4.255312643240867 7.140075722996832 3.042302662467635
Cu 4.361588244954413 4.997111518206714 1.8252273622412738
Cu 6.459641298407104 7.193743111459425 4.593829918578225
Cu 7.58147949056769 4.380423819991461 5.123122763392773
Cu 9.571956200466044 2.7075933522189337 5.325872305569441
Cu 7.550217472036261 2.3017733387481942 3.823399912722102
Cu 5.350844388150317 5.072848524671193 3.9600048880803924
Cu 6.504266326566774 8.091498839525629 6.946831995667353
Cu 4.439542754526137 9.54551668014518 7.497969493988565
Cu 2.3926233684051694 8.22615325782691 4.084234453817176
Cu 8.117453441028262 6.024239042869717 6.948071963115151
Cu 2.257356870720593 5.795663616208319 3.208008421796971
Cu 9.249788668767035 3.8321839398725417 7.414936574607531
Cu 4.556002999073995 8.573330677906837 5.2818440575562215
Cu 3.3414799498398344 3.6583420083780767 3.775590690021574
Cu 8.16298623062366 7.710758995238808 8.786318936529812
Cu 3.4637298776251333 6.284090734414115 5.303478258331588
Cu 7.463275940279506 2.112677403877363 6.35652270438228
Cu 5.352485558570977 2.8252476845646304 2.6813761393716593
Cu 2.430827207510708 8.318835953667012 6.558313168800975
Cu 6.871274136439013 3.931878088048578 7.833102117476995
Cu 1.0184418117612755 6.726714202685338 5.347783795029706
Cu 5.749144484883324 8.446708751534128 9.315688198657265
Cu 8.40450465496443 5.206130817047232 9.32157159728342
Cu 5.509070548207497 2.883727235080272 5.110974593235143
Cu 5.645401009885876 5.552387799118665 6.297262700305125
Cu 1.5084281705887574 4.393752317837084 5.21332293862918
Cu 6.294531001760849 6.20987031688402 8.559309237117267
Cu 3.623091740733603 3.9098920987805266 6.2129273112821055
Cu 4.200937377578477 7.153707796232557 7.702701050730083
Cu 5.124219939623861 2.388035908279407 7.456408900818627
Cu 6.962804475562448 6.751902341059231 10.76876441681525
Cu 2.231171249176273 5.714497442367405 7.3291501006906445
Cu 6.090548747359549 4.4663278297613775 10.201267428326508
Cu 4.501342262379909 6.421244728285235 10.133169591731123
Cu 4.364514908516121 4.6620975294287925 8.371441169045964
