48
Energy = -142.91345433 eV
Cu 5.507340811049113 1.9182462672117906 5.165406580859134
Cu 7.038301538666114 3.5289470630724065 4.241106511736957
Cu 9.032992292835798 3.662751229668268 2.87477219173199
Cu 4.8070494557576335 3.027617339488787 3.146421442022507
Cu 4.609955800571283 4.51198481728284 1.2264460507521786
Cu 6.832935538328559 4.085263083044964 1.886122912781114
Cu 3.1223041905928226 2.8653111216125575 5.008004013280097
Cu 2.8649042833797163 4.534096362126343 3.0265690909413117
Cu 7.887207279520258 5.798154784188414 3.2546761154262773
Cu 9.069239204642939 4.442302220578315 5.194259520023794
Cu 4.612202062144336 2.3356639865262068 7.2791444705803885
Cu 7.00114552674968 3.508945245952917 6.885025589914008
Cu 5.995376544601033 6.768517934172925 1.8224748037488934
Cu 4.896623487617121 4.262853388743286 5.6896315684751455
Cu 3.4435746671650946 6.487065400446944 1.654311583711982
Cu 6.842720217112248 5.701637680049488 5.440078996063248
Cu 5.217583463472617 5.439648670463255 3.5429993629420373
Cu 5.632689163218762 3.5702532013516186 9.071540007926641
Cu 9.449118204109995 3.6229780570845715 7.543286392651742
Cu 10.691115664209487 5.640857026055735 6.583934754854398
Cu 2.8493811913209535 3.9997150898581935 7.278304161354637
Cu 8.971263145100643 6.959342889125615 5.197695216272777
Cu 2.6717257197446003 5.425859807375231 5.278596578633175
Cu 3.325189175242549 2.635771192073149 9.259170133676268
Cu 10.037571185825188 5.663699726097001 8.977107510014154
Cu 7.795461329213758 4.573530532815189 9.227725707085396
Cu 8.362120247244441 5.740195782616115 7.2593450985935615
Cu 4.778222803253709 6.843108293017103 5.682323113886332
Cu 3.7322962130492576 5.014209079169561 9.33692771295003
Cu 6.753845775825545 7.957650899670557 4.217695111493433
Cu 1.9415268604684377 6.864625514350726 3.4858290032854007
Cu 4.258744777163805 7.805740074739296 3.4599610257089974
Cu 5.7066880082885225 5.678548539488963 7.7190853306829705
Cu 3.072132534026009 6.454679429663338 7.4593550623658675
Cu 2.700722587862963 8.002036890465094 5.510203911011971
Cu 9.739703127646832 7.7430155165383585 7.515663081792475
Cu 6.021162053310127 6.107109683542722 10.050719859779393
Cu 6.89075203695919 7.743655421601544 6.913985451248977
Cu 8.120888691019049 7.17741049948258 9.326748414978903
Cu 4.872308189894686 9.334393936051423 5.221443132513039
Cu 4.02601310038966 7.375629937224 9.491201098577344
Cu 8.534119369079598 9.240169658389169 5.87880163481756
Cu 4.326069264464262 8.589523360555162 7.423105537448829
Cu 6.8828674712159446 10.523495463815035 4.786523760135541
Cu 6.125308899835519 8.5040438374533 9.155472180251977
Cu 8.25693872728378 9.507760634518242 8.322113444935567
Cu 6.206371354954607 10.163827293235432 7.1410245213454715
Cu 8.202691144018983 11.454513454881154 6.697274296340001
