47
Energy = -139.89112486 eV
Cu 3.881121203848731 9.589154334248652 4.117329293125168
Cu 4.151312146948097 6.300606152262956 9.440315320887576
Cu 8.12406941672583 2.7081216824152534 5.836719740862687
Cu 7.298293827516773 5.726122366596669 5.489349972765727
Cu 7.977628579710335 6.054543098191435 7.903139155153483
Cu 6.275122810940534 10.251158814842672 4.109613560145559
Cu 5.020806781476595 9.799504192452945 6.187370682097842
Cu 5.258406987103079 9.047172535728711 2.167819138728255
Cu 8.124055851921023 8.70507662258852 4.547654025685027
Cu 6.228823298537588 3.7869453808154923 6.971028194289453
Cu 9.012791953434803 6.544110987111914 3.872726454821954
Cu 8.322452381966956 8.576746328128124 8.130793088682543
Cu 9.167919446258386 7.3052462717640685 6.203579899426836
Cu 4.537518720372412 1.7264198462903324 7.628867264155684
Cu 2.163099426643749 1.203932784812052 3.3713044329362507
Cu 8.224463527796674 3.591310689236062 8.22677334603485
Cu 3.780346737162401 7.582352460354098 5.658163951091335
Cu 5.983157310305843 2.654790658413544 9.328015550805299
Cu 2.8658216012403943 5.319222127053908 6.521721781673559
Cu 5.328184862228894 6.68233376114873 1.6061322045524458
Cu 4.329275564041692 2.231077394761335 3.5892190595402957
Cu 7.012973643606766 1.3965669374625829 7.582039690083662
Cu 5.798795904137376 1.5584828683356589 5.509992810292392
Cu 6.180092014429425 9.763808052002643 8.361856590612549
Cu 8.714954356886357 4.126083114823769 3.9707915374876057
Cu 5.861440706712579 7.7752195677462455 4.166741452272912
Cu 3.629425914243146 7.366788890823048 3.1891528436069945
Cu 1.883572690243526 3.121805119953698 4.839866983194015
Cu 9.403974526113343 4.79233597352074 6.26551160140659
Cu 6.332429642865411 7.44829137204085 9.123671784895514
Cu 4.748354710422047 4.481827621546346 2.620652362249896
Cu 6.636760371444812 7.919464873447996 6.5504579136509395
Cu 6.957007908347895 5.570836168424911 2.988699931447366
Cu 4.964671004626155 5.604419648912279 4.832470417456052
Cu 4.31808811421675 8.240390221784189 7.962382000671102
Cu 7.45368068569942 10.247568256139152 6.317625588431471
Cu 4.112462279490728 4.057474014717867 8.380187747191837
Cu 2.3249371473946736 2.8700255353326103 7.230607132636646
Cu 2.696597994493404 5.290516628813663 4.047547238894498
Cu 2.512638816256104 3.4339698456911565 2.429583474834644
Cu 5.17512418012975 6.030131627616874 7.23652689153489
Cu 4.1629886578898425 3.4710457331516156 5.731664495041566
Cu 7.476530398468288 7.8863459032632806 2.3203400982585447
Cu 6.290218152988915 5.007370548162112 9.282849472070179
Cu 6.330908296299308 3.5643788976104087 4.272868303723404
Cu 3.25504438001681 1.1659141428988549 5.581522478505752
Cu 2.983827667906896 5.69516254807083 1.5689256435972572
