46
Energy = -136.20148813 eV
Cu 5.130316447464929 5.079214696487631 9.871573998628131
Cu 3.6108701556733256 3.1019154977649483 0.24428361657214367
Cu 2.768981675338531 5.6932189873986765 0.562771867474134
Cu 6.015260882151907 2.960358434467676 1.0925731493637127
Cu 2.0306048448204095 1.6496581807763062 1.409278923750026
Cu 4.197580382812889 0.695961697750347 0.833216247141043
Cu 4.65365924395199 7.110396725026347 1.6068499160908538
Cu 6.796375695255943 5.473467594687042 1.917150497921457
Cu 4.419651506579145 4.594926308246889 1.8802243422790537
Cu 1.8177980681567387 8.239790409474509 2.726506872049196
Cu 1.9573385233700247 3.9465617548853045 2.189246466552326
Cu 8.370035351829557 3.620643587461454 3.258318514180778
Cu 2.7018076023653608 0.28520373881022054 3.256318388274175
Cu 6.727131432964034 1.4104388669715908 3.865174521467378
Cu 4.296950337987369 2.0789176233789144 2.733775534740523
Cu 0.49328642577254617 5.9151752860530795 2.804763525789296
Cu 2.7998431833139326 6.129430724404377 2.989377843621354
Cu 0.8508327179971422 2.2294089493218023 3.4815135141454623
Cu 6.51788628244415 7.855862812142647 3.361668547276121
Cu 6.069046033675795 3.6974414020299893 3.4692557998771574
Cu 5.126060219233218 9.852196527483724 2.8865789052602846
Cu 5.16602953248389 6.031765569704765 3.682702139708394
Cu 4.0048096773610276 8.142337033200459 4.051669163296551
Cu 3.6603043864548632 4.020532561608615 4.053478544199563
Cu 7.459926693054234 5.612763758324713 4.462919120713934
Cu 6.494490301360142 9.333921668394016 4.873549159928734
Cu 2.5265779067386904 1.9104777030742026 5.102875582014924
Cu 3.4137110726631814 6.051851528115649 5.40697246193007
Cu 2.110610890155464 9.333921668394016 4.943144256621693
Cu 1.3208095162312585 7.0567029902615035 4.884331090656856
Cu 5.635776911110187 7.203832203295103 5.820705460127932
Cu 4.284094636040402 0.13214755636488915 5.177332107299415
Cu 1.3720443205422261 4.46361001789645 4.77197397540766
Cu 5.473292015733937 4.759413373249266 5.688669661762795
Cu 4.968491873494447 2.4191446351692805 5.281611078159144
Cu 7.368904937917856 3.241475595802966 5.604841576986637
Cu 3.317936502538141 3.8471853560729987 6.441984906186043
Cu 7.0874024836015 5.383452912923957 7.194848002552027
Cu 6.2492658031390365 0.9783525110404078 6.577956724997968
Cu 3.2618841199901274 8.008875330360562 6.641510664346306
Cu 4.4266566766360524 5.801043587225431 7.666770632625514
Cu 1.2119385689792301 3.045063139790093 6.952738167651244
Cu 1.8287356278941393 5.59786321593435 7.170391815571833
Cu 3.750606991033222 1.6154257364802298 7.296398556188217
Cu 5.534655051226802 3.337007518633773 7.648618274372802
Cu 3.1542560532219768 3.7343144899264527 8.720186398752611
