44
Energy = -130.63694431 eV
Cu 4.965587614842566 3.1681425457898365 8.479748979608011
Cu 3.5244935380094584 7.0206616599396146 0.9209265347268486
Cu 5.757649080475038 1.356828809888367 1.390682958162311
Cu 2.5207280882398044 2.2877035837813873 8.454133698292
Cu 3.0242770775377044 4.700495579325856 8.526719412864246
Cu 6.888227089438872 3.5838378989938384 1.5738345436947845
Cu 5.014739225690489 5.085771808522952 1.5370752553113458
Cu 1.121734300351611 6.2696968836881535 0.8698011913214146
Cu 4.5553031648419795 6.769217212032363 3.3002870553619816
Cu 7.789224471232206 1.6716154310259552 2.832900734047043
Cu 3.6007536678024024 2.9183283349031903 1.912074087620536
Cu 1.099652663429509 3.755042659160697 1.4300609343261121
Cu 2.0456920474382905 7.6028092118165045 2.9025386501274064
Cu 7.239394949279801 6.022001672246657 2.176492879450335
Cu 1.7860328382541517 0.7197797250774577 4.488237269735665
Cu 1.6358297714481709 1.4734920315355222 2.1405732082883184
Cu 3.8495374511511096 0.6886484455521197 2.9162074589037292
Cu 2.6941724740966904 5.283381106873105 2.3055782885005
Cu 8.428330243000058 4.074187063520709 3.5235221640340186
Cu 0.46180897697528517 5.5654296115005515 3.293557895451693
Cu 6.154398445151913 0.3087648338491588 4.074050799899991
Cu 5.56380027220787 2.5036687143320866 3.459665367368628
Cu 1.6754864555635267 3.3305794286191848 3.9265015082748294
Cu 6.222474748643748 4.816922113040217 3.89011027827563
Cu 3.996064427416399 4.196666624001635 3.95996515916937
Cu 4.0439102160474025 8.060420069564472 5.0241497711052485
Cu 2.4876126499197198 5.940262815737344 4.6040834217405155
Cu 6.770053778974025 7.009418743244175 4.517763619983046
Cu 0.7319559356524268 7.3528450067680735 5.140351366723112
Cu 3.6761962919800113 2.0164914798727063 5.0880832683722454
Cu 7.317731862943735 2.4604290212018993 5.142220954149361
Cu 3.32402334779017 8.060420069564474 5.137257898264252
Cu 2.8727359853775742 0.4776791886446851 6.849456907973506
Cu 5.45003887190107 1.0899351414110106 6.406747022785987
Cu 0.672933501214041 4.897998856333995 5.872899535339691
Cu 1.4110876248593451 2.43009523201 6.3123641954039345
Cu 4.789729004878872 6.0339166718803545 5.735209753703665
Cu 3.0122702752809016 4.192651139066047 6.132153877763119
Cu 5.420653701012494 3.62201597978409 6.10438523903249
Cu 7.531899629996051 4.921022349562854 5.829532798695247
Cu 2.3754287766961166 6.456306567741828 6.962606563847587
Cu 3.7866800162975314 2.5296659677238855 7.697046105701579
Cu 1.8005611509666788 4.198668116840945 8.126081417017883
Cu 4.246918738979575 4.955690164880452 7.995547795558304
