42
Energy = -124.26872935 eV
Cu 6.119060690085366 8.39776393074021 2.890478829983544
Cu 7.34821973556864 5.947944799634426 2.229256199841896
Cu 8.37477478114117 7.974811898956814 3.580269656837175
Cu 2.4896983709690907 6.571151158329124 2.9521494832609037
Cu 4.88537778774704 6.37212740462032 2.283588730813145
Cu 3.424049974696866 4.274770815700985 2.4909388267956314
Cu 6.495374557961827 8.744545533821844 5.402509257630347
Cu 4.173803084514988 7.996539047055246 4.40062656079621
Cu 9.359929494482506 5.663641258933506 3.6434429134574113
Cu 8.97268815977409 9.10589095296867 5.776546123505875
Cu 8.057863885371813 3.66562189918036 3.1833365259509163
Cu 2.000004522598139 6.740947630244543 5.352069868740442
Cu 10.545654771968806 7.517651322798711 4.810806763335643
Cu 6.387242559468639 6.479592534160843 4.34859921205257
Cu 1.8994876816822182 4.384835520453911 4.471323089830197
Cu 8.402618248492498 6.743420831386115 5.657740813338888
Cu 5.767612182497086 4.193269396546857 3.2061898489949927
Cu 3.236072803413855 8.337539046880769 6.741702021771736
Cu 4.056812522621874 5.5957979966797655 4.417810466340844
Cu 4.025771484123596 3.0996442738714753 4.667695816153234
Cu 10.536396530335763 5.301166753292654 5.780560100532941
Cu 5.200764724998013 6.877095469832918 6.520469432344519
Cu 3.374611688326056 5.021153520067526 6.626283141017625
Cu 10.046666079770048 7.242227745492654 7.2766747958658895
Cu 5.754118707885386 4.580140074794715 5.846465051402935
Cu 8.283458705979688 4.24833910646509 5.526055461598574
Cu 6.545064026780132 2.5399866635640898 4.9545997361562755
Cu 7.609318146075476 8.19463507999418 7.607090927411213
Cu 5.308326253660049 8.806420667678008 7.966620316216362
Cu 0.8739656705048495 4.805090733117805 6.622438289198547
Cu 1.6121346150848568 6.728895423053059 7.75679543234495
Cu 7.220139371158457 5.704834759813325 7.428853851453239
Cu 2.2453598644948656 2.8268532538037596 6.46140660949571
Cu 4.63755235901048 2.7414255320602887 7.024521221711277
Cu 9.314925260907051 4.65293591142718 7.825732792153191
Cu 3.8321090191382408 6.7617637679313285 8.615122852376125
Cu 8.650485539223665 6.652387149384061 9.222099629042823
Cu 2.4905484523737584 4.478074520366381 8.660872153655369
Cu 7.065940917192533 3.2341534065211808 7.457958033651102
Cu 6.1789889085118075 6.879235314340343 9.25450412087532
Cu 5.137929275932958 4.691775546346386 8.44383412162962
Cu 7.397601400399569 4.579043403373373 9.533232921326212
