47
Energy = -140.61323312 eV
Cu 4.913566328794001 10.853098367153788 6.016093750813533
Cu 9.80618595466928 2.983645018185203 6.829123432124243
Cu 9.733780041950357 4.011407035386883 4.633981934467801
Cu 7.77189439109465 4.201706207036436 6.1888551214592855
Cu 5.72071552807227 5.208375951929476 5.35515697893054
Cu 6.49157011423779 10.510055016731227 7.981854934824325
Cu 6.353151712470396 5.426432434111786 8.070668467074356
Cu 3.3140359761225167 8.034785591276721 3.1464255318466283
Cu 2.2096930406228052 5.229345927558895 8.659063282819146
Cu 7.72868948461035 1.954396672911 7.512834413343621
Cu 6.61321055868343 9.117194398923083 2.5078843215269706
Cu 7.46844080925817 6.73528957898651 6.0723181320647726
Cu 7.524849952839851 4.48667772285284 3.7178800586230754
Cu 8.555465764569616 4.269114767017178 8.500179295302242
Cu 1.7506549333320143 5.001965488259064 6.185872754533508
Cu 4.345826826764414 9.162460519122561 7.829801429155833
Cu 8.490226146887181 10.347557263630755 6.181872548093018
Cu 5.087959315750294 7.193030087592301 6.660872508956817
Cu 6.529417107592325 3.1119371353857748 9.202339292817264
Cu 4.360148283439018 4.051832637765315 9.144617770800128
Cu 8.129662174814468 8.565797090232564 4.343097226184358
Cu 9.774643688151794 5.565583409408174 6.632432160703657
Cu 3.5630661188862214 8.826825837731347 5.485048278115861
Cu 6.4922109759701 9.037731553604685 6.150572899347437
Cu 5.840816876796907 2.8585252922207913 4.420317765599101
Cu 5.016258785310067 1.4072306199218307 8.148955870671989
Cu 5.535777823482511 3.2522408988185725 6.8680913448553875
Cu 5.116372384546774 5.221052378583605 3.091114177469651
Cu 3.949015023008656 5.1494912306048475 7.05177626214922
Cu 6.405113545332706 8.007807022135042 8.619022749497718
Cu 4.021010956777827 1.5886555816990455 5.725413150707269
Cu 4.311339939227069 6.6528110722068865 8.97957126288815
Cu 7.317808800144281 6.710418157147564 2.765807221891669
Cu 3.6409614111697564 3.8807492321667247 4.9323876898538845
Cu 8.524328149853838 9.194494346627533 8.325029541220612
Cu 6.835333620199781 10.714177518268299 4.40233957078115
Cu 9.162016202065498 6.355817189635786 4.354032237496547
Cu 5.156433952833358 7.293925991467678 1.7805744685682892
Cu 9.474275015538312 8.027428883776222 6.386035483432626
Cu 5.550642972197542 7.618526275337031 4.216348492753825
Cu 4.657150308140256 10.007033536030546 3.6682943040655345
Cu 2.962658995981138 2.9927509591298587 7.377726448902462
Cu 3.425572008271404 6.342445273607029 4.877017203930036
Cu 6.274490959799172 0.8976950797690935 5.9448169614501625
Cu 8.169496646977052 2.128433191944031 4.998996289624314
Cu 8.518501740130679 6.740294711166852 8.378248613017998
Cu 2.6486265851890143 7.2640459212283 7.187144300944954
