48
Energy = -143.03690176 eV
Cu 9.419772611066003 4.05577865523803 5.791062208145843
Cu 10.148665963476548 6.209681393179762 4.693120879964115
Cu 9.339378434729605 6.220107004407336 7.035401407523906
Cu 8.067557167313607 2.534424364987447 4.425469985697145
Cu 7.420482802328906 2.367270710036177 6.782095778840645
Cu 8.117245847050809 4.310452775135078 8.020955913428905
Cu 10.011608597180585 8.398750685599323 5.980193480926664
Cu 6.567356443800642 2.704667390165265 9.108635279127238
Cu 8.586498565847847 4.785697551004272 3.496116219424874
Cu 7.089100417006309 4.554591604803307 5.582424951054738
Cu 8.060419236888883 7.282796155258766 5.249960107193497
Cu 5.141517451332901 1.5954887380039118 7.358206516761487
Cu 5.629188607334094 2.426904433021109 5.099326958608483
Cu 8.109616008604696 8.329080089996662 7.605463109128453
Cu 7.146288793222799 5.4909884384388645 1.5393879791040177
Cu 6.477597580603438 6.191148991566529 3.829947540778745
Cu 6.334412649030948 3.7349796150710266 3.1132821666971036
Cu 8.368190306880251 7.221141402272191 2.777399275218458
Cu 5.348223443728341 4.118153521000678 7.315353345592678
Cu 7.840346255800694 9.782127205259242 5.687324128279223
Cu 4.683105154218815 1.311645914609282 9.717411743383936
Cu 6.732466742898338 6.264671859867603 7.329287038247063
Cu 6.375015303074159 5.132757406765369 9.582328557174579
Cu 8.338637051668044 6.473352605835842 9.269791962352821
Cu 4.331269416507225 3.7471425567431735 9.597709587557357
Cu 6.18668310045229 9.906948689424258 7.595097608891716
Cu 4.717442801732536 4.716180209064304 4.763759879278699
Cu 6.749794064376257 8.878163779634184 3.682918080329605
Cu 2.9839497855194432 2.273408991284368 8.246417293628623
Cu 6.23832409413645 7.8198700900974325 9.163179951513275
Cu 3.7623575901790716 3.109922707612044 3.3960543154108938
Cu 5.733447402115616 7.597184752802356 1.9151025458226
Cu 5.897767294303121 8.169827094524578 5.902844664408524
Cu 4.2931083014396325 7.075172190466137 4.108022361801633
Cu 4.302260511408439 6.179614230951433 8.904495017263171
Cu 4.730707115993754 5.349755351259594 2.1892027029707517
Cu 4.397690894681644 6.3485943985367985 6.479662590592901
Cu 3.3781330975552377 2.958368502144237 5.942679070352907
Cu 5.515145237574647 10.452206347159112 5.135573660867698
Cu 2.830669199217931 4.666823351553723 7.762204739518878
Cu 2.547571526242744 5.34767350889427 3.1144431727794433
Cu 4.350481015046139 9.338977285675265 3.2376392908679783
Cu 4.270236032134911 8.398875050225218 7.88262237918554
Cu 3.2521316796954616 7.447310864860149 2.0202652733214626
Cu 3.538843778219333 8.914075140136822 5.605097185682973
Cu 2.2689973857458283 7.148018021251845 7.052381269192021
Cu 2.354271274553897 5.22026092092505 5.4680671324237595
Cu 1.9506356188951626 7.427343783633743 4.391291649044529
