45
Energy = -134.10107537 eV
Cu 9.202968631887712 4.2780676463652245 5.378187519441971
Cu 8.922092191531341 6.2382057116999725 6.726133494263423
Cu 8.873092469550798 8.429881215920384 7.901143528682582
Cu 8.21487740559025 2.0354144735759583 6.099286901854726
Cu 8.47502684124009 3.957947131611564 7.70759457914031
Cu 8.536989678834612 8.33402869268758 5.544925527207835
Cu 8.876615809261589 2.592799812029838 3.6976307118185607
Cu 8.279672802891064 4.952048858428473 3.120763139398962
Cu 7.18852020825025 6.2058474118373805 4.957788666779351
Cu 7.980467995600273 6.2932868212359425 8.902791135927897
Cu 6.473836794837667 5.178121170336616 7.113522426183177
Cu 6.711435416798794 7.221184998774812 2.752347555267834
Cu 6.845082946323302 1.3381530319023947 3.984801750038703
Cu 6.973495649604454 8.508830253178191 9.362996652144608
Cu 6.7694189435457295 9.869865807810415 7.072810007037769
Cu 6.883397247747892 5.3893790061899365 1.0741736617488493
Cu 6.982022286118227 3.0295784301613673 2.1588338363641433
Cu 6.896534046205885 3.6117618473485575 4.9514732400644395
Cu 6.620324878726523 7.568943419309698 7.012459934796604
Cu 6.382675655532818 8.680211779755739 4.6633879852239275
Cu 6.209317769810146 2.7857969544432675 7.5386608800772335
Cu 6.723229904253929 4.279491861654406 9.433881855625984
Cu 4.773977898444706 8.682182937593293 8.45238617516554
Cu 5.829058668781703 4.967258658298554 3.2060535359033664
Cu 4.698319667191149 4.527098085907551 5.49226354845255
Cu 5.540922126811947 6.49436772325589 9.161026341048936
Cu 4.554914389687684 9.075496679598617 6.0717591582607975
Cu 4.8146767786182245 2.7090009441132534 3.3821289723352708
Cu 4.46874105629356 4.447227817690505 8.468929727913682
Cu 5.122318189234499 1.898032528503149 5.602680230183465
Cu 3.669657777437344 2.427074604086881 7.439903306901133
Cu 4.454187965361639 8.685522326401648 3.0879576220658134
Cu 4.865120745682892 3.979589245079956 1.2108042203888079
Cu 4.677934532767571 6.794889863556978 4.432566442672906
Cu 4.612181185811348 6.469771637893178 1.6944004415176854
Cu 4.212902764863666 6.6268547305403525 6.840874456981376
Cu 2.5884033897188745 8.676562574376586 7.533997162539676
Cu 2.889314321152755 3.0823079464013294 5.109140823556454
Cu 3.0457046846577653 6.538916330608761 8.860389421162589
Cu 2.5878372019998706 8.028156313912703 5.153286001104809
Cu 3.400852937917035 4.670800145213939 3.0783440736852494
Cu 2.615062793495211 7.00390695695395 2.966087609330857
Cu 2.461110126479542 4.539921163573542 7.192417971788546
Cu 2.404861980847093 5.607033370251591 5.031901469705021
Cu 1.388089611913537 6.718141792019291 6.943676400924312
