40
Energy = -117.98835627 eV
Cu 7.57477837425883 3.9988855068391587 2.8585279038846196
Cu 5.000094890732261 7.986611556879834 2.6328837670915024
Cu 6.171345920461823 5.972321850085589 3.2300532709745524
Cu 6.546385004859602 1.7885814646111131 2.632774205700387
Cu 5.104533417055037 3.787065027183388 3.0026524097979963
Cu 3.7406103933452908 5.83065659405902 3.0344748547809623
Cu 8.946316365121252 2.2937515259072114 1.89745733973533
Cu 9.828407031466524 3.796340790887713 3.7280677747499493
Cu 6.962751738926868 8.124315046905712 4.107603116123782
Cu 4.883983027118377 9.610379591314254 4.555456693171864
Cu 2.9914532565713845 3.7061401233011426 4.304171700029922
Cu 8.630363440631447 6.276370901885511 3.538911931889241
Cu 7.4058413556702725 5.006187003978528 5.149753529515881
Cu 2.812427274123064 8.10670376902083 3.643106772337258
Cu 4.637510071440652 7.329529343452858 5.029333044818824
Cu 4.440140977766425 1.6971763984980253 3.990399768866787
Cu 6.355756764188426 2.7688466047978677 4.9614850648026865
Cu 2.328146954259306 6.001193337664367 4.976518925383601
Cu 8.445654982499624 1.8802567809356963 4.159357758251909
Cu 4.825272940494228 4.884845496287926 5.387696092518129
Cu 2.4021990923259384 8.268707678712019 6.015024082125198
Cu 9.872277591620229 5.353753510600534 5.530316112688859
Cu 4.2924924761633525 2.6713584634376537 6.338054618042738
Cu 1.2500501719499941 6.50668471223621 7.121023836226977
Cu 8.721761651549233 3.245669270440623 6.124297573155694
Cu 4.263955618532832 9.351312293075315 6.965373358246335
Cu 2.471928379284087 4.2819909041896125 6.683128931106872
Cu 6.207583630201124 6.485784404055959 6.707672674347402
Cu 3.770616599187304 6.3684929220198825 7.1918434245013305
Cu 8.444148363653618 7.307425058061772 5.859644294180536
Cu 6.4647766189112135 3.784254993956072 7.192450625451719
Cu 6.566321681698825 8.912157735356585 6.39066739040266
Cu 2.800788659305614 8.01144262284074 8.573733830704557
Cu 8.354814239355722 5.355222858505475 7.4807042522237355
Cu 5.362707445957329 7.981954446854783 8.56649976322929
Cu 4.384795095379521 4.209213147271555 8.344633674422173
Cu 2.2668493123796782 5.361935844967751 8.927799708486141
Cu 6.367874829836736 5.596493277382964 8.970016372063712
Cu 7.7351109949640415 7.629889798921977 8.211204746209006
Cu 4.216265264402317 6.31918924026616 9.834316705409806
