46
Energy = -137.30450245 eV
Cu 4.975728162218825 2.442180390366491 9.014807080458455
Cu 4.153678109765315 1.2657068706988694 7.10438502985253
Cu 6.511287040991928 2.1818794283414222 6.922490394650498
Cu 2.703379874937023 3.0640350842364947 8.088272946939227
Cu 6.662889622468046 4.1090715346564135 8.50161812716871
Cu 5.062145565879371 1.6578159169031732 4.896306550561739
Cu 4.323256723310522 4.762162880321789 9.288375868681573
Cu 2.8225833817972306 2.5530915564429733 5.568895746447757
Cu 8.448221781473276 3.8521895435015336 6.703863686465691
Cu 4.695498618529669 3.8354791805277006 6.953432982192016
Cu 6.269177292535477 6.1539753594356705 9.894720516904377
Cu 7.945980029378703 6.05142056838021 8.005413950413946
Cu 7.205706839352389 2.9538093287457583 4.704291712881004
Cu 3.3712600973972595 2.6608387264338944 3.185770485965929
Cu 1.2619130354412174 4.136042952440142 6.424417475740318
Cu 6.710977400521412 5.22059517596902 5.823883656352263
Cu 2.47635928703938 5.580308294714943 7.954342233421858
Cu 8.960946773566432 4.609581524293164 4.280818540659586
Cu 4.87691739409147 4.046360080116741 4.531943067184314
Cu 4.097880763877789 7.327338531899064 9.26801805276596
Cu 5.726407309336728 2.682172938333853 2.687620423240203
Cu 5.429747044309825 6.342198210016486 7.617308818502573
Cu 9.333084404857484 6.229880992675303 6.081896052478319
Cu 9.24024136279186 8.104821887640433 7.679335283074149
Cu 6.839490823250291 4.776907991509918 3.0183787712914905
Cu 1.4898981531020514 6.447479226774355 5.720113978901879
Cu 6.978419242121261 8.173645470126504 8.655524224639365
Cu 2.366887545051103 4.587252670628851 4.235121014280784
Cu 3.8166095538850384 5.878493259703032 5.866479281681935
Cu 7.852101939439388 6.792801137911844 4.175066552130861
Cu 4.394455679127257 5.052850924715978 2.416988270203932
Cu 10.261053373901865 6.878198471237237 3.8805900547438696
Cu 2.9458575471099566 7.833055505064027 7.17359119420381
Cu 9.309177359658687 8.61968257383297 5.303739193934404
Cu 5.032225071374269 9.004419696699951 7.522381700200739
Cu 8.79902856286178 6.0436936977018085 2.108495946743811
Cu 6.781156403646477 7.801522534033031 6.132027943088052
Cu 7.803698231611077 9.879233333893776 6.880209998153611
Cu 3.062908652673422 6.866884596215084 3.7246908772729883
Cu 5.412246888037484 6.536557997320923 4.128697905966398
Cu 6.535631323993757 7.024638666914604 2.04331782385724
Cu 4.318943451187696 8.400171485721906 5.2580490991330295
Cu 8.61401435263094 8.595568103843691 2.823211916914922
Cu 7.9823574147589 10.419973090208506 4.4668141472674225
Cu 5.793114641115069 10.337130282693193 5.601956148425571
Cu 6.329422972679614 8.804588547227278 3.765466317420519
