42
Energy = -123.60067933 eV
Cu 10.669144139845871 8.23305322900283 8.07159489303732
Cu 8.31468463675072 8.643863160725665 7.726487146035933
Cu 3.4068418595876215 8.19608899602546 7.647649548813992
Cu 9.010320666393723 7.052087166948963 9.443499428600047
Cu 9.74746359646044 7.989722889271125 5.779627114616589
Cu 5.757363002895172 8.78243107143157 6.82647818111362
Cu 4.302866257380007 6.658053271893517 9.38136897558162
Cu 7.808389342461197 9.479312204098255 5.473227466355606
Cu 6.650317174846605 7.0558335918140775 8.706280695252543
Cu 3.8403665292364573 8.02906963633135 5.298567008453026
Cu 9.687477909953559 6.132794786487108 7.308363023782004
Cu 2.412445282402377 6.203835210390221 6.386468414701847
Cu 5.825396932867173 8.892504092263483 4.247997971774591
Cu 7.363713411607194 7.051380694702713 6.175752663169184
Cu 8.025725235912985 4.9684605455562405 8.633278364417574
Cu 1.906787186836669 6.653568480775104 8.770023018990312
Cu 4.993144132192707 6.451961802576315 6.976323283003768
Cu 5.674551881836444 4.713332446610068 8.72027242422167
Cu 7.689129383790246 9.706945559196793 2.96613073428983
Cu 8.183436068926753 7.589631987257282 3.9159916883003163
Cu 8.9491837349166 3.8449551847935197 6.6813005559247465
Cu 6.479068214754437 7.591703352575054 2.237612282349945
Cu 3.31550503524219 4.777073618634414 8.249556987282942
Cu 5.610795414588048 6.382564898487677 4.493822034362365
Cu 8.992995446231372 5.596585572269795 4.998367023514745
Cu 4.106964144642454 7.845264401552282 2.7759476487002672
Cu 7.0547650385575436 2.82679998540103 7.92458681815948
Cu 3.0752321936533527 6.100452145371722 4.003788382147946
Cu 7.385803537044226 5.403118008559538 3.067950776231644
Cu 4.634951251061954 2.8137426950979965 7.436698481282787
Cu 6.652826621503231 4.665970762278837 6.196392063381582
Cu 8.003843361219266 3.4416077290234797 4.449218037428749
Cu 1.8337966282896494 4.166037978376021 4.648228974677663
Cu 5.035002408802984 5.614137647850662 2.1747750597098605
Cu 5.905012196693756 0.7567749258235376 7.494217512705576
Cu 2.3519424681909995 3.2131447386347323 6.7391330142819
Cu 2.699540997673288 6.002866237020486 1.660273383669938
Cu 5.658022863883866 3.809415563842102 3.8024445308171733
Cu 6.17516379241073 2.262720905567376 5.637571614505482
Cu 3.386292573990141 3.9337920634209276 2.8522239720577036
Cu 4.144452595187306 4.572713037855972 5.685849384914388
Cu 3.7799057116469528 2.3952585865743794 4.835290279749829
