45
Energy = -132.78804892 eV
Cu 2.1966869502125377 5.299834349326229 2.0230664648359507
Cu 2.5100622567136757 4.977429054871905 4.390145136634129
Cu 4.036409896756765 3.8377778177821082 2.8225996509525033
Cu 3.013702351671474 4.497605600425605 6.722656476216801
Cu 1.9465787803238026 7.227632745655639 3.6279198720434653
Cu 3.2939127237858252 2.7432134242086925 4.83783285149673
Cu 4.148674603987849 6.285228323934454 3.004164638787674
Cu 2.3734285378147546 6.78850555760435 6.055415687921199
Cu 3.4456754738797053 6.349813229984445 8.260882652850558
Cu 5.78843861392429 2.601576253754044 4.14120043193629
Cu 4.809564134674962 5.829081385122052 5.514168751801627
Cu 1.9157630640986183 9.127120557570839 5.23408276462773
Cu 5.688807044802765 5.102706547973954 7.725616217745655
Cu 3.1360446881997603 8.750465481707502 7.306082037781763
Cu 3.987134869427635 8.101084795863285 4.700115332892807
Cu 4.967418749971677 3.1923072162484236 6.40786930184907
Cu 6.171413048758509 4.911330866257235 3.220456703222056
Cu 4.1443460330016295 8.432662183820042 9.49418291483786
Cu 5.475379885058609 6.422344112545386 9.788085916266384
Cu 5.349488651718518 7.576368894964367 7.484654186871497
Cu 7.957213750601259 1.3083325480015096 4.289130669609144
Cu 6.0544235058906954 2.835987515624097 8.564033596290312
Cu 7.02914353067389 1.9956311021142168 6.416142024057335
Cu 10.182150516277508 2.150274459125622 3.6838619705870617
Cu 6.970438803759119 4.37072047824042 5.492961561798183
Cu 4.063508644981618 10.396868860941698 5.764412906075821
Cu 7.148814857340505 6.730459965827284 6.127122492418028
Cu 7.12974155208192 4.6403879776432575 9.854996934480283
Cu 5.2551107012225575 9.972427373900263 7.890739948766345
Cu 8.000710551087675 3.9442950359911997 7.709136196499901
Cu 6.210566294103065 7.263032904374439 3.8508281900958505
Cu 8.18656702787686 3.5495298680464566 3.4245168338366807
Cu 6.642225970077215 8.546614512193232 9.468975418969773
Cu 7.852535540244552 6.5630998777290825 8.446678972877804
Cu 8.33560243417807 5.999612590455341 3.9264733159770255
Cu 6.053542404131811 9.022360310037014 5.465099967371726
Cu 9.156671018944442 2.9632340010906404 5.700801767422166
Cu 7.579507060328954 9.063763036083467 7.289289813584481
Cu 9.29411467423827 5.36463078381373 6.2776415508038
Cu 7.657232329680567 6.832104081483369 10.854660625153382
Cu 9.489922066208033 7.65916013529001 6.948691677368708
Cu 10.324520727088984 4.551675927418588 4.1698891018237045
Cu 8.359634588271847 8.392830089033886 4.853410026234597
Cu 10.410095003323491 6.94481449385232 4.793216099602652
Cu 6.528801755768591 11.155789339233507 6.247816013888147
