46
Energy = -136.75400467 eV
Cu 6.8897881201730335 5.102363948828368 3.8622773071241165
Cu 4.818714611375758 4.963240881829202 2.6259451756876224
Cu 3.2212779994023024 2.600271870176146 3.732084775169815
Cu 8.40387174329139 5.178847534477336 5.824594178594767
Cu 5.9707668986234 2.7804899138351016 3.428028833010824
Cu 6.579749580999963 1.343221815681688 1.5429603965874197
Cu 2.9857257076089816 4.0905347749230945 8.523179008005359
Cu 4.915875362236389 7.446673297110725 6.898276932427834
Cu 3.6355884176973152 5.301192934214496 6.583340685077778
Cu 7.333750249651068 4.24204573172194 7.9193221220327805
Cu 4.945138670825689 1.5940486801548575 5.365862579584459
Cu 2.908178380938605 2.8275506806699693 6.268616548002713
Cu 0.5616893396474798 6.167922682645078 4.742814949993509
Cu 0.9675981853269844 5.732936658379973 2.22398646855708
Cu 2.315493949209293 7.429721794216266 3.531434565480976
Cu 4.675061025271257 4.022003639885108 4.922550962983574
Cu 5.1615825760881116 5.44024945462023 8.57676237648454
Cu 4.527712714760959 4.739599255122509 0.15824241927470922
Cu 5.110425139881454 3.2598521941340346 7.304314829906174
Cu 7.054568951244612 3.0131516695284852 5.661604256321498
Cu 6.729518827787131 3.895938936432554 1.4071045072357822
Cu 7.007585441803875 0.8401709172837513 4.1265237722980235
Cu 2.2486298952742336 1.5142490168172902 1.8502351727498767
Cu 2.056960105801187 5.174980611349233 8.850068223317063
Cu 7.2440978775785885 6.7482786840278575 7.696504307361997
Cu 5.606550838715939 2.523358370545635 8.576762376484538
Cu 4.518754793266183 2.6643507943638935 1.5482246756094546
Cu 1.2745135840609478 5.406173805309744 7.127877791133465
Cu 3.0857645190627045 2.8485484815895767 8.590353414476324
Cu 1.6888764865098307 0.8960947284618032 8.717592700948233
Cu 4.06522325082135 0.6446110107946996 0.401545496452145
Cu 4.622134481037723 0.6665694631632795 2.9836458774759094
Cu 3.00959334219042 6.687344904104965 8.411217471211213
Cu 2.5971650888486715 5.090477363697493 4.123816725564397
Cu 8.285479949753068 3.0648359011159862 3.4656154211243257
Cu 0.8188455385150741 3.106523840912022 0.5002975750263748
Cu 2.6448318272191846 4.0999150589855 1.7528719977437965
Cu 4.613567267781838 6.601521844045911 4.499411384109289
Cu 6.074747061066337 5.346755214018876 6.245380771651701
Cu 1.3481033850177744 1.572139067472795 4.815349723620417
Cu 3.277817873501538 6.4610439790499115 1.516487031683349
Cu 0.9352401697607247 2.9716766248896427 7.627993333309956
Cu 2.502368288032894 7.281133689599012 5.936541110953947
Cu 0.8089650952685798 3.290473546017711 3.04838717829711
Cu 0.7678329791624183 3.826836340431483 5.389011494131195
Cu 6.953982478963774 7.26978646442042 5.251229788759958
