47
Energy = -139.89048042 eV
Cu 2.704119170522908 5.112514996851967 3.2579494706265812
Cu 6.9225278131326755 4.978058511814161 3.5005551408622844
Cu 5.806123235038535 1.4321127941323373 3.9781923661444147
Cu 5.2985357421482515 4.824000763982307 9.137284483111644
Cu 1.0825200251968392 5.0637015270350725 1.4565352385760602
Cu 4.505913301276064 2.282746192924805 9.246221529503892
Cu 5.007154695451514 5.694087681552822 2.079837653494386
Cu 5.8231993313086745 3.4483783404689117 1.6597098545754287
Cu 6.773647805912806 3.389873994805533 7.570930460562281
Cu 4.3884676689689455 0.3478885916192907 5.860657139027877
Cu 5.890093248279821 0.9204149325435625 1.5504547720101407
Cu 4.418705185425312 8.193218672082727 7.874547725592472
Cu 3.3197542548759587 4.126112516752237 1.0595313023470403
Cu 4.403436227396214 4.030238278610824 8.06414792879059
Cu 1.10612402515935 3.521909818946412 5.4442348441675
Cu 3.317478008121434 4.260136150272514 5.582282369194249
Cu 1.8806860925736202 0.6016853253492751 2.6466793015041605
Cu 3.810635482218668 2.0499694217536963 2.3424494066342407
Cu 5.848199140660998 7.512008509177394 5.937813736725022
Cu 1.7342291668720398 6.201522119928968 5.4171546350653434
Cu 5.232033392170123 7.661478879989967 0.859428613843213
Cu 1.514663185471784 7.173491761356169 3.0749433733336087
Cu 3.6048350537724794 0.13344310888989755 0.9016002410221955
Cu 4.10377175401141 9.20105517293943 3.3612730526376478
Cu 2.9819309763343202 6.600847615388258 1.0574062656599255
Cu 2.0123893493905745 4.8234707864640685 7.58616074282028
Cu 2.9287365982760427 1.8832917718328814 4.619048471884433
Cu 7.334901933650558 3.083047964288307 5.024791981049913
Cu 5.057483380065215 2.66738451242976 5.98253340018408
Cu 7.658844677407798 2.4034036402464376 2.6583950744398672
Cu 2.0585772239674074 2.0961886899583404 0.6267225784659891
Cu 1.4572189511250313 3.0261967237272924 2.87850046735436
Cu 3.361296842122321 8.143109353620009 5.421491583713016
Cu 4.506396669868114 6.180926326978053 4.4424367374061235
Cu 2.8175775233955744 2.3584901061629138 7.053503069820898
Cu 6.948496475483953 2.42418856127632 9.252364963126265
Cu 5.013805891630099 1.5395153547425258 8.043314452213492
Cu 4.803902887587945 3.7744683754611157 3.7905880927504043
Cu 5.970466384977142 5.999250912081796 8.131971294993283
Cu 2.0431984451722145 7.403762617201711 7.556364220075181
Cu 0.2762659257140855 5.1122140687999975 3.755771056683276
Cu 3.944067777405135 6.184783499131988 6.804257669501468
Cu 3.8389501545587845 7.941155146937955 2.913914190531023
Cu 6.210708968032635 7.469440466777413 3.356071696007417
Cu 6.770471479985832 1.0621086584189934 6.324011195441262
Cu 3.5980349321194165 6.157291694936335 9.137284483111644
Cu 6.044257773621719 4.994426179341265 5.91604648764602
