42
Energy = -124.31570276 eV
Cu 7.730825171952114 0.8317191368844732 4.71904397737217
Cu 6.887476779251238 2.291399105028148 2.948396050523659
Cu 6.111442220318772 3.798527355572646 1.1571789485491424
Cu 5.766923557381811 2.253673233365762 5.127417856321519
Cu 6.707556134963282 6.149462521728965 1.2462462245431076
Cu 8.08030309144517 3.211521946941452 4.957044789892037
Cu 4.927766300302889 3.7954343890541504 3.26520596544675
Cu 7.427512219954725 4.669172180265927 3.066534851082836
Cu 7.39197265313543 1.8612786998387911 6.94033855625282
Cu 3.093646730412023 5.461168437581715 3.708780212607591
Cu 4.375095728656475 5.571274231169624 1.5617753566610588
Cu 3.8215724308928016 3.763744561718235 5.480806914677237
Cu 6.130751771174402 4.726727265606547 5.345425438407646
Cu 5.3686925866277315 8.045231102064182 1.9663810969210778
Cu 5.466572095151596 6.338451816060115 3.5547976791705955
Cu 5.432778216873683 3.2995091243832126 7.382515726051317
Cu 7.852922278851984 4.30029954018168 7.190790880311344
Cu 8.417974623769004 5.714916362729985 5.1309469318123835
Cu 7.821146356588776 7.134283988260195 3.200895333667791
Cu 1.940593032219499 5.222924935752065 5.943395547410515
Cu 7.123581353879224 2.934311788075469 9.126967180717832
Cu 5.1802586090750795 4.425137138773207 9.580680884348505
Cu 5.8073346109132284 5.859801091591886 7.582522187621707
Cu 4.1529248962808705 6.321102017175199 5.747387018111164
Cu 6.844162392932749 4.035631886051963 11.30985683602883
Cu 8.589332666257121 8.239218045912674 5.301741079109241
Cu 6.601586582636261 9.125774622925215 3.814589780429253
Cu 6.393262458270533 7.338694596889039 5.603518289881207
Cu 7.494338367837211 5.376787889829827 9.391607364830193
Cu 8.128875920176185 6.7894656670992575 7.364343444672687
Cu 4.273057287987906 8.398901215405722 4.203340711982176
Cu 3.522842621987745 4.85054086794947 7.770860079564572
Cu 2.1057045582197462 7.438795007675082 4.940674020047778
Cu 4.204226589511656 6.725968090598493 9.305767652123913
Cu 5.896039761602978 6.2678963866776645 11.046364602801752
Cu 4.8431634508064025 8.269340937464133 7.477810629918629
Cu 7.788555964780617 10.547063041455937 5.368249724416062
Cu 6.555585667926969 7.682653254222812 9.14938942815902
Cu 7.221269775820891 9.101685437708221 7.239595706023752
Cu 5.416068090874453 9.966999453431532 5.783576650010358
Cu 2.5795664794104614 7.169553777505218 7.428488562897171
Cu 3.1029583258190594 9.267381724390543 6.164262085281942
