47
Energy = -140.14630595 eV
Cu 6.768809827378537 8.036721188156125 1.1630609553942926
Cu 4.586318309095508 7.5851852849068395 2.2345313838344363
Cu 3.7810072663575927 5.25690525366637 2.231519325115219
Cu 6.2978708524977165 5.80436897029198 1.8930125854416886
Cu 2.1939120811583566 7.233333419590324 2.4002556972320788
Cu 8.317511332870406 9.239580711456835 2.5523668953061533
Cu 5.6892405204890375 3.6284027970362533 2.7520964777751566
Cu 5.678209860318657 9.806598276134773 2.5237061743866467
Cu 8.462774108100248 6.7878817585788624 2.558016437890812
Cu 7.682298013970223 4.663755200333222 3.6202934097761013
Cu 3.5906585043387884 3.5015947978838677 3.9650219762046075
Cu 5.089805294128289 1.5764206833314272 3.840120137671356
Cu 4.918304330481276 9.364134305455003 4.864396004289712
Cu 2.0147708424169863 5.38992633699453 3.9764231145329987
Cu 6.590475395713772 7.895373025350937 3.75940865393415
Cu 7.400951815523469 2.329210593863865 4.605635545791374
Cu 5.221961827073325 5.869930245602647 4.097914716524528
Cu 7.203548322476647 6.241653544361727 5.565478692525357
Cu 3.255847592852039 9.393037611703724 3.055035048028002
Cu 7.211995752049824 10.277717555946367 4.421031123574147
Cu 9.62318238083684 5.879355389832835 4.498429401012153
Cu 8.864288808997633 8.171115352665108 4.70819258696241
Cu 3.202422013765878 1.5044763112100574 5.392764698018616
Cu 5.7998755067257735 3.8608974432904897 5.337587283092267
Cu 1.7568910699037406 3.528282345649922 5.565088899618788
Cu 3.2359476836574674 7.449860866027246 4.618304043995554
Cu 5.640645274596719 1.1876553336395694 6.1193752828462395
Cu 6.995122469411167 8.742979386625715 6.20501129236964
Cu 8.553381256864336 4.197859716413366 5.904777618052813
Cu 3.596830303815065 5.171813073085992 5.84225826711536
Cu 4.280526987275016 3.0542298968235118 7.121704044694876
Cu 1.887813822808419 2.059928240285174 7.477276755753391
Cu 5.616432451510843 5.223765565356186 7.406161872289128
Cu 5.021207895671188 7.3403991025491155 6.240135300200907
Cu 9.192088692512566 6.63391053069871 6.792385415656606
Cu 3.7560513106402245 0.5989433496136489 7.589625349130769
Cu 7.075826661232353 2.798969034684791 7.217000549001513
Cu 2.240034279347026 4.411619604942681 7.83025226076235
Cu 2.9057596598793123 6.762641538975482 7.451796282875328
Cu 5.745189006878541 1.3156480263147659 8.62495782489068
Cu 7.11419556443466 7.1839753443939 7.983272571827195
Cu 7.941904310508076 4.900986518715827 8.192304225966472
Cu 3.9836918966085295 5.180088946657642 9.260236355087207
Cu 3.5522040415242917 2.6379264612184024 9.315455540642136
Cu 5.905888399094999 3.593176793680515 9.253754771955945
Cu 4.835574917612195 7.4411380993444345 8.708115963573276
Cu 6.319482986690519 5.88535766875401 9.863182689473785
