48
Energy = -142.98566525 eV
Cu 10.444181063471037 7.737825282290119 7.4190613488136705
Cu 10.17174211945657 7.5401086577826195 4.880909750276775
Cu 9.986484568441371 5.124427432932037 4.059573567879866
Cu 9.964707460938312 5.552931361935288 6.526109163553452
Cu 8.416100862685427 8.76276789239117 8.397634771933353
Cu 9.267498216324572 9.53563722417244 6.215200195960118
Cu 8.592469450265513 6.2687323121236 8.585829657112848
Cu 9.567639761709499 3.292401206732304 5.930923399590622
Cu 8.713576705567371 2.9532601855002816 3.7856185010425927
Cu 8.287370176049494 7.318383229809844 6.3469681576107
Cu 8.336055571472741 6.925349745395736 3.3811032751045516
Cu 8.262410509644505 4.7271803959906045 2.272272200655304
Cu 8.05403876521218 4.083101687950638 7.608792824435103
Cu 6.449638483263309 7.470765821008966 9.033119184433017
Cu 7.703940609783256 8.976110474707669 4.47482412516093
Cu 7.781942390034848 5.041863545255552 5.163358539400467
Cu 6.652251749244322 9.127998911347907 6.72806877849221
Cu 5.605783448282821 3.5178355591357664 7.5965945701020665
Cu 7.094931080760798 2.683423028142412 5.768835434620047
Cu 6.412354287137235 5.921010284875274 7.206244849826661
Cu 6.551904887688613 4.948026496307754 9.399599614861788
Cu 6.357439932090962 3.2611954291548506 3.4919187812390606
Cu 6.175034162134065 7.161111287153288 5.160618418095984
Cu 6.1839948149338575 5.661750835656478 3.226382564565698
Cu 7.0684190976506365 6.635110530928611 1.2135414054985598
Cu 3.657671566347412 3.4969696558041963 9.125557145987328
Cu 5.219939897759654 4.860143199653627 5.34221365098145
Cu 4.691834361625667 2.536973830483212 5.128761427950995
Cu 4.629316483739856 8.369357174949428 7.762232715746901
Cu 5.9562860382825376 4.316198576574084 1.281221766252502
Cu 3.8120068380077132 1.8288188821285793 7.2245178317299334
Cu 4.046842958002541 6.7546472344269155 3.827523866175393
Cu 4.365945548083379 5.783414616104112 8.58680428299752
Cu 4.527290040543725 8.90047617334441 5.225511555145609
Cu 3.706098141155534 6.682898309274228 6.290283176506418
Cu 3.316676110334246 4.236235100807996 6.789186529952961
Cu 5.954552516007576 8.103171869013188 2.916321701964076
Cu 4.050851371963212 4.273911122248913 3.242755307911688
Cu 4.600306002664522 6.3748070771088585 1.5194289291047023
Cu 2.487185210403839 8.880318698462995 6.676169552565419
Cu 1.6581696948098683 2.706448771206753 7.7974650805152255
Cu 2.2513960122321683 2.8109037115055377 5.201311993209846
Cu 1.7753072266571985 5.0712710469086915 8.486493567152646
Cu 2.2510727479761705 5.273788311996685 4.701326012804092
Cu 2.5250177929340025 7.377299606083828 8.568909591797139
Cu 2.043804206929248 7.742477141833628 4.613471060298698
Cu 1.2190968950029197 6.67218737011241 6.639714890481698
Cu 0.6884004881818104 4.346915695180954 6.332820640829746
