48
Energy = -142.52585958 eV
Cu 4.617498134618277 6.497000202586499 5.72213314431903
Cu 2.283295875518381 4.076859444769789 2.926228334522123
Cu 8.282512211263924 4.070412623236409 1.849959570144624
Cu 2.2584418346304984 6.090027484048823 4.855698609361919
Cu 4.357500264384405 1.885102026981557 6.205257342906964
Cu 0.191669376186609 7.349799850259098 1.6836663099628415
Cu 8.281178580009923 6.136980273127294 3.4019020983983306
Cu 4.557998634634255 2.357221177623814 8.67610089823249
Cu 2.779406691672241 1.6391937182865977 3.478584152944962
Cu 3.710788673287044 8.072305322427189 3.947944987169488
Cu 1.8522319622423904 1.8619552950361946 5.637075137530304
Cu 3.512666270183192 9.941625873248602 5.478921630103969
Cu 2.716426755211078 0.8664691182973198 7.688547088680107
Cu 0.9483507085824067 7.941856126227028 4.007210172477251
Cu 3.7652855148430038 5.114336051674609 1.039864900521144
Cu 5.890003555257933 3.713964211222615 0.9911366842898313
Cu 9.163983276043293 1.7875796383412599 3.066624514432325
Cu 6.864196184495257 2.255695596921116 2.773635493520965
Cu 1.0898524566723262 4.200696118154392 5.699997788992615
Cu 6.036802371034154 3.220821863928149 5.114054954856349
Cu 1.0170139561013756 5.069551812567019 1.0424442945878685
Cu 5.0770742046914235 0.9372821366186559 3.8478251110082495
Cu 2.2535287811226996 9.941625873248602 4.322035900432633
Cu 2.7918566569721235 5.716570942067588 7.162440028240154
Cu 2.634327070598487 3.3310708709051084 7.465855037409328
Cu 4.979645620077458 0.08519615019465543 7.774132575389614
Cu 0.4916589218162238 2.8092549463463516 3.814400889015551
Cu 7.3225729553995835 10.072998208932098 3.449821584338813
Cu 6.056266358855889 7.238887129405424 3.631112484817974
Cu 8.432583865576428 3.794432097131086 4.336204661407157
Cu 5.094161539122388 4.328734315415748 7.114698613063267
Cu 6.160059749423932 10.060842060394256 5.707813729931914
Cu 6.57294541283138 1.9841318132034163 7.19894367856781
Cu 4.264279241910389 5.6562910892916705 3.405829040298888
Cu 4.871723435749494 1.4542573490831427 1.4671233500005119
Cu 2.218106368635889 8.896884144883838 2.0614589689235885
Cu 4.541853756889333 3.238537924232011 2.971212412199845
Cu 4.378917717836757 7.547388981938881 1.6431829394952553
Cu 2.2351834230842913 6.51230744911842 2.466980718196165
Cu 0.268010181548167 5.401000732355654 3.492584329873807
Cu 2.5556043045976766 8.10986688471472 6.0671483432011595
Cu 3.750076947874092 4.6385814225149655 9.153637046711792
Cu 6.306840709378629 6.108137750126723 1.3809825867030696
Cu 7.891118064050564 1.5595307711537958 5.136732015094295
Cu 3.555278367487378 3.9515158353086672 5.15984500331624
Cu 2.3269933197235217 7.136926488723745 0.21899436263483482
Cu 6.859376510780609 5.498811435042173 5.52622089468406
Cu 6.458331970542635 4.696499393932919 3.2612743305374923
