43
Energy = -127.9398882 eV
Cu 3.4581148292505635 3.3199195868587648 9.389924320747271
Cu 5.433768800947928 4.620407733016925 8.715299719841674
Cu 5.671314606436854 2.221757773675605 9.13557306878632
Cu 3.1493821326578213 5.546952069187391 8.315311889330474
Cu 4.389125433289275 2.900005993096162 7.176613393988544
Cu 2.0509705825691364 3.6000122862240285 7.390534308592308
Cu 7.464973999700513 6.024630596943054 8.624335522703396
Cu 5.156260506750843 7.016425412779157 8.331820687043509
Cu 6.78809495406426 2.132109012352912 6.936451389198496
Cu 7.69474974964055 3.526140953661471 8.774058104599238
Cu 9.454918788069618 7.420593180180307 8.548886172905185
Cu 4.543316917435475 5.411969971297791 6.299200730705127
Cu 7.215935070018267 8.457564431625979 8.39897583549611
Cu 3.2614581988561273 7.610817116277 6.890000580069533
Cu 9.662451911067073 4.960994964292237 8.632569978442243
Cu 7.83486638396169 2.4445249084436123 4.7089136908085605
Cu 2.048286427171505 5.635284957449873 6.002837359527954
Cu 6.844049632603895 4.533847696404003 6.558002647316942
Cu 3.0795583274070144 3.5358670441525164 5.186195493489566
Cu 5.472793180122464 3.0563926867374596 5.018903783857829
Cu 9.030359005327979 3.487685332033228 6.711823236664534
Cu 3.4376334905318773 5.6028305084236605 3.9182557484393903
Cu 6.6476609882580675 7.01194438658754 6.352333785624466
Cu 9.046897520839915 6.041809084053147 6.562951924613153
Cu 5.301105334643427 9.111971730823981 6.957665008825742
Cu 4.191573735128672 3.5089672376774064 2.999683388470952
Cu 8.517900681423773 4.716166537646529 4.580061363509331
Cu 4.7166039851133075 7.609914869889954 4.898173780105971
Cu 7.335385864940699 10.469781738856911 6.930495215690064
Cu 3.4199086003011256 9.657240799862615 5.397829823576048
Cu 6.070080629674176 5.539165578700831 4.3550100910586265
Cu 8.712734101154192 8.48933417028428 6.458397729920304
Cu 6.585060937673916 3.5423262353383786 2.84243437299386
Cu 2.263259816474349 7.669212040563764 4.579520274471669
Cu 8.9364308707809 3.418119891199731 2.6109608249895873
Cu 5.450863026648534 11.057956380747141 5.448461789051295
Cu 8.22284013572277 7.12328150155387 4.422846455773465
Cu 6.892527313195179 9.156729041347532 4.905142409184186
Cu 3.845113288720957 7.620426736650215 2.59194831808993
Cu 7.730245712529029 5.646540409032639 2.4504143692884193
Cu 5.202611742901282 5.55250986231892 2.06958148715151
Cu 4.918767704240393 9.65644325642404 3.4996783765453263
Cu 6.325824223469176 7.634210119978556 2.9570976347583406
