49
Energy = -145.27007737 eV
Cu 7.615352266343213 4.362926095941933 4.472884160213671
Cu 8.376813301641585 9.993323158098883 2.7824151493841556
Cu 8.926698538866354 6.491917077837786 4.012355336418652
Cu 6.540147151367198 10.61443717574553 4.384928137238619
Cu 10.191427125085294 8.857798410246858 3.9543612775523087
Cu 6.606708775155157 6.454359029470203 5.066740221865329
Cu 8.894791409361902 10.923153487018253 4.931979869703766
Cu 9.083370559327872 5.2703315790032255 6.108853824410352
Cu 7.877075505707315 8.55903655746642 4.660453776890392
Cu 10.81135984956177 10.019228235661616 6.089283149787796
Cu 12.231408031646204 8.248282721101063 5.217816775245855
Cu 10.108984336188321 7.525128132017234 5.973585290243863
Cu 7.336319883078275 9.895763138573924 6.72030528368269
Cu 6.813376084466441 4.909039049872554 6.939439496794523
Cu 5.577511213918332 8.617767563333054 5.707844113614488
Cu 7.20872359537554 12.26501175263338 6.181862411669527
Cu 7.903978381444598 7.36267840979466 6.907991645350165
Cu 11.381682896685952 10.838882318948448 8.334841386098335
Cu 9.300537040245102 9.304596649811009 8.028949386893153
Cu 11.67323553385885 8.355323787847171 7.679085449926523
Cu 5.466128711009817 6.957514439678325 7.453451071184951
Cu 5.143514339486102 10.975400110314116 6.359743638421124
Cu 5.155594245256097 9.418086261800424 8.148821385602282
Cu 10.969514544481815 5.854112825242006 7.645878691409638
Cu 9.224006862318394 11.586528664236207 7.327383802783999
Cu 7.123788233942346 8.31689821729116 8.93455595880895
Cu 11.65067650225151 11.339122812834919 10.789405803327723
Cu 7.168950025042322 10.950393210260454 8.87567000816545
Cu 12.17094895218391 6.973444217506416 9.542459651929443
Cu 9.44635535649367 11.158843323640687 9.814506183118398
Cu 9.532113947894402 7.167768348583845 9.049909277174773
Cu 6.546127233653832 5.775782420893109 9.310073952682739
Cu 8.718878217805486 4.923401358516962 8.49003811309674
Cu 4.839858174972551 7.603536679953183 9.784949599885538
Cu 11.055444272304907 9.144747483469631 10.013913758167336
Cu 8.475497978399984 5.691356520578735 10.8870241015417
Cu 10.678829356317912 5.113552202283972 10.049056517465672
Cu 8.649212388780594 8.798253817301122 10.687663975341174
Cu 5.848957285731764 9.728856240515315 10.577971164937786
Cu 4.980884989159077 5.846410889939011 11.393814798310412
Cu 9.848389379930845 10.213070586632872 12.103847000229198
Cu 10.562564033188723 7.228672172245423 11.389126815916391
Cu 8.69394774610642 7.200713515804342 12.856672981433482
Cu 10.13878951065372 5.194561632292843 12.556566316036683
Cu 6.790232070104797 7.32669158534341 11.285596061782169
Cu 5.559978691616178 10.697942085721738 12.788256255578329
Cu 7.593402832552873 11.202118934796193 11.399592943652813
Cu 7.376897368278584 9.213552922477874 12.780888710260214
Cu 4.905292098013509 8.303959016679265 12.32146214602729
