48
Energy = -142.17129939 eV
Cu 6.03704150370139 9.627642766723811 5.26901082058769
Cu 6.243855620646618 3.3574327021090404 5.3213911234290405
Cu 0.7507683072679369 5.946709110194895 6.2355125884562375
Cu 6.044250003773404 7.118468177400997 9.392650497863947
Cu 2.3160175945523456 5.292350883829125 4.564125802452968
Cu 6.679500413384452 9.627642766723811 4.4918146073659795
Cu 6.277346187597933 4.5633738560802914 1.8060693005851938
Cu 4.659366415644527 9.489577936829425 5.9216233222932795
Cu 6.533484367753339 1.1300963724697406 6.714455609308428
Cu 5.314382300764113 2.6470637688352268 3.120053494035623
Cu 4.683945832811281 1.2190853720975334 5.179089039675896
Cu 9.964874487002286 6.102361230244292 8.841359212991
Cu 2.7371916918966592 9.184677632065249 7.451667676723178
Cu 5.345088360796275 7.46361318298615 4.576588647808007
Cu 4.553569269949483 9.286774500358606 3.304321518392793
Cu 7.029585573335587 3.2667670905684196 7.736021868703555
Cu 8.055616850589436 7.535428741600736 8.006653338986558
Cu 3.2236282424040663 7.209707430347962 3.33837824900102
Cu 8.50788614324209 2.4738538877427407 5.819094607626271
Cu 4.6367861001071935 2.976376754415226 7.091813193220755
Cu 2.8696916258015825 4.9293137231871045 7.135061971173422
Cu 7.6858307864403175 5.311220539862293 8.952044356376096
Cu 7.445819816945867 7.7453748394085205 3.032551349089868
Cu 9.479126309689192 6.91442294997007 4.097455163021376
Cu 3.009116839972425 7.201385883143242 6.013492263428621
Cu 3.7856518593620536 7.012777860914983 8.461434662071433
Cu 3.5853733599506232 3.315188106953631 4.922831868358935
Cu 1.4375320282744593 7.141902466881835 8.186835688642292
Cu 7.069321352631583 1.1473047873506435 4.319221376337896
Cu 5.361644392698201 6.9105205332035355 2.152704291756572
Cu 0.7365497591331926 8.496331050719542 6.29409863276901
Cu 4.35679534427755 4.948622950668533 3.2309484191005673
Cu 4.772730271216634 5.355106401873226 5.712382816933953
Cu 5.274093826597009 0.16590495908974612 3.100738336291638
Cu 7.261592671764121 5.413997940508425 6.471485350912
Cu 6.919257391407222 9.516770993491214 6.95358619470434
Cu 2.515864672048431 9.262136111569703 4.7880267979267455
Cu 9.643741903506065 6.440326386306361 6.4888284093777076
Cu 9.35166748987499 4.19968532683744 7.371744918003525
Cu 8.546986247309409 5.43467308768286 2.4422006201700035
Cu 7.749395400279848 7.714938464784583 5.53200908899208
Cu 7.803887650873258 3.2530691883041474 3.349910055709501
Cu 9.121854963300766 4.631887555078469 4.860348863544369
Cu 5.706267841949987 7.369756947016635 7.000312660225779
Cu 4.954462300052775 9.217535084321321 8.450809544477835
Cu 5.313166806978269 5.075051410326561 8.176055529274313
Cu 6.760552553947373 5.494963567394838 4.024316475082732
Cu 0.9668399185359081 7.339610786333869 4.21849028074427
