45
Energy = -133.46914294 eV
Cu 9.782378911719677 6.087439053315443 4.8953837308242
Cu 10.662524870107493 3.943154099861199 5.7990483474458525
Cu 9.380135214082973 3.2370325693524262 7.714198451506705
Cu 8.558232790347644 8.225751010958462 4.385476054017884
Cu 10.123208941612742 5.658550766168813 7.503038361868066
Cu 8.563901306917666 7.382129037523809 6.71644018089621
Cu 8.487063609835245 2.406658405731137 5.441025369280473
Cu 8.151316872314057 9.798346137739545 6.233035376177938
Cu 9.56852877689232 3.9314016066021438 3.701887725188862
Cu 8.988230936916803 7.235939985942499 9.125416580871146
Cu 7.236999569504184 8.73672922213824 8.275640365333272
Cu 8.293107266057921 5.924104410513128 2.885724324817339
Cu 6.762401044310667 9.991554815918375 4.152902199605797
Cu 7.977243744493062 5.109848154582356 8.631376577806535
Cu 7.127313916061121 6.338999718029953 4.884536225918673
Cu 8.239190703773753 4.706228269415624 6.187015069561214
Cu 6.9279118252821235 3.0673697943275506 7.440576678565582
Cu 6.508756298421789 6.835057441752613 9.660212484052876
Cu 6.2440841782282295 6.408920989341124 7.220395453689278
Cu 6.565001349969542 7.83851780610704 3.0073857397882486
Cu 6.073046519561956 8.556636917236842 6.039687617534076
Cu 7.180865301630407 3.8306680853345174 3.8976508646926824
Cu 5.829151935843118 5.51389079738993 2.7249901363935636
Cu 5.39181666277515 9.720259042963118 2.0902489364067547
Cu 4.466193283699347 8.995157521653011 4.178764141032724
Cu 5.626247673999505 4.52502147397111 5.7879755275053055
Cu 5.95415849516085 2.1556899479466587 5.339712832024574
Cu 5.604070412685589 4.6351300806053555 8.85291565138632
Cu 4.761815556098683 6.581490600739814 4.741078372164002
Cu 4.888350628529539 8.195632473682302 8.31724931081817
Cu 4.449663551546758 3.0490070421739897 7.321831307008856
Cu 4.762829402803136 3.501095226016668 3.635988166671784
Cu 3.3809228783319045 5.281467820729248 2.6880036362584105
Cu 4.27574926455017 7.483017053281217 2.275662011588799
Cu 3.826847962808575 5.721724339488355 7.330162956295041
Cu 3.5937447890425616 8.083298951716664 6.255181424502423
Cu 4.022560487450078 6.385939709269874 9.710744217117327
Cu 3.033449590286418 4.8334548115196 5.0181513600354295
Cu 3.2712692750365173 4.047957995172985 9.232552184783618
Cu 3.3608613200885986 2.434292068701425 5.30904893079491
Cu 2.539291758362655 7.1828552165967885 4.1571868143792186
Cu 2.4883113422991516 7.834905183812012 8.394694503224295
Cu 2.1098314842118673 3.900737916197137 7.03941678870169
Cu 1.677350878126066 6.473198590733845 6.407962772749487
Cu 1.6068407963496256 5.6819019881951744 8.727828338507685
