40
Energy = -117.33001046 eV
Cu 3.138285019352588 6.885710071416514 4.477804512726901
Cu 5.891250359200578 10.150233378320445 7.083401548136013
Cu 4.217182398942512 8.889329390484185 5.705455278390277
Cu 1.2177969867726621 5.969150408471558 5.62070099201181
Cu 3.570541584583859 6.830173471013537 6.901834607934739
Cu 6.483873242200304 9.496535594400106 4.784398162823828
Cu 2.1536944733931582 4.699053436200355 3.647307945344558
Cu 4.471825101406394 8.608806233476896 8.327638236469356
Cu 4.617842687160145 5.057432424846041 3.6146489867129965
Cu 5.446238882944933 7.319037299702209 4.250116615038364
Cu 7.164628437699839 8.178575766793255 2.8119848449976237
Cu 7.02452444022743 8.641104766230358 8.758614300101595
Cu 8.190225530742298 9.374557629912978 6.582480910444843
Cu 3.306877713516474 4.702728408551349 5.775017426131947
Cu 3.1338082964293212 6.551701132676129 9.217808523179263
Cu 6.1671980205632355 7.703348190775542 6.719426125089181
Cu 8.943931496508728 9.297549807027572 4.165563071549035
Cu 1.2177295526683656 3.5071240032924247 5.581221142328775
Cu 1.8343562605482855 4.925844047763894 7.735712655403547
Cu 5.634317060754303 5.426180004040414 5.950628648242211
Cu 9.47702503598386 8.21504720153073 8.247285477139853
Cu 10.162638872274952 8.030522458534566 5.888678626724884
Cu 9.212453569465556 6.954550635437517 3.073995844264467
Cu 7.916789331541836 7.341291330772986 5.063490050822935
Cu 5.560119360203171 6.495256117365584 8.846958701534529
Cu 3.7528537403226196 2.7864008686023256 4.517405646044926
Cu 4.186050519017115 4.594533956359344 8.133453552318203
Cu 2.856671782155299 2.6825157751014137 7.105304900187575
Cu 7.0825297747455185 5.612525733122269 3.5403760504308455
Cu 5.213094600715523 2.9850456550390962 6.5578044415299965
Cu 6.247450971057627 3.428292674441361 4.426739438747243
Cu 8.052934410330463 5.249935336418144 6.28381444934368
Cu 7.963707503396173 6.360200146935586 8.567530589912025
Cu 10.086575980671302 5.7627500111429155 4.935770457608115
Cu 10.156817814341437 6.039310852226131 7.366004276901885
Cu 6.566600654159975 4.335101369859079 8.13547379927738
Cu 8.660678884007265 3.870992822079777 4.224426680680965
Cu 8.92560164121955 4.092924652840259 8.349766388723836
Cu 7.691620545634829 2.859818130975219 6.408711482495271
Cu 10.0339459927032 3.721097335382 6.247533141816755
