48
Energy = -142.74800313 eV
Cu 7.12862408563214 4.582923631994529 3.031357809124188
Cu 3.6483707000019088 3.789014574560365 1.0418690883240034
Cu 6.117841201937982 3.364537552445611 1.0271502130007382
Cu 7.4589113431141145 1.0497858844702417 5.073541069256868
Cu 7.094646222234148 2.124299717646125 2.911842140948105
Cu 8.665764813387113 3.112498109291321 4.54511296139119
Cu 2.940575630775363 4.5861789761337635 3.2792723597936737
Cu 6.413498861513775 7.201189620550353 3.1739242816802107
Cu 2.8013856668634585 6.147382736049611 1.396507981886888
Cu 4.889947782826538 3.173151230183919 3.085365239507492
Cu 1.500004607281805 6.6059224296865455 3.569928914738205
Cu 9.035188029946719 5.545643325939183 4.124469236964008
Cu 6.334122919619976 3.181528094646156 5.1701692339449865
Cu 5.137106065357948 5.470423640872045 1.8744813915861256
Cu 8.386735955377008 4.650558247946599 6.343481679409277
Cu 4.736510440539416 7.837448377462225 1.3894105378605206
Cu 3.894398050665545 3.4746101762071357 5.355679694617129
Cu 3.8100554600084577 7.008763626194662 3.4388597918761934
Cu 8.828949499954591 8.012575321532811 4.2656136782770275
Cu 5.281028130522116 2.835242899045377 7.396011200800886
Cu 7.6989303091155765 2.430748338208214 7.086498410981773
Cu 5.893604694632545 5.183476865096183 6.87615371198212
Cu 2.8803857341304604 5.757993876789618 5.4282402382253405
Cu 5.2510501182701175 5.300725857552372 4.477410082321967
Cu 7.801436887207203 6.612815863447449 7.793348836003206
Cu 7.233837713994035 6.622967996239383 5.389501654951493
Cu 3.5234141688140386 4.623301384232956 7.4906347857331355
Cu 9.747730246330477 6.7367309233536945 6.1549662618842085
Cu 4.882955107052479 7.389614532797118 5.758142710116687
Cu 6.610753800636196 2.341574362318898 9.44402120524086
Cu 4.833341453070864 9.137252096014697 3.4919629618744086
Cu 7.631752328740783 4.34801187649591 8.639562159720217
Cu 6.756106736943215 9.041172922738799 4.989962271699391
Cu 2.656898862308543 8.235756298879782 5.341804012288797
Cu 2.2410676310533324 6.8616321802392815 7.469900702441247
Cu 8.528312648805983 8.769772837983801 6.708402390872289
Cu 5.225069535019719 4.3776352884995005 9.327425339332542
Cu 8.78292025453256 6.097802853540245 10.00361321792806
Cu 7.1596356601748266 4.308341157982736 10.957613538411064
Cu 9.917703169173212 7.621380050555838 8.445653917826954
Cu 4.604163690435589 9.844683943833425 5.780855488458393
Cu 3.664436057828698 8.806028400424708 7.675287273861138
Cu 7.7492978658354446 8.441513240281207 9.315922595824194
Cu 6.41040615794242 6.426107341887465 9.960922783149911
Cu 4.570564142952233 6.624927282522144 8.391717429439671
Cu 6.182578430586339 8.652279753766814 7.422205547621559
Cu 2.925682120272886 7.778657086165824 9.719166867584738
Cu 5.245301990781365 8.58642019949502 9.678058083439614
