46
Energy = -136.67052829 eV
Cu 2.2491309610799197 4.240780724936332 8.137816203654712
Cu 4.482245364825289 4.0974557205935795 9.202295267317366
Cu 3.86161643306063 6.066597643281263 7.829464471246108
Cu 2.066597914772173 5.932220670580988 5.854991423741563
Cu 1.9312849281156093 3.753389118392126 4.333138481206696
Cu 1.783729086936851 2.4853527424095394 6.463267171724528
Cu 4.000625918628057 2.278415805987608 7.579282656616895
Cu 2.839965560925314 8.065909587552639 6.697704767495705
Cu 1.071215368596185 6.00075785284438 3.6629526108008292
Cu 5.904417024324011 6.230019382384466 9.392153125486573
Cu 6.388628472613579 4.076950974837896 10.61413864078273
Cu 5.170416217120326 8.120065768340027 7.33928994652731
Cu 3.5589820820348343 4.1376682570681975 6.13132192601961
Cu 2.650142767527263 7.782468658591498 4.258835801210834
Cu 4.870942490035747 6.219407189543404 5.614856016623344
Cu 5.785038193920741 4.35586249476458 7.0548281554110295
Cu 3.6704651460094646 2.028427517550465 4.9781889623568265
Cu 5.973609810129213 2.110270170344201 6.074050460698744
Cu 3.955345656604607 3.260082758683561 2.661885468043368
Cu 6.371572927644232 2.5452555759289917 8.541958591337753
Cu 7.1857676196733475 8.712155817902959 8.4638450169095
Cu 4.544445096837167 9.108393415328417 5.213209237015114
Cu 3.4452137527905435 5.482376232139503 3.625880041964096
Cu 5.356651819836572 3.972834585496192 4.407376060309462
Cu 4.93023719967193 7.39257781231996 3.4746771799019456
Cu 7.752255420616775 4.590967849174062 8.728847364579954
Cu 5.635512011995183 1.5590391263321333 3.667299733864288
Cu 3.8944532512194834 9.428442209843631 2.821601472952094
Cu 6.946782602991157 6.5115222108186765 7.29459318011024
Cu 8.607227998784866 6.853995436146968 8.981601043082911
Cu 8.059003200941667 3.296858897549793 6.670896500367061
Cu 7.277630037978917 5.239485445552422 5.215007253887784
Cu 5.649311518877904 5.48031414148021 2.277563322272694
Cu 6.813933595445828 9.817657699558527 6.187799183353919
Cu 6.777432229879747 7.702187044801705 5.161121649631221
Cu 7.628195500871571 2.847028578951826 4.269140055977523
Cu 9.189248565489448 5.580657344174871 6.896367522205014
Cu 6.4653043378228805 3.206496185371448 2.1193092664363147
Cu 5.5735909509227195 8.060344081735296 1.3542935857261462
Cu 8.053708907850178 4.904722795650054 2.9149716653112727
Cu 8.774885478594195 8.13709242330806 6.669783589964289
Cu 6.282300322067869 9.484212579980209 3.4794143562088937
Cu 9.532035854053989 4.271451059630393 4.849066344266284
Cu 9.072686966024763 6.726944897454793 4.572841629602307
Cu 8.54328423785291 9.142367753520512 4.421061128711331
Cu 7.375761431954454 7.278533928204994 2.8318246360416475
