46
Energy = -136.76317401 eV
Cu 5.114138907231998 1.1770258241304874 4.040705286373608
Cu 6.590044697496894 1.8708689106017058 2.2534220266738005
Cu 4.532752542302725 3.1370758769030513 2.7876451688093713
Cu 7.577311117383797 1.7804108699521863 7.393796844922108
Cu 3.440000233759165 2.686524004347982 4.97859556176646
Cu 6.220755783375939 4.265513239460252 1.4745608387948783
Cu 5.683739083745646 2.472007325879409 6.029075801517346
Cu 2.5545110209750925 4.335196857742697 3.505577807071051
Cu 7.43602103947297 1.4785846872580766 4.691060618697223
Cu 8.121443644505884 5.557712286799833 2.3728439565141652
Cu 3.7244992070300396 3.3800087428913295 7.293037343081559
Cu 9.370756478458807 5.534775382390257 6.802941545034632
Cu 8.101208787530132 3.5228530854896576 5.921722656512296
Cu 8.314058479162542 6.50962373362397 8.80808461275243
Cu 6.920362703570978 3.7023971846668253 3.7328953180616384
Cu 4.051177151927879 5.423770582187987 1.9315149935457605
Cu 5.0228600416388 4.67893314321477 5.071643407280964
Cu 2.553416367588511 4.941868195615617 5.870714752816442
Cu 5.886127107942779 3.3923317701046978 8.31012033148129
Cu 3.8885377211136185 4.669744540893813 9.361578525581873
Cu 8.241266760299217 4.003865022557945 8.422732357368162
Cu 7.882596182239145 5.656904244682861 4.762581246117279
Cu 5.962407079602224 6.232785146946072 3.1447494132026677
Cu 7.882725786409854 7.790602049768708 3.736623352157233
Cu 8.209382942453631 7.681308125925754 6.25291734201885
Cu 6.909174090195774 5.414976106650227 6.936098781582738
Cu 2.341249336180028 6.211175849106042 8.057096659455368
Cu 6.18477740722969 7.583832479447956 7.81504406232447
Cu 5.745465988925787 7.155779963703917 5.446495424445564
Cu 10.13981183753884 7.693833021429137 7.753816033982804
Cu 6.205597843491636 5.520346871908179 9.405509831865034
Cu 6.57735318695832 7.883769451522668 10.17282178822247
Cu 3.54811730036179 6.442351579971731 4.184242864759069
Cu 4.201649450143636 7.856344549435054 2.3990437075003883
Cu 4.539452007589929 5.734656152186615 7.283660178356238
Cu 7.646914297506603 9.809236173816101 5.138973952923931
Cu 4.310715433545857 7.186489418763453 9.382872181381321
Cu 8.140019842390478 8.94958987027506 8.643303763870946
Cu 5.44058783059472 9.603408984321383 6.204876520504703
Cu 9.411694931198037 9.819396772107858 6.7802894371302695
Cu 5.783465291596836 9.002728024555552 3.800011475750861
Cu 1.9313263348869731 7.3093250069311395 5.874657517598302
Cu 5.419768254476012 9.585281623440919 8.736342117079966
Cu 3.595818692097764 8.769270720820964 4.7612873767849635
Cu 3.758130616754523 8.157657778257466 7.189105917419498
Cu 7.190331761117007 10.731381369310844 7.386831900905913
