43
Energy = -126.62285334 eV
Cu 7.307174202174864 2.4163659523462813 2.9415864682199238
Cu 5.425666659466377 1.4156557021459457 4.135404667567708
Cu 9.026321490542657 3.769736637875955 4.058904949799375
Cu 5.47592419915866 3.8918572068867086 3.7658108289203107
Cu 3.54675041194515 0.6685809384063585 5.575057798737675
Cu 7.160309094745107 2.817951967895148 5.330337549617839
Cu 3.3441910343469274 2.7403091597586475 4.379905435965249
Cu 4.953883242053561 2.5249613970675884 6.26789505502013
Cu 8.648850437540512 4.347184515065255 6.4851702063823575
Cu 10.16315906775211 5.658491953979144 5.05530294872465
Cu 7.389954058053328 4.809211094782173 2.417736993303302
Cu 6.7535600399692886 3.440924886429425 7.825954877860606
Cu 5.183870795697641 5.811480305567705 2.03315980922551
Cu 3.273769384835525 4.874945578138172 3.264105405445273
Cu 5.825661436957745 4.855607490066596 6.172110701952857
Cu 5.014511112707324 6.3822463249661014 4.393653822746868
Cu 2.5739014202697783 2.6182741259740214 6.734106593417028
Cu 9.844570807975776 6.425438177550347 7.36183490519567
Cu 7.61782714600094 5.673887574913994 4.655940663655958
Cu 8.340119860334775 5.107423658178454 8.77452605450938
Cu 6.982056920860032 7.251942312789862 2.927250945717245
Cu 4.2581038007655225 4.084755405866813 8.026021940328551
Cu 7.4107061108375305 6.5808295461525415 6.950127023885449
Cu 3.3269515179750293 4.830340682207539 5.775046370574289
Cu 11.076235994016672 7.826026508688165 5.72045762841845
Cu 5.067074411755376 8.77777466837924 3.638843583124971
Cu 9.024739372676555 7.669299083527683 4.34391668117924
Cu 1.9153979213304704 4.692556511422113 7.814567162241548
Cu 5.967342622031205 5.703724359765718 8.781359641123869
Cu 3.266273055113041 7.284944065503697 2.832107122253686
Cu 1.7963318639463324 6.317718772873217 4.533826491572612
Cu 7.877857714296229 7.539413979078256 9.039279531759316
Cu 4.860598587530192 7.065418514545183 6.7633140639343345
Cu 8.930898299142736 8.531064250907153 6.6241884739045975
Cu 6.782903159954675 8.139659176293694 5.214773494514015
Cu 3.2211888957000654 8.217214978254129 5.130919427644534
Cu 3.5659150352957814 6.375243960182621 8.761000615318727
Cu 2.209823080628202 6.85819142835239 6.8337593050597585
Cu 5.34804324274977 8.077006276759432 9.111189142516963
Cu 6.816962032185631 9.134114424291406 7.505445552270442
Cu 4.955543338639757 9.643589678366832 6.021299986868527
Cu 3.373904926351212 8.758866238392514 7.751423590003721
Cu 4.997922806690286 10.41571061878145 8.385245944478026
