45
Energy = -133.61132794 eV
Cu 7.75718970842957 8.79627266213052 6.715303691273376
Cu 9.341685394211241 4.826271625932687 6.948167775878142
Cu 9.212420094365699 6.959547018120074 5.673672301252077
Cu 7.91437019044657 6.64538975193837 7.854184812564653
Cu 5.617728948973671 9.413666039691444 5.454597327803652
Cu 7.448565087405355 8.068404514596667 4.465008575550989
Cu 7.362814569413096 5.390620053110559 5.567931751395939
Cu 8.28698403225595 6.064516645819084 3.3920996930377476
Cu 6.156378508120757 8.39275106725985 8.519780369911597
Cu 7.717893796694409 3.0315984859173613 6.722640211927494
Cu 7.8870057156034274 4.409109765188289 8.959632418474406
Cu 5.538577268448499 8.46561292968331 3.0992311019369048
Cu 6.039223578425569 4.845769136515351 7.516133746062041
Cu 8.918987733614713 3.8574725774124956 4.664878785966307
Cu 5.893633778852651 7.216672534691677 6.377320306654292
Cu 6.36299822274231 6.242573470958017 9.733013200938082
Cu 3.926011488022774 8.629582576557652 7.220443365148603
Cu 7.745051063449983 8.052409092452883 2.074616841219239
Cu 6.236285644375257 6.136850080047453 1.7287304726316697
Cu 4.464575627569641 7.926305003386481 10.186699099451413
Cu 6.187390151187974 2.6203154469066776 8.6178584211417
Cu 6.90595654089116 4.0910695508314445 3.174631492679397
Cu 5.6206722193671546 6.173643434022466 4.105614818612189
Cu 5.5018487517334185 3.6576483536745092 5.1561526603407835
Cu 5.796306673847715 1.5309560032132732 6.481684294608074
Cu 7.187104283636761 2.025274967431163 4.502734354883355
Cu 4.403352137128217 6.527358930061122 8.301035144757735
Cu 4.67908890990915 4.392482683970852 9.464683738980012
Cu 5.884236815436266 3.6562633332528716 0.9910461078459583
Cu 2.3237148865741055 7.454824447510228 8.869047530053505
Cu 4.163762313150215 5.445124266355729 6.0553525996488
Cu 4.126279802649971 3.164674392961503 7.336427577074883
Cu 3.853794199590826 7.772520715409292 4.8279117976825425
Cu 4.22528653805628 5.368840424479492 0.43136896686675913
Cu 4.456333761356418 4.579020880729099 2.7561981367605743
Cu 3.8162578035840826 6.894684468814519 2.407290860452576
Cu 3.743479646548209 1.9693904267505495 5.189897726235971
Cu 5.054441487930279 2.275025060347099 3.0703127079401837
Cu 2.2696617824043916 6.82242928070128 6.497919324342255
Cu 2.5788469772944556 4.957176385231148 8.068304403735347
Cu 2.577288036598512 5.685974962759987 4.1957566315689325
Cu 2.295511723464056 3.8777666369362898 5.818574185541024
Cu 3.517825460856443 3.031470864396883 1.143870102779969
Cu 2.2197789691843215 5.047153526547622 1.8204929604273865
Cu 2.5804392673787664 3.1904393490246554 3.460991232194319
