41
Energy = -120.47419413 eV
Cu 3.657126752221638 8.901285977539688 4.649764918244806
Cu 2.975384136381425 4.737161752975349 3.207169307298819
Cu 3.5903995294502566 2.5637437407225185 2.3723748062306296
Cu 4.567771434396091 6.752311299164667 3.2502362695283393
Cu 2.2850824074567537 6.9282355389261685 3.9741896540326236
Cu 5.285223361392598 4.448007593915346 2.3834240604350665
Cu 6.893797081398553 6.245824811876877 2.7764116886744628
Cu 6.035817362768737 8.567569545977683 4.001244280483496
Cu 8.417260964172124 7.9743449826179855 3.5802178579852915
Cu 5.496510306419286 9.65282335828639 6.203681608229655
Cu 3.515738326034844 2.9238679638807326 4.8339463219233485
Cu 4.6056497348852945 7.057190798380199 5.7894736473485855
Cu 2.7770529690443713 5.213280763133423 5.627239657783004
Cu 2.259495564085118 7.526213908948811 6.325770395214818
Cu 7.319565454471197 4.124472222973871 3.9820271613509215
Cu 5.118877118213897 4.786984656549935 4.851872853501169
Cu 5.607964510392547 2.427177201523372 3.70860147996325
Cu 9.11878757853776 5.7795989394838365 4.488091724737553
Cu 6.933043609625813 6.568719502718383 5.1681852203086125
Cu 7.864455518455409 8.929404476596696 5.716573089127478
Cu 10.040241381195791 7.866891759750289 5.415139905683225
Cu 6.482713316869482 7.822135491200818 7.4407309278460705
Cu 8.261853997514484 4.209670707952636 6.17679222612139
Cu 7.50080892834205 10.102005347236712 7.8039383279082735
Cu 9.483342037895333 8.648249831503447 7.725344339988583
Cu 8.526983964620891 6.515462801422721 7.017087962630551
Cu 3.95478741621035 8.438982294967769 7.740195259499205
Cu 6.193975835840419 2.8547491278148436 6.041633269709948
Cu 6.061272307899066 5.410540259943465 7.130805829054522
Cu 5.628384770265385 9.440866370282105 9.11033699467284
Cu 3.5543382438017117 6.001302660352111 7.894203047277196
Cu 10.881199567412422 6.513588407741654 7.287610368593536
Cu 9.4163847548576 4.659385205658739 8.289093850174666
Cu 7.747425796798216 8.257644258197637 9.481148164519247
Cu 4.083958036353624 3.7426169317145974 7.051373855507138
Cu 9.695207522128657 6.825107428462773 9.393467765892382
Cu 5.246282941391216 6.970783577730169 9.380035687209276
Cu 7.250762942299252 3.4808212213493945 8.26959727566557
Cu 7.410457076765716 5.785766907453362 9.211306372358186
Cu 5.147328522460963 4.4737871213479234 9.194947020191702
Cu 5.298508158686592 2.1096062717175488 8.251428102269585
