49
Energy = -145.36046909 eV
Cu 5.332616887928103 9.173396696023875 2.8211566203480762
Cu 7.551718165598427 9.83072869965001 4.0956570270476975
Cu 5.295602629972877 9.936095032519901 5.0336021534145505
Cu 6.342149800904326 7.657702721991462 4.327726811988349
Cu 7.5805729951663405 8.635523076026855 6.222354026451136
Cu 3.956903922435406 7.9467100894202165 4.789877190035052
Cu 9.922858961629654 8.453945458696046 5.677093766925893
Cu 9.232137774524766 4.563603987174863 4.38865530227376
Cu 6.977222445821518 5.360462630716283 3.558117136665891
Cu 4.5703483250348 11.810930709539912 6.436255081380338
Cu 5.34076286536738 3.58334605833049 4.177052272326432
Cu 6.85122908385494 11.724789244223645 5.58109075303935
Cu 10.723897927265986 6.131806717343599 5.770153355208358
Cu 5.276176778306346 7.497967228012476 6.821068056203793
Cu 5.07171347189534 5.733275103724864 5.1456942410295285
Cu 3.740883739205318 9.50165924158254 6.876548128391305
Cu 11.251315088274687 10.028439915487159 6.914322395036191
Cu 9.242044695853973 4.56726919910955 6.825387313650623
Cu 6.998447919284155 8.084586241977265 8.530318874709685
Cu 8.272602791102264 6.508619043630727 5.3543828311148465
Cu 11.179911657540261 5.340027503488158 8.047834846673775
Cu 7.069420188605595 4.213079133250066 5.653344136919388
Cu 10.125899564925083 11.737701546954721 8.116536247866478
Cu 9.035281299129998 10.781764969431935 5.939191437771141
Cu 6.081804921399799 10.142093471156405 7.385366979645973
Cu 11.57208994269994 7.725994101191341 7.510913822893497
Cu 9.156338026286726 4.423740740954683 9.36572858701489
Cu 7.444684018294307 3.289288823478391 7.846816539947299
Cu 8.783894401059875 9.68274469815822 8.110762842379414
Cu 5.189046851323417 4.578177606893622 7.314054331716949
Cu 4.460895331260901 11.184696414527522 8.800181250773468
Cu 9.214216877259465 7.132475817768421 7.748046529382939
Cu 7.706990632153067 11.896592329740642 7.956449480395653
Cu 7.208947861324924 5.7598125805935645 7.669001058815231
Cu 6.736315856537184 10.25622130665062 9.7511265464909
Cu 9.730283208031095 5.714266155143076 11.581260385727617
Cu 4.687451169882032 8.81729326225159 9.052290509047351
Cu 11.420656614346761 4.63366278682688 10.313259315468281
Cu 10.843109784387833 9.396741825303963 9.288704640391153
Cu 6.313449097845496 4.328214344837364 9.620814796040325
Cu 8.714515454734455 8.573663117103631 10.466499884102202
Cu 5.220308573058177 6.427551155869894 9.146271128327205
Cu 9.044303966329233 11.02093395674087 10.124595420486088
Cu 10.642085987875806 6.985107169845622 9.770355147740627
Cu 7.817985663424094 6.329706763007579 10.051886988188569
Cu 7.7549455872915125 6.903714946116729 12.355539504696441
Cu 7.741764245249304 4.4088233895533575 11.59255457324683
Cu 5.695342999295644 5.797579082224836 11.506103689131233
Cu 6.204594413141131 8.11521436987281 10.895736505595481
