49
Energy = -146.79932901 eV
Cu 4.448109578770387 2.2603729671235095 8.822324175262635
Cu 6.955032843334318 1.648574069849718 8.13364748189886
Cu 3.088344358368036 2.1406629963358728 6.450816506600421
Cu 5.159584342334625 0.9907715277182946 6.685121119003431
Cu 2.664461156110305 4.309069580207162 7.514680147941303
Cu 6.447166926231245 3.702514363075057 9.436925300228337
Cu 4.322775833229956 4.805690089688727 9.202195747307805
Cu 8.867195829570086 3.1493649607013845 9.116236190089035
Cu 5.0644472871263275 3.4694807686906386 6.966309101337065
Cu 9.093894470418078 2.0713833498310024 6.7964523435167
Cu 4.671032914665258 2.8833956431829426 4.4604316151531584
Cu 6.943638099581581 2.1990224235707396 5.5059383962532
Cu 7.565517142710508 3.8249933096592534 7.287275294724641
Cu 4.125336337501571 5.659762668965876 6.003558465894888
Cu 3.1444309331774147 6.693082479957184 8.13794032770519
Cu 2.4700964031401744 4.036735690678044 5.091049388769523
Cu 8.058923854361723 5.604489005474165 8.92353553522707
Cu 5.969304198648759 5.749300458224806 7.646418705711779
Cu 5.074623605965512 3.5555802681449817 1.8606212863378622
Cu 9.922653932563605 4.450173539214475 7.17235114016445
Cu 1.8012510959245023 6.251737580722052 6.076224338817146
Cu 2.8992301377593095 3.760876033353639 2.746395816908877
Cu 6.353387534759969 4.699827968936121 5.39401347626824
Cu 6.989028860368966 3.6278653670338192 3.3444061458549754
Cu 8.772155489084536 3.846057496843876 5.036303226724142
Cu 5.286673920408235 7.149039710293672 9.403975893388205
Cu 2.3968193262691355 5.991437940999646 3.5987016767455695
Cu 4.834834522111373 5.257970318611689 3.6441248915672637
Cu 1.226531308496208 7.942584684917948 4.384142476081395
Cu 3.847332145330998 5.889606971574388 1.574532114951101
Cu 8.180460024136838 6.032083791380805 6.482195857813462
Cu 2.34265686028894 8.641766353541078 6.644393345671898
Cu 6.038270304440381 7.203673262266007 5.386810775423013
Cu 7.172396848800374 7.900178493538814 7.6691936317629095
Cu 4.764053943147779 8.220327244558232 7.2330504016435935
Cu 9.089789584650802 4.892508589389817 2.7239628503830833
Cu 7.535663739329783 6.208713979272942 3.8547282439506207
Cu 6.5267524107811346 5.522602052987204 1.764150484461999
Cu 3.685926653045399 7.778690677865541 4.856560592772824
Cu 9.959483757595516 5.975824530181754 4.908960086225859
Cu 3.022155404246281 8.157513162563726 2.549117810752416
Cu 5.352465149133999 7.470865841118351 2.766730004503824
Cu 2.563509937101894 9.919226807356113 4.340346749783702
Cu 8.527765715074578 8.101420222026704 5.409583099770337
Cu 4.169360866960841 10.27581448263124 6.0772334563936035
Cu 7.226045089437823 8.757693923349995 3.517046241467008
Cu 6.492147577440663 9.559642707662622 5.829511659623547
Cu 9.365398711027517 7.490422788544455 3.094137525037617
Cu 4.956500649696347 9.649874751575616 3.8324695545880973
