40
Energy = -118.04364732 eV
Cu 7.971805296324489 6.304637391889032 9.459927701847182
Cu 9.66312993337859 5.191603230560829 5.802994432989352
Cu 9.21279174814853 6.935578495153277 7.421895607560169
Cu 8.428150273576714 9.180073885070376 6.676010819286299
Cu 8.693366713176063 8.709369394016875 9.080484785633306
Cu 8.970326034212256 7.479842039007928 4.965780321783611
Cu 8.325550880884325 5.383966064236456 3.8273413913511085
Cu 7.849995858248842 3.537019903523172 5.537330334634587
Cu 8.37272488505906 4.544372410248118 7.767690372069815
Cu 6.472153382317873 3.752190465558352 3.535094871080048
Cu 6.12812989825463 9.94742558631857 7.087915985692568
Cu 5.625791367751444 7.065198129922667 9.8812050537879
Cu 7.262465505111728 6.014136661183614 6.0107541132487885
Cu 6.826391665833196 7.710269207480624 7.8203995985127515
Cu 6.591553153004452 8.386136241793528 5.249950743639712
Cu 7.3982049647148775 7.660739591171552 3.0456676558828115
Cu 6.425847487477975 9.4410389014538 9.488005283589203
Cu 7.087816080515888 5.484072669818154 1.8256014969204075
Cu 6.470027929127972 2.944204584726444 7.504285244100395
Cu 6.069515990660935 5.265103204925358 8.245949436154119
Cu 4.9310034840709065 6.797362138611973 6.438682046113143
Cu 3.7546754730687883 6.077581656707922 8.59276509577335
Cu 5.622680198125777 6.189987934887413 3.911285779296666
Cu 5.8579828670114 2.0594847556245557 5.257478326833536
Cu 4.450909431502891 8.518524286023887 8.272296303852217
Cu 5.544588650777995 7.277562324826653 1.4809870148932687
Cu 5.367486882020523 4.444560931897616 5.79176142829956
Cu 4.185580638072311 3.713988008777674 7.902626256210322
Cu 4.197685268524234 9.096640941602278 5.824985484446198
Cu 4.895256561111872 8.499544507598984 3.498443137332409
Cu 4.783866511957425 4.684802658359549 2.045542771902901
Cu 4.567165347244283 1.350661049325851 7.1956277180505985
Cu 2.5824499022627734 7.580964393285649 7.054432179780437
Cu 4.31471129067052 2.575500644458505 3.389021175250496
Cu 3.111889200940239 7.160429167355541 4.7605946218381066
Cu 3.4479459479189476 6.708048086071675 2.477458700684158
Cu 3.914376574600952 0.6505763090084505 4.886535435584725
Cu 3.457847700168156 4.788624300827861 4.084972543754139
Cu 2.8963881217735232 5.213400849354224 6.417046758870833
Cu 3.416399451630596 2.88568136973907 5.676123757955322
