41
Energy = -120.92315961 eV
Cu 5.348975480133119 9.868111037209916 6.335700186523456
Cu 3.373762108359024 8.284040116584043 6.226653630616385
Cu 6.936647977572455 9.791603750009633 8.198911631123332
Cu 4.8830588971386435 8.290049809877912 8.244422355475963
Cu 6.931568497231789 7.380242238649949 9.344886147145703
Cu 3.966141181971616 9.692655238752279 4.256349780705381
Cu 2.55754179219184 5.977417038250963 5.833881128357036
Cu 4.588392972739021 5.601920637805068 4.373059593960853
Cu 4.850859547617572 6.357299532758463 6.744667928504352
Cu 7.544953147669176 9.432178782612965 5.234696805874158
Cu 5.006555457380737 5.839968318851595 9.061431533124388
Cu 3.5147410505305947 4.442240949690506 7.529949319117125
Cu 8.830941841168555 8.872896177139914 9.48023634206655
Cu 3.054305399234468 7.4696466734182545 3.866840871905872
Cu 5.474336717939708 7.921251818886956 4.8732635485973885
Cu 9.049963615099946 9.179949380098252 7.125214335053567
Cu 6.951227145027777 7.759901319561402 6.932961432728472
Cu 2.300721328970082 5.173249247076575 3.497217022133264
Cu 5.5664089704541135 3.4392182329677765 8.515571701804056
Cu 6.1447709557555 9.556384635199933 3.2291116535358695
Cu 3.146613887463262 3.6058342926497904 5.1834978083217145
Cu 5.192784405464824 7.294423871312716 2.517780337298936
Cu 6.906340415995272 5.9045930520968835 5.326595355435114
Cu 7.542512177770472 7.539613971199985 3.4788706386716384
Cu 4.082748640098078 2.075500114266792 6.885360202661501
Cu 9.02172880222565 6.844547539356384 8.02947085544187
Cu 9.005101753408612 7.336916816914861 5.517569249333196
Cu 5.505923801708557 3.9980156902759822 6.107841938044941
Cu 7.146767751490858 5.268420148543104 8.0277957283014
Cu 6.12348564081589 1.123534164484712 7.784016828246825
Cu 4.296097155200328 4.973922331493472 2.0758709832813307
Cu 3.023013082109771 2.9211118991015086 2.8085657695737787
Cu 6.627463247727476 5.243837492872095 2.8946261899660417
Cu 5.266958004246652 3.251818111260142 3.666485925245392
Cu 3.850989425604509 1.335379119088056 4.503767633818197
Cu 8.868749160512273 5.493253244151623 3.9367029086570233
Cu 7.532605547982236 3.582278513199062 4.652026438892603
Cu 4.761897691548108 9.868111037209916 6.200897388168779
Cu 8.942986789875127 4.952840574265921 6.375721555867382
Cu 6.135504082966439 1.6793528967026894 5.422088229543396
Cu 7.5653462430048535 3.019233163267373 7.08950842848329
