55
Energy = -164.69409746 eV
Cu 9.780224315631607 7.716424803259137 3.0542884722690697
Cu 11.123585505644607 5.782360145593346 2.595662028923493
Cu 7.727158081920816 6.483692724086312 3.8023405289593852
Cu 7.9248942561136175 9.046193335387583 3.958350064755242
Cu 5.932965325090059 10.214464128480342 4.828834773341851
Cu 5.685208014564981 5.357211608054968 4.911108880807872
Cu 9.865432382616914 5.461210361846553 4.615426199596766
Cu 5.786801804290112 7.789770286947364 4.441558923482121
Cu 11.652742807627769 7.145133449554167 4.532776570700681
Cu 10.341552537490246 9.867108216111706 4.570085193543292
Cu 7.824698529528684 4.182214173131935 4.87448593767411
Cu 3.775709971863354 9.046002531395514 4.2185816619467795
Cu 8.056763564267325 6.218446393772379 6.250571968641491
Cu 3.741450302748112 6.841078043349172 5.50357382967635
Cu 9.506900629100077 7.917490112666614 5.435023766977671
Cu 5.748492205186469 6.767692908805943 6.899791969569945
Cu 8.233283738393837 10.751466859464587 5.782398688144934
Cu 7.256334214534844 8.626187932822148 6.426964137275636
Cu 4.581850442227149 8.984427529893074 6.456803653584519
Cu 11.678718941631411 8.490144064390021 6.549545398524327
Cu 10.32061749078069 10.398742487774946 7.064409327236585
Cu 4.205162554466464 4.942532069985135 7.07338032991078
Cu 6.625246491492186 4.370432749796548 7.04021603372537
Cu 10.774412106482124 6.19720531522629 6.7928873921562225
Cu 3.840614591196014 7.3801342045196705 8.22820060470575
Cu 12.474523146611608 9.746777385089485 8.46206225584074
Cu 7.44518831648287 12.371897369325495 8.785321912411337
Cu 6.062698352349266 10.810694219235387 7.2404753276701985
Cu 3.993904799539124 9.905558567494834 8.619032285607389
Cu 8.170602948444738 10.121359302185827 8.255426298672463
Cu 11.5746553026553 7.4774299480013715 8.889871896782628
Cu 6.021726518461076 8.525391185281757 8.673124307457941
Cu 9.165159993364606 4.260278778270947 7.027796210893598
Cu 9.8545066053426 5.682905821191939 8.99387622515397
Cu 7.536850222333737 6.578034935833957 8.634643517680951
Cu 5.400913901333674 5.628469404868473 9.170589301260163
Cu 9.388568716856433 7.979738174387944 7.847467319931054
Cu 6.000082978186193 10.743850764986016 9.72437212868357
Cu 5.452195738880798 3.291639945761371 8.7983724092933
Cu 4.653229411018072 8.915699303765006 10.761921273581109
Cu 10.350869438528473 9.720008795613046 9.46396536977784
Cu 10.338585889196656 7.166786741668885 11.07374141582319
Cu 7.761875821043661 4.199301698572198 9.210953136837903
Cu 6.325283839414853 7.182003526377161 10.823627754193518
Cu 8.314739767404003 8.438355291760429 10.096343157664004
Cu 8.576077663062994 11.00073327143986 10.505457629502304
Cu 10.432058463227149 4.747971335916669 11.099982320976967
Cu 8.301625157726418 5.820400649316008 10.954410379390657
Cu 6.804657399607387 12.255058694627063 11.405446312195318
Cu 12.113073024178798 8.864421399049016 10.837533721288983
Cu 6.792358472331006 9.698715727496298 11.797895414898948
Cu 9.872909587378786 9.415619321039424 11.893557182099967
Cu 8.155586893929042 7.76130889951323 12.501071822645828
Cu 5.594200381173408 7.957065077986273 12.92728757544843
Cu 8.390977636904358 11.065265219485248 12.927614992062448
