51
Energy = -153.90814057 eV
Cu 9.599586614277388 4.643027625231991 4.839053903698767
Cu 10.582894841715152 7.005464893205272 5.245458298193942
Cu 9.836875708867625 5.564579157128571 7.095236149843939
Cu 8.941426468863337 7.850516698118402 7.314610476756989
Cu 8.363590402424498 8.557347768292606 3.222958556493212
Cu 8.151146171038446 6.158246329075529 8.756330343353953
Cu 9.412833868329866 6.337570173659698 3.0538308773692457
Cu 9.342703800536485 9.164994347456343 5.358995792495015
Cu 7.678960963525584 3.7981579756160406 8.770646741062848
Cu 9.32234925766478 3.1514797893350064 6.864757353585197
Cu 8.244877070171965 6.807161465514423 5.116278285070629
Cu 7.750800700584286 4.466597492731205 3.126820263479351
Cu 6.192551627009214 8.189335150102497 4.815546819269617
Cu 5.847602147072791 9.228727647165273 2.8001534079888595
Cu 7.1924841384140805 9.448775352224501 6.731022414238374
Cu 6.55853228617327 8.139166920759285 8.83007964440905
Cu 6.488881429895857 6.852163920705963 6.934538767305922
Cu 7.496956344572246 10.415608454298065 4.429283066274823
Cu 5.870560218282873 5.548605933251387 9.124389849871433
Cu 6.845578453810781 2.378362481953511 7.0074245782600775
Cu 6.909098530355433 6.760241082817296 2.6734342097252166
Cu 7.568642735108933 4.698742263670157 6.4928277605832045
Cu 7.958002369585061 2.7480377158129037 4.803379291880061
Cu 6.410869834238778 0.8803458310324275 5.126507375115989
Cu 6.1718347940946 2.3059165315590744 2.894950860124784
Cu 5.381437275853316 4.681554335921373 2.451399125179519
Cu 6.166778749829924 5.561019067701137 4.7054744520500735
Cu 4.979903910928336 4.622833207646479 6.84317135315575
Cu 4.774314020820013 8.813728523323181 7.035667363444347
Cu 4.520943966994356 7.0217173206728445 3.123572712165483
Cu 5.477004642724791 3.148448498456073 4.959623069743799
Cu 3.683342567984452 8.862498097902574 4.612556286139542
Cu 4.502962940527579 1.7330791651104804 6.774793712011738
Cu 3.843939020772987 4.874939959287309 4.340767701175664
Cu 5.317566683380861 10.487607480239179 5.332857536463584
Cu 4.330167008937815 6.821821948836643 5.724573293340548
Cu 5.220835869642264 3.1461763207793663 8.758924128250163
Cu 4.194212260183056 1.132111459518885 4.331293262690444
Cu 3.9660682563543452 6.780143332975123 8.186049462217785
Cu 2.850752248611468 5.305845973488748 2.2389492065076597
Cu 3.567187160106285 4.84097809498507 9.549672024022403
Cu 3.5805806508128413 2.9859369692351003 2.934421053124936
Cu 2.621958939807107 5.232003616205671 6.348643863658592
Cu 2.8605897050566935 3.264601534067989 7.868084712864626
Cu 2.2447603596712566 6.803740520707985 4.2541980807101965
Cu 2.783429187858246 2.807608773364525 5.402964303741726
Cu 2.2902506969152876 7.750367529350028 6.607837532812637
Cu 1.4040677484769284 4.44951323002806 4.206079340547505
Cu 1.5439585152213753 5.600157664229651 8.344602992992629
Cu 0.7897594089011107 3.7563177640844683 6.607198196848858
Cu 0.4733223855145521 6.128958428071725 5.9365369036765925
