50
Energy = -149.80475685 eV
Cu 4.414326935927873 4.158680622246897 9.66885966456685
Cu 4.49773711384277 6.5932744231693174 0.33210583364110047
Cu 7.88469615241381 1.5883487181648064 0.8440463422038046
Cu 7.105482366538755 4.015724289833716 0.7896257895475519
Cu 5.325924339326142 2.0980820808447884 0.45947616536304275
Cu 0.770793055257997 3.6844922677260774 1.9669893619540855
Cu 2.4697561592558626 5.100966445195099 0.6832776207762556
Cu 5.107676299962462 7.926841821856678 2.502617222662079
Cu 8.12683944786505 0.8327309237258952 3.279551267715683
Cu 3.0948902343070173 2.804001390954645 1.3603247415983653
Cu 0.7771069569105373 5.987651992044901 3.0314586621457944
Cu 6.654340775952631 6.389288033881807 1.4499378704030603
Cu 4.836910923477103 4.574385858821079 1.6527487303340098
Cu 8.717923201151802 5.65917830585813 2.556773558150481
Cu 6.170175880648849 0.043144705397680526 1.863523792747285
Cu 8.702618291051747 3.2227380033508135 2.6772759621097486
Cu 2.9423402264284 6.919284859227154 2.216209789637169
Cu 6.433043073597846 2.304227800414286 2.529275806818924
Cu 0.012956549823199383 3.8731087940468774 4.363922561854435
Cu 2.0259234285934546 2.32780590027789 3.6636910653887584
Cu 2.6990906707910547 4.584031715013844 3.0698945633935377
Cu 4.0636670651466025 1.027378902762423 2.730538650016097
Cu 6.702116945141118 4.610539621152568 3.203509284699224
Cu 2.5193680220427463 7.371781101275048 4.628992249125743
Cu 4.524083917731403 5.893913748357674 3.8773466661762543
Cu 4.6205718359536165 3.1839923354426247 3.691996765345406
Cu 5.876264902712705 0.8367874218580412 4.4155974873536925
Cu 4.985911568265355 7.964110992757461 5.008327658954051
Cu 10.09992935260985 6.517747545966702 5.280790601153356
Cu 7.418581127365111 2.7378268988982324 4.853259238722917
Cu 6.938850031803154 6.955318722044007 3.9467661958259774
Cu 1.7735407168520354 5.199578157586301 5.246508184800593
Cu 3.5781180878365113 1.3315266960245762 5.299692096814823
Cu 8.219900007563037 5.121257823694781 5.044909960138496
Cu 5.809106552603216 4.583763457822031 5.465456684971537
Cu 3.5800097141519585 3.719683952431745 5.6712607172615845
Cu 1.3888978546971302 2.673994049134617 6.094610910583463
Cu 3.9599562376257103 6.213589032810422 6.372273721829271
Cu 5.5579605910634715 2.3113039097663792 6.477997032517772
Cu 0.001443323853216298 4.625540129201905 6.89234635590601
Cu 1.5933194968428679 6.86269575448962 7.05755415720298
Cu 7.334219768709435 4.047939490478157 7.149597930739749
Cu 2.417295276562983 4.570763340924363 7.518319273861151
Cu 6.563579085131895 6.544954448572862 6.476811988364682
Cu 3.339181647906514 2.281644813652852 7.7014236009011885
Cu 4.94299124923889 4.3989317306549465 7.86083282935519
Cu 1.0375875327202215 2.986282054045917 8.58841299434483
Cu 3.408062766456773 6.287444520403044 8.814959793828205
Cu 1.0393799083087594 5.430785515202182 9.173454702135546
Cu 3.1095471004896025 3.937828314112049 9.668859664566853
