54
Energy = -164.02846314 eV
Cu 3.8648225357408075 5.310174282941968 0.22251951162178168
Cu 6.3953890811593235 4.963322636096191 0.7644035518206337
Cu 5.06610821419813 3.075371602005818 9.252541893301757
Cu 1.3475082040629653 5.099665282459663 0.32691203623062587
Cu 2.68975859686718 2.9312456735110035 0.5539033407941976
Cu 4.350345991343743 1.3735556770425077 1.4775636401935608
Cu 2.532926486363148 7.1436639219243245 1.618663185353589
Cu 7.309396838442938 6.639090935741791 2.172364975247403
Cu 6.7604963259399105 2.611845956621749 1.5588071356165247
Cu 5.310318646463872 2.1177835725150347 3.6539943108188453
Cu 2.583266800693714 4.791102857729293 2.2548817635142617
Cu 4.708967333977759 3.7755008720994017 1.9480771346013945
Cu 4.807065260846373 6.298390247395003 2.4782545135374
Cu 0.7355590530317697 3.1545261425723146 2.059212027806908
Cu 1.931822194134253 0.8940578239010154 2.1061090039403725
Cu 2.9470438705882396 2.6152904564971706 3.2160726332821405
Cu 0.4756343293901459 5.952998288657845 2.5949248280846406
Cu 6.270992272874038 7.92514734326273 3.971335881939838
Cu 3.775952359047136 8.399613693337368 3.5686289532010633
Cu 7.737836951619383 2.329790117742903 3.7612951601350986
Cu 8.635354025536596 4.487501520498862 2.5280262692337474
Cu 6.531000260103494 4.553030060157662 3.435405687381273
Cu 2.555875590738418 6.354301078515069 4.000797477231161
Cu 1.2819450005351167 8.27729325711931 3.5646941535897905
Cu 8.281015260554188 6.481420945857379 4.352634335641185
Cu 1.0139958196224659 4.145150429739745 4.249651069019755
Cu 4.258687709502301 4.501749596008862 4.325020625743418
Cu 1.1769505398333098 1.6273424317137488 4.475485115512459
Cu 8.674855260627746 4.145958335740238 5.060694392454316
Cu 3.570592144370021 0.6795844807721089 4.686801693399789
Cu 8.566489555751271 1.8734385530756545 5.961725318322105
Cu 4.634254428518088 6.720231005219472 5.22791506997205
Cu 6.361778718219036 0.6998992162823392 5.33894859486261
Cu 2.1890831798428443 5.145253443506089 6.102495648698274
Cu 6.615308692929444 5.377971539147216 5.732330429576981
Cu 3.1412668048685912 2.8856872992801263 5.666293815665508
Cu 4.836198964458309 9.010980334106865 5.788555003681025
Cu 6.057663303608409 3.0372203631847934 5.810022503779338
Cu 2.5276081279710065 7.751134145441454 5.996628442624838
Cu 0.4142695600540963 6.477110913249751 5.063786760143198
Cu 6.876784893660257 7.69011054410276 6.374165703028026
Cu 0.8484694620478985 3.1269630601900946 6.488544205181521
Cu 8.676539188956689 6.011867508139607 6.768269222591298
Cu 4.490578023338872 4.855406277759022 6.863513222127799
Cu 2.133852967474446 1.0546753086896499 6.781437233932282
Cu 7.8948138946952335 3.7530410713823183 7.418343458940254
Cu 4.564900616608597 1.406504933759307 7.005721442886859
Cu 6.92437205259451 1.456716275870809 7.642242118912982
Cu 4.744868627244006 7.338033307708834 7.649435841998529
Cu 2.6348699446439685 6.2685616279447816 8.101539804729892
Cu 6.611458033363704 5.7605305239929026 8.166123217990588
Cu 2.9488155291097686 3.397981132325892 8.04315057075808
Cu 5.592449774596898 3.311345752486619 8.39335593910174
Cu 4.475201491060782 5.277245136801934 9.252541893301757
