55
Energy = -165.65251893 eV
Cu 7.382006045487033 6.615776339802682 3.601162019581328
Cu 5.239572213960368 5.3054821209840375 3.996403700618106
Cu 8.723759786167328 6.393761195710521 5.654962934149248
Cu 5.028472040168262 7.683940357088597 3.8016184491069445
Cu 8.611630310155276 10.826285609056313 5.296070395181357
Cu 9.750951650177312 4.492182705132218 4.630359260878826
Cu 7.331536557305081 4.4635725020071755 5.038089195172997
Cu 9.466471676360346 8.562133106574015 4.867185129286617
Cu 10.92700641979696 6.632583096833173 4.543826496700009
Cu 7.031707734680944 9.0153393898519 4.31509161555247
Cu 6.310146671367069 6.772774211274623 5.758048784563181
Cu 3.8294432111512213 6.722005453511336 5.858897048266075
Cu 9.999656152011571 12.158911284074275 6.813027501100844
Cu 3.13973262413552 4.601349660191756 5.014373134522518
Cu 7.186915842555996 5.184418144113437 7.501704221794846
Cu 5.166958421035738 4.436182945742245 6.238772523329667
Cu 10.727416140491723 5.499680985055819 6.77419861176338
Cu 11.342731325870222 7.9122738130902475 6.5737632359999765
Cu 7.637053994420508 12.946092852096063 6.20241612114524
Cu 6.2470452405717785 10.95476206672783 5.890795728992584
Cu 9.185947146248989 7.303364356780035 7.8841551364307705
Cu 11.114739373817198 10.310715446477106 5.363302755910376
Cu 7.6514937657735995 8.812043949820945 6.61458261970103
Cu 9.895667825325203 9.691019866669125 7.305193103011383
Cu 5.011007118824326 8.883794075132919 5.920660838871624
Cu 3.8970856277164496 10.632446358967991 7.301544976704807
Cu 8.98376994663168 3.7360824114645044 6.84099970771522
Cu 5.746832571864465 12.261904797091365 7.89573563482341
Cu 8.00002629178247 11.333436062936691 7.893204053414911
Cu 5.934312844203521 9.802837605829007 8.107968280715308
Cu 5.395520713263292 3.4505744628093167 8.421443670364699
Cu 11.969204532810622 11.006934551329904 7.5536596603791715
Cu 6.391885891340482 7.387337357963812 8.21308977839975
Cu 7.767242191117432 3.3100550908738247 8.996294289150027
Cu 11.881529802905622 9.004167976899955 8.816742102971908
Cu 3.8891509896682552 8.209031310980281 7.973613821058285
Cu 11.341629848146486 6.652397876383813 8.871989303936957
Cu 4.405467701019167 5.799845326350151 8.097261755560616
Cu 6.174261617156649 3.135690868741382 10.817062858333067
Cu 8.12947845915485 9.23127088911327 9.073019344235185
Cu 6.6230883015288 11.123280033740496 10.025524185073696
Cu 10.098480160509078 10.89539797890141 9.352609795631508
Cu 6.4958217059242696 8.831805487372701 10.928041196296986
Cu 9.46294381749049 5.025772616012354 8.90667818569782
Cu 8.008352664698895 6.867707797686799 9.987088855482579
Cu 12.207175415695696 7.623091699123217 10.905902522119309
Cu 4.398889257025696 9.825830740430023 9.896559059692052
Cu 8.119209923233514 4.691890423718248 11.069399933717234
Cu 6.070713226131746 5.272080570220678 9.797397838229156
Cu 10.096650579138464 8.527116906816806 10.337628499354546
Cu 8.576162858829784 10.201859270884372 11.263503298062462
Cu 8.532028597471514 7.864437332911276 12.118223067856727
Cu 4.768416741199439 7.331021377190596 10.089804750884504
Cu 10.148399378403338 6.18970015465777 11.056851555094122
Cu 6.454864519080877 6.502214591802436 11.840162920416532
