55
Energy = -162.05421934 eV
Cu 3.6715436487026514 2.8543096723676853 5.7525533799009265
Cu 6.923701663149759 0.3722254746792739 6.735738600542245
Cu 7.535315822956436 3.3911471048498547 4.120643406905049
Cu 7.9805696708581735 12.580437419860392 9.974661063244062
Cu 6.164145485519298 7.044621839986726 7.259092933903153
Cu 4.689179833658092 7.7083052276069575 9.227417952758204
Cu 8.20825533146459 8.010446278929077 8.647737164724035
Cu 6.619592692389265 8.410313294795897 10.514041462607343
Cu 8.441769859113766 1.5101101843583788 5.276496179518809
Cu 4.170151420163862 8.871458433590252 7.097650063169185
Cu 10.118683182907716 5.431816865515409 6.025439540188123
Cu 5.304906393357347 8.640658995494658 3.094410679086906
Cu 5.916709719277553 3.847541970193244 10.246883991007495
Cu 10.093237253973223 9.484393409793347 5.697445792868481
Cu 3.01492740227875 5.459343735996166 4.932023048224063
Cu 8.183921855351246 9.885981416167851 7.028562173270149
Cu 6.9202535280878275 7.138172494041876 3.9754681321036647
Cu 4.824354308737129 4.9115218681855675 6.5093796319124495
Cu 10.249878595003464 7.626720562324611 7.278712706711512
Cu 8.555555201899843 3.546020010480114 6.623327738983769
Cu 6.608595787243765 1.9506812952665316 8.552307648069121
Cu 3.759387232901363 9.677062890661851 4.887400069398308
Cu 11.279592733683039 5.2581211102314915 3.878249616574393
Cu 6.654882148439682 4.3166846057623625 8.003135007035333
Cu 2.3085798729326528 7.84224924921666 5.659119966881757
Cu 6.1313558723897374 9.493379567119725 8.313950171635625
Cu 4.441170388972435 2.972953830416736 8.330931031266687
Cu 6.168615431939663 2.6433580902302376 6.051711007409011
Cu 6.856951339118303 6.153961407778335 9.56906947192352
Cu 4.633155672984725 0.9469157774125272 7.079761434733885
Cu 5.142112462929455 6.223774584267691 11.167132605561806
Cu 8.067216644618998 10.245825904365718 9.587802290380722
Cu 6.813479172345079 5.128416452196112 2.6265349075384603
Cu 10.476534365972173 7.392692595651408 4.670556215402098
Cu 8.856227473127003 1.4127726615885883 7.735459657932996
Cu 9.90644533182588 3.394727546457232 4.57449199246502
Cu 4.706984466406381 7.192842301751743 5.202799454448297
Cu 7.069874094802931 5.336292686702145 5.650048112056344
Cu 3.487645141301836 10.137270270334204 2.549986791146192
Cu 2.968817349359921 7.846351019251393 3.3709465458794825
Cu 4.437164444808354 5.283678134432734 9.03017879455283
Cu 5.131480823576562 4.1191354793363795 4.2345942117941675
Cu 4.792594789670717 4.006533406245296 1.8818914884101015
Cu 6.365273938691946 9.057863466826257 5.486224567533189
Cu 7.0048839512154295 11.772137942782654 8.000107134261206
Cu 8.523358561550573 5.803442958453743 7.751943723228344
Cu 8.339133728704832 7.623362558097998 5.895693236200901
Cu 5.363397266474873 10.994782159176953 6.416061046496588
Cu 4.6721857875084085 6.173796306810013 2.9684410120327542
Cu 5.654454262722158 10.530509168571347 1.6172946649427655
Cu 5.577886206420724 10.939093461746058 3.9705152040392355
Cu 8.86290348590519 5.603140723293509 3.9055185904169933
Cu 2.5991397464104122 4.326940487468863 7.39759108717501
Cu 3.3344512564101647 6.6313623973874645 7.393827960316007
Cu 2.419618550496907 1.844543896202457 7.573240291943053
