52
Energy = -158.78586157 eV
Cu 5.9561209407924345 6.416299861073082 0.3678243604537431
Cu 3.848919240341307 5.035300707707346 0.2833914513582248
Cu 6.120014630705365 3.8878135907689644 0.5720302677732265
Cu 1.7719020565004633 3.6310821019186545 0.41438762542183033
Cu 4.045718730973763 2.495536315416512 0.5952583653822198
Cu 6.249534758467785 1.41708988743267 1.0742371619203894
Cu 3.846818392372861 7.3137065080053985 1.4624707904267058
Cu 7.622390219596507 5.388514140960743 1.944120913975501
Cu 1.7443415507250906 5.893396737242369 1.493415732101301
Cu 7.756283263139253 2.9174347888575247 2.3978364954310183
Cu 2.1569781764982947 1.7608531708749786 2.002290889346006
Cu 5.1879123649857055 5.391898890764537 2.3653488255780952
Cu 4.333684881365022 0.6026430831817129 2.521130792565154
Cu 6.105051551437998 7.705715969217908 2.513095863569956
Cu 3.049805942748858 3.9561262316756105 2.408132579453289
Cu 5.310301558825939 2.8486588540254814 2.7290436789658035
Cu 0.5947407787291669 3.9286152792673694 2.6510468246091015
Cu 1.8129897579720577 8.030048250971888 2.7647505355456885
Cu 6.6399631852835075 0.9147068914228857 3.57120176392056
Cu 9.148978192663817 4.418300599688472 3.7696544109028083
Cu 3.087176973491062 6.198169390166029 3.592283150543619
Cu 6.812416429428573 4.4901677129894875 4.1074868444463855
Cu 4.081813230440017 8.450541202853607 3.7931903781262264
Cu 3.2822159488272478 2.038987452700772 4.204114611770282
Cu 0.6371627539747607 6.102297665713038 3.8938772017676415
Cu 5.74251537674539 4.7556860756612425 6.415898155332345
Cu 9.148978192663817 4.16432401958569 5.055118615155903
Cu 1.9466313342573407 4.089646325668553 4.717964405271225
Cu 4.381965396574231 4.322298118553439 4.418045198667178
Cu 8.104364416729618 2.5227113789716986 4.956979705884076
Cu 2.0895926465316927 7.734519709806452 5.271377342316947
Cu 5.476192339459073 6.540706166152369 4.623350325052219
Cu 8.197726511064907 4.736557881728024 6.148480679425705
Cu 4.672067131009761 0.2024683468066664 5.045269845160477
Cu 6.300916477552231 8.737508871105778 4.853249926006564
Cu 5.654266760043028 2.444373194196847 5.279701462745302
Cu 2.755999718569318 1.0748401699690613 6.435340170199379
Cu 0.9844109010930914 5.71934922425372 6.421419715345183
Cu 3.4300322602281668 5.809282038172922 6.089847915479768
Cu 1.1730930401584354 3.269282855878361 6.915815796112486
Cu 3.6100099915115806 3.3148559246778704 6.503989216829251
Cu 4.422251225832753 8.06222192178729 6.317727373628314
Cu 6.945234478623459 0.6289143645216223 6.107764536472357
Cu 7.053745002426501 5.169315788704743 8.346376095382967
Cu 6.6715498899546954 7.052357284928453 6.746359612709518
Cu 4.985319524349077 1.4157180332102466 7.456612840335021
Cu 2.4947569316658846 7.260769909762079 7.733006913937089
Cu 2.668474417112761 4.836457277687355 8.271291004855541
Cu 7.059450109289516 2.8301226238577266 7.350291819585096
Cu 2.882275939949226 2.3572739071521753 8.55857980998062
Cu 4.762509136995728 6.260401621037515 8.184874531630408
Cu 4.98499087782939 3.732033638320016 8.561547428198473
