5
Energy = -8.89183909 eV
Cu 7.927156099412281 6.209739639092568 6.82084219532671
Cu 6.805975202907544 8.317215962213405 6.634994341695155
Cu 6.602872331607179 7.152742804566305 8.583717094968927
Cu 9.287878826296357 4.650820258176894 5.835399552736558
Cu 5.720481434169892 9.38076021881915 8.433485198721655
