54
Energy = -162.92063562 eV
Cu 4.652374667726909 2.109357319155294 5.716356264928776
Cu 4.04356633281304 2.0059543372659934 8.094049494802114
Cu 6.969551110363253 2.8669680458877624 5.176840788023813
Cu 2.877788724329099 2.433048508743504 4.11390032091141
Cu 6.328331239665896 2.6042913157121896 7.550104280422385
Cu 2.534762949108591 3.1376523852302505 6.529327831947431
Cu 5.095232560239144 3.7492359227369487 9.464618218705109
Cu 8.64355169480159 3.4455364156684625 6.955989294534582
Cu 5.061394560916559 3.5905257509348254 3.647190254711538
Cu 7.4452629789676035 4.246364049068924 8.975438170264967
Cu 7.43729372576113 3.457706766334538 2.832226716603029
Cu 5.365508953137285 4.39395434878602 6.15712173075455
Cu 6.190613218755446 5.745598388989951 10.573118024437477
Cu 9.589260688881453 5.258223098993729 8.510723432267742
Cu 2.7285453831616437 3.8859877978794595 8.870595449890986
Cu 8.627743459901032 5.457717851867699 10.822639093115852
Cu 8.837452032677177 4.261197212659682 4.5873048827669685
Cu 6.676218151490879 5.5001867387100365 4.203920968509967
Cu 4.356202068948959 6.089247904269423 3.2580495734432624
Cu 10.178499418620612 5.380938433368195 6.249864562737471
Cu 3.154915445743056 4.689052840383712 4.812322236059461
Cu 5.62909722071799 5.843746152364203 8.11779474799823
Cu 1.5814812751666467 6.037814392195935 8.69795574850736
Cu 3.842035622084939 5.9537667667944065 9.728465278954799
Cu 10.749744507421179 5.503228266563446 3.802627677096725
Cu 6.057295424481481 5.088880273316427 1.817562305872797
Cu 7.631139038393313 5.6674107248913295 6.601509506193346
Cu 3.3518992943864228 5.573828323751513 7.15084312859285
Cu 10.50212376226015 7.786447551418232 3.1294856775716533
Cu 1.2023424855687848 5.369163248347292 6.255922435894277
Cu 7.845127358800782 6.783121666561922 8.997312656857147
Cu 8.875998052499751 6.828891204239162 4.6990337519754615
Cu 8.45310612261016 5.964595592776085 2.4706766838596135
Cu 6.561548546802225 7.909507019249346 7.195216188345559
Cu 6.289733146722066 7.3996011375148605 2.445713930987031
Cu 7.646305112847428 7.802859651637797 11.151088662840266
Cu 5.017946579133578 6.747471089008889 5.683630836340591
Cu 5.71650704494642 7.9910207762404895 9.651023179474862
Cu 2.683235184215868 7.069747931426986 4.933709727239185
Cu 11.149736887425362 7.442960069176626 5.487828618246487
Cu 6.8753799414164956 8.245217407115366 4.762555106869912
Cu 3.970783026642608 7.8029750734249825 8.026656606396852
Cu 4.462354942186727 8.457363914385642 3.9132748800783705
Cu 1.740805434227803 7.754487504829669 7.021777386550616
Cu 9.142944921475708 7.737751947944789 7.081312089188849
Cu 9.542599776902566 9.200062527277584 5.047716926069554
Cu 7.760224728450823 9.204161636560606 8.985657943954577
Cu 8.331024413755708 8.681153641607887 2.8452766749322604
Cu 7.767339327739395 9.9507063807446 6.648069949565944
Cu 5.386235799437463 9.874604784784934 7.8007887518893435
Cu 5.607615104284052 10.25012915103766 5.354996746148782
Cu 6.144496177899891 9.80906583657986 2.865930778444144
Cu 3.5854597405208133 9.138067516329555 6.090481468289931
Cu 7.807676703296155 10.684994678296686 4.340851663099123
