54
Energy = -165.22448705 eV
Cu 3.7593521807741683 3.83621097349957 9.12623961430808
Cu 5.880873728800904 5.056400200211793 0.3277256499338724
Cu 5.699891093039936 2.6865984000364427 0.8172358698092151
Cu 4.805333763057451 7.090413362727615 1.172984763567
Cu 1.0951191356275438 1.3537464251763405 1.01372301842374
Cu 3.394839161775654 1.9293995160096011 1.1856405552813976
Cu 7.480375848672661 6.650446856704463 1.366685745622869
Cu 1.6766769437916338 3.7526755928481332 1.2397123015159912
Cu 2.2677249885199813 6.115468437773561 1.4723574779517545
Cu 4.034535604703829 4.408659511059993 1.9324653551573117
Cu 2.8112886638873693 8.423364428582488 1.9565577779628283
Cu 7.520003975479798 1.6348535920073377 2.1876107246847813
Cu 7.693439391567112 4.120203391663737 1.7315668454031699
Cu 5.132619519816613 0.8762537905619845 2.602080934892166
Cu 6.001525470391535 5.6707141141358 2.8474063763694692
Cu 7.021708527705499 7.765653140479975 3.6393729361965614
Cu 2.6143827477415624 0.4109064235423024 2.9919825890618785
Cu 9.319882669021124 4.504417366003729 2.9444468762163716
Cu 3.757456087944197 6.743728575388999 3.298664117732304
Cu 1.0241837027544105 2.3351633734827146 3.178800677033667
Cu 5.967536169526 3.1277645845085735 3.227245366134982
Cu 2.103694637368838 4.70353735209968 3.576701281224725
Cu 1.8840340657217478 7.934724784758958 4.244116982985783
Cu 3.526008061686768 2.503529717416325 3.6727672611722517
Cu 8.402618859472739 5.678478074611873 3.5772943253379945
Cu 8.378288522223988 3.1415504163262282 3.9919633969285235
Cu 4.42143544388707 4.6376050113516945 4.376659231231249
Cu 6.8133782342630775 1.1465495393626401 4.53405309502779
Cu 4.285833593491346 0.5012420397919223 4.962788265157526
Cu 0.4487170862337015 5.99646160396066 4.967869186703063
Cu 5.350633767799439 6.783525266556589 5.139020475220053
Cu 6.753778368376588 4.648542595892579 5.120958200456422
Cu 1.9230045442542008 1.3896751174447832 5.2826799775666196
Cu 0.4564426450535434 3.5669935176226133 5.231120868659682
Cu 9.021406834113122 4.702913806551814 5.841752985653786
Cu 2.8856353839760693 6.1209182346234785 5.5690661080667105
Cu 5.207963568349235 2.6958398277967297 5.6546987274169895
Cu 6.248909829018479 8.835933128986104 5.855024653470098
Cu 7.716971549079074 6.838693048925433 5.886375556941965
Cu 2.82209323484158 3.5987896896689406 5.904019533461477
Cu 3.8116200006664744 8.247951290771862 6.3926962958793405
Cu 7.574006141485877 2.6922942222778454 6.429690862487165
Cu 4.804064544749949 4.931767573155711 6.793602292225476
Cu 1.402982798018646 7.554714331236599 6.7056076836927145
Cu 5.950854760963353 0.7995576962144456 6.861221312508226
Cu 1.273707631601782 5.078337375766403 7.19346673328596
Cu 3.6114558200761433 1.6267533605820408 7.2446822830689355
Cu 7.17023983227964 4.9901898391120305 7.557981494198744
Cu 5.739779226541449 7.120834791951998 7.581880324986247
Cu 1.2863306329643733 2.582223341615443 7.424456179932004
Cu 3.2569758361823333 6.42290214666662 8.051955340720902
Cu 5.624175633905415 2.961575026149371 8.085895272921109
Cu 3.1825567475508385 3.8935609028773785 8.394754982123958
Cu 5.195219147486639 5.215928996737442 9.12623961430808
