52
Energy = -155.33769755 eV
Cu 11.482191609607566 4.151700888343327 8.703734197851846
Cu 10.314720597703163 5.494145208707286 7.07173346822018
Cu 10.924160112874 3.2990141923515743 6.406175586658351
Cu 9.530657486470261 5.47939242876309 9.388902684989315
Cu 9.504610567635412 7.097697387745737 5.4504433434244834
Cu 9.178886838362834 4.5669688016372145 5.050946482796378
Cu 9.309980079095977 3.2693470093529995 8.317789363984874
Cu 8.741549327592216 6.279348435686867 3.2394539016534494
Cu 8.793382865159776 2.2764375097845013 6.118127797148877
Cu 8.856022365578351 7.29900486237253 7.8107481411542565
Cu 8.287690111014644 8.65720869021463 3.9106741200754023
Cu 8.148350704219952 7.961394938721275 1.5445546390488663
Cu 6.897993390673737 3.6678238337595093 5.567151628870757
Cu 7.658296355447714 5.0567149176780415 7.633673713895863
Cu 7.423338235054425 6.70481899550468 9.73259064668203
Cu 7.030156374658085 2.563508563822285 7.813335499218435
Cu 7.092385407178882 4.514613747203832 3.348294551261417
Cu 7.2267979452722075 6.161028830342343 5.388693290134766
Cu 7.645472274250987 8.680266857799387 6.229744572181784
Cu 5.49537114468786 5.6393823771494045 10.611537555252479
Cu 6.949598250847364 5.84534148109461 1.3318107565536077
Cu 6.633724452341253 9.683132991150027 2.338766912135518
Cu 7.499441305134686 4.1756932196691805 9.929116735696228
Cu 6.3813008392394455 7.255015838417374 3.24410547053539
Cu 7.29823535730279 9.028132639860731 8.69189293158137
Cu 6.58225932431874 1.3182446932928382 5.560356297921093
Cu 5.062784559410705 7.421234863396834 5.455900535125171
Cu 5.7476744309058505 7.964203758051461 0.8420504440990831
Cu 6.244329064271631 7.1397023513965765 7.610923262189753
Cu 5.165326864741848 8.021066994411022 9.555914229005007
Cu 5.284493457322344 5.0947024220411095 6.74964561347528
Cu 5.319926338223437 3.8809687399292745 8.915181709845765
Cu 5.4381964002866345 9.427427481715561 7.075964565856028
Cu 4.5080325212548065 6.228882837422985 1.98944020064614
Cu 5.064351216835731 2.843101847310662 4.11477521334469
Cu 5.96760582168396 9.544781807861865 4.644020138502981
Cu 4.98082018708484 5.277639144136733 4.2815782299138405
Cu 3.118306774687411 5.8952615763999345 6.069922413046704
Cu 4.035927934581213 6.043450818969766 8.750356149841721
Cu 4.834978192802141 2.614986866622684 6.63841030103068
Cu 3.511192946352268 9.204111217832143 5.12327634014272
Cu 3.0461178059517366 4.575964727680496 3.0504998646725503
Cu 4.419585309304637 8.70622831788664 2.8203036036107427
Cu 3.5212044433421528 7.997629882080523 7.399912276264433
Cu 3.1592184731972774 4.0209783207967 7.749475278362166
Cu 1.6074834563907152 7.764940495248407 5.714151363042836
Cu 3.015536056989795 3.587237494554131 5.252711441083383
Cu 3.0511822663226478 6.995727367227038 3.820918730014666
Cu 1.077828863289751 4.303058700738084 6.6159441137523105
Cu 1.6822578370252184 6.316721716622681 7.9438955774524365
Cu 1.2563885317644639 5.47388549949473 4.511455849013565
Cu 11.482191609607566 6.309120774927185 6.394668883381565
