5
Energy = -9.10289594 eV
Cu 8.855952977811768 8.693096791735156 6.837477807312271
Cu 8.403991562561913 8.552083545618277 9.109002067356395
Cu 7.864194949004544 7.086959190372854 5.490057784220199
Cu 7.045893899702583 7.275181113495857 7.679639188117418
Cu 5.417374864666394 5.953908601741456 8.466738701850574
