52
Energy = -157.06766033 eV
Cu 7.103887780106483 3.741271438756189 1.079283105517788
Cu 6.0202441417515935 1.7868133906632366 2.014046703843656
Cu 4.634311256767217 3.8598416083965525 1.1502263129580745
Cu 3.5818221144273212 5.98598627926897 2.411243530819907
Cu 7.227862869435261 7.562421824365622 2.7719019844518185
Cu 5.94704839282945 5.817659150193713 1.7061417259243314
Cu 5.047596137902798 8.052563735216175 1.804800382912006
Cu 3.4444531904714997 3.4176159899758436 3.1780477170185875
Cu 4.3877317965412965 1.217546785469124 3.719711531156134
Cu 8.192332772765566 5.260231208062575 2.6418124473861506
Cu 8.182426222033154 2.7844674437055885 3.099684651188526
Cu 2.3291903977571065 6.872116871262383 4.721823627933511
Cu 5.923053463679913 3.8187572607237654 3.2875060330005486
Cu 6.70226080902983 1.2747786197036415 4.372558704382047
Cu 7.366993713303089 8.947631007186247 4.7430377320722
Cu 1.9045759966862428 4.46695761590892 4.690370840361258
Cu 7.735747590526779 9.74628918816104 7.045718235142151
Cu 5.135274488239096 7.647861004290126 4.252789261095254
Cu 5.0974034392351335 9.889431573037497 3.670102541122902
Cu 8.948502974094565 6.857229448264465 4.426376990786308
Cu 4.316094915992433 5.339879379948529 4.589700918993052
Cu 2.59616838372548 2.001715481731458 5.185481278706008
Cu 6.7884260793560465 5.825801586902955 4.582532388861153
Cu 3.0623457802673135 8.445321355797887 3.034441784715192
Cu 9.273901908014276 4.409400335840339 4.7399053961297675
Cu 4.73930497497701 3.0988376339232357 5.418800741698313
Cu 4.859876375772155 0.8764598468489923 6.183451507888357
Cu 7.161829301120658 3.4969513671659116 5.489807330746201
Cu 3.244740228701071 9.232182730404412 5.303970771822953
Cu 3.234474056660165 4.744702249385748 6.716410525262464
Cu 5.4240284160714785 9.688570462564286 6.185038735842456
Cu 6.610500752876984 7.520785031447139 6.551422984180295
Cu 4.112672491982733 7.124823370500197 6.435265227705525
Cu 9.11349743312491 7.889416310668247 6.557049371069616
Cu 9.02642453434808 1.995170372873972 5.279023949271131
Cu 1.1881395815741342 3.2715197024771756 6.690333077810621
Cu 8.436400417085055 3.2203355449088256 7.504821427276971
Cu 5.673490392783806 5.166460660154863 6.702767232328767
Cu 8.317144811316947 5.598633072074195 6.709439406367446
Cu 7.271460273600807 1.1706200032579028 6.713103095551524
Cu 1.749885498780505 8.079960785122832 6.816537429538129
Cu 1.085020675606245 5.771065373311945 6.744735205932331
Cu 3.4250938063388925 2.440740499608433 7.560778683971202
Cu 7.821822233211861 7.297461969221777 8.623389154816374
Cu 3.7415178233570385 8.939773226165793 7.940636981131357
Cu 7.030669492410696 4.917974568256848 8.693135223003628
Cu 6.0672218685573105 9.090606445229204 8.58315550160789
Cu 5.882612238535152 2.8513040522353097 7.7105426680094755
Cu 2.835037672373678 6.595985142731667 8.498139082219717
Cu 5.319543890545107 6.828222553969596 8.688248665653797
Cu 1.997479487268259 4.295383553944878 8.740132401964155
Cu 4.449057212967307 4.535066445600961 8.809220347739634
