5
Energy = -9.82806806 eV
Cu 8.230853999999878 9.124048999999964 7.4536550000000314
Cu 9.108573000000037 7.9124050000001 7.4536550000000314
Cu 6.201262999999859 7.932716999999997 7.4536550000000314
Cu 8.204436999999972 7.9124050000001 7.4536550000000314
Cu 9.042346000000114 6.732830999999989 7.4536550000000314
