54
Energy = -163.77676838 eV
Cu 8.30078143050096 4.644781409637958 7.624521104655732
Cu 9.172836545979616 6.4170492783976085 6.073396963924795
Cu 6.936182539120079 3.767202881758278 9.595724847445286
Cu 10.318503967646352 5.819693021407455 3.808227336997578
Cu 7.823466253495809 6.015279646117289 9.687746639777817
Cu 8.999984647074871 4.157530675863951 5.188388468163808
Cu 9.539697553794532 8.119381878302985 4.462339758383304
Cu 8.4775638833998 8.83900780787411 6.586960583770343
Cu 5.9377620314662725 2.0095719694605405 8.252261435974178
Cu 8.20464444024036 1.9923461934299969 4.240382475974904
Cu 7.008211269092013 2.9654714932626973 6.203641370468372
Cu 8.991527349723423 3.8998423324227467 2.698825712359262
Cu 5.440943637049252 5.650315721264365 10.156262101831015
Cu 8.011495633059472 6.114452441006401 3.5582151123211405
Cu 6.269497114860275 8.01377588849268 9.627671382539317
Cu 4.399188674367495 3.529739316461916 9.403946757688892
Cu 8.334097758599418 8.297193494911367 2.38494334808829
Cu 6.867255090868648 5.443935527755711 5.648023530387824
Cu 5.96871044322558 8.936249403025947 7.241430730806765
Cu 5.786433765965788 4.659876090908584 7.662293655839499
Cu 8.971422494228777 6.067163992720111 1.412392851418501
Cu 7.829720747932555 9.899558269986953 4.242002406693688
Cu 7.2252349378477545 6.919871611015283 7.565385877534153
Cu 6.967079816633357 7.830669238882888 5.049408747193696
Cu 6.8238712044308985 3.9385735496054153 3.8316184603000147
Cu 5.626838926475128 1.9247457052986066 4.349796994221768
Cu 6.899747633558889 2.265322605615759 2.131355117021291
Cu 4.737847417327008 3.5512363752522664 2.5989746883966696
Cu 6.893983110299898 4.637163454289652 1.4780592233971475
Cu 3.8934211634861526 7.547291070020201 10.441031953032079
Cu 3.450623954065156 1.5641409850587862 8.311919205765593
Cu 4.675056017039964 6.935831750732935 8.199886672535483
Cu 4.51061899769407 2.599398249826607 6.442693129403259
Cu 4.84664763794344 6.805539738377188 5.819238543718572
Cu 4.08292411283264 9.254058390093123 8.784513456501108
Cu 3.4468329321128266 4.981126807261956 7.08757856754118
Cu 2.0012815597005504 3.465293119087834 8.833175817946971
Cu 6.587811500032562 7.036942215404276 1.2613261523278725
Cu 5.577692895657908 6.283101694984555 3.4221318855420977
Cu 4.590530088153516 4.491487266727038 4.916434521148044
Cu 5.4230845192264345 9.761405146963066 5.024438610983373
Cu 2.9538512718979524 5.561008619621944 9.46214300886154
Cu 6.002360605624724 8.821495748391513 2.8852406811144586
Cu 2.0714468484930055 2.801652886596399 6.571062470450769
Cu 3.206692302342738 2.5605935538924744 4.353225439594493
Cu 2.3073436001580867 7.493570974538644 8.074441644888438
Cu 4.628365224932964 5.456745128460226 1.171310637585798
Cu 3.5765320938557044 8.884475021480753 6.441226851819709
Cu 2.337316002146022 6.884165625668659 5.6591570661870065
Cu 3.7838061257305857 8.201223572659941 4.06907849956245
Cu 1.1547076089105068 5.3057369081250005 7.3376941251777215
Cu 4.162752741143456 7.700577525374305 1.7671702759552295
Cu 3.1911933948495386 5.892183076559597 3.291914474545505
Cu 2.0066144566426076 4.607154454976178 5.012085580266788
