55
Energy = -165.39915483 eV
Cu 8.546932474667202 5.244679246622001 2.884574112964194
Cu 10.871097841447815 6.184806230645867 2.451397707804461
Cu 4.622394082957183 5.87606655176817 4.780206796596414
Cu 6.247074018586174 4.373489884122173 3.6584197366510294
Cu 10.349834087714749 5.406907393397376 4.6353545865022205
Cu 5.375403350899114 8.325890256684344 5.163989576920486
Cu 7.619338297994624 9.046886257925445 4.322337233617337
Cu 10.037815528788855 9.745514402421854 3.867738766790316
Cu 9.226328015772138 7.4187323600523145 3.6940735565384992
Cu 11.489307373533453 7.607413871001675 4.433632555117058
Cu 5.88716032736265 3.9144976311284214 6.150390177886197
Cu 6.107733491241807 10.591801616280023 5.5595637434358585
Cu 3.5373150028304026 7.498348509523127 6.542365987519052
Cu 6.954890422828406 6.6158900731752395 4.260853136620821
Cu 8.562272671433302 10.91750840699399 5.591240183918249
Cu 8.143269497816945 4.399259067904081 5.106247349703299
Cu 10.937505374034258 10.88267073047965 5.957041426574108
Cu 7.067906002176608 11.432353317009559 7.603207623357818
Cu 3.8914489814901136 10.017755231578365 6.417043269370874
Cu 3.8650841148744974 5.134360902122023 7.020505103658013
Cu 5.995552556349049 6.416996172392686 6.6577635517489835
Cu 5.552809989071898 4.934985743095758 8.746342854297943
Cu 11.042828453130753 6.541783164191272 6.7484354682506185
Cu 8.590472237411161 6.672367070873101 6.297513182909676
Cu 9.944080860032402 8.730019671637844 5.978984041720602
Cu 7.5283571662394095 8.918676286391841 6.771663745533904
Cu 8.140457017170101 2.558730336753575 6.694010454935249
Cu 10.033307161175173 4.232990532597102 6.720084342932579
Cu 5.396515764445145 8.586430738422996 7.770584818257137
Cu 9.52600081624843 8.217253420370808 8.268466324972163
Cu 11.483318472700278 4.461808603025585 8.704163778492406
Cu 6.023205360788673 12.786741601900731 9.394796007556511
Cu 9.379559295973968 10.599659123542509 7.910638966658398
Cu 6.829872655189108 2.8752772438128478 8.732657799864992
Cu 4.0754904149045625 6.832795933356634 8.909277710449015
Cu 9.26583552125646 3.370665455065423 8.94485679426747
Cu 7.676090300444179 4.755636910127242 7.550460244587312
Cu 7.310764180246993 7.039631216926799 8.61248673145192
Cu 2.7302361571029405 11.428602884032282 8.02885026974083
Cu 5.87457396605446 6.526623125380725 10.66732349594912
Cu 8.15674880857158 11.698251228745951 9.82009432924071
Cu 7.296833129954853 9.46352380388434 9.206281174101942
Cu 9.048297833603312 7.284717475579555 10.451225298647676
Cu 9.615611442817332 5.848053813246509 8.613984595416346
Cu 4.895572102338637 10.803473218449897 8.708875336828193
Cu 3.101297654443004 9.071861330344948 8.546170288261733
Cu 9.533954752096419 9.673810609378513 10.304611341735649
Cu 7.645156854826137 4.892851692229302 10.097694963445436
Cu 7.882063834845243 6.254086229059731 12.175411266961504
Cu 8.174651640851124 10.622266188053954 12.06276026825024
Cu 9.949008184278737 4.959919222160905 10.83343449510442
Cu 6.988941092168682 8.528236312707358 11.595575221002356
Cu 4.955114017636211 8.750282650086175 10.216778982429489
Cu 6.064560776290396 10.836447015718479 10.896452882670818
Cu 9.220763480993817 8.457726945719703 12.529121249881928
