52
Energy = -156.10300508 eV
Cu 4.780394254611698 10.44379769494271 5.373841357939149
Cu 3.6867870897905775 8.566722817345017 4.0567269652906885
Cu 6.108595852577237 8.86506556046292 4.018449237823125
Cu 5.144242073722214 7.2823760042764265 2.3445777835048536
Cu 1.4627797658742117 7.704294377049445 4.877874685700983
Cu 0.41243778726879565 8.938168300827046 6.719990656356604
Cu 2.63064923096227 9.5740341140324 5.995034757697555
Cu 4.321180982443371 9.728604416769755 7.819497305216658
Cu 2.9275527554868788 6.40688020101218 3.425335478588488
Cu 7.045958722493639 9.706865072428144 6.121944905683103
Cu 7.6800410376044805 7.341827439135408 2.966330552079721
Cu 5.055290423904882 8.144197778256947 6.19448067132811
Cu 0.8635966141046657 6.536445144713544 6.978368511647694
Cu 6.89965422690758 5.109628374725566 2.505284631920103
Cu 5.645535540882642 6.373575870127666 4.465623532178782
Cu 3.2360448676366707 6.492044716188088 6.198667399002662
Cu 8.494139988145266 9.343388232542193 4.105433390335126
Cu 1.5394965085912649 5.099781830412546 5.090726956421834
Cu 4.557860210696789 4.9007975899270635 2.4466669486728203
Cu 6.516274380675807 8.666095209011683 8.300105801119981
Cu 2.3743013255579735 8.178181395648982 7.958918145646193
Cu 4.549195531390762 7.234736332644454 8.458666030921384
Cu 2.3671246437044546 4.037718834041774 2.979556268742616
Cu 7.355932598168503 7.1823995146177975 6.362619712657519
Cu 3.955408411988686 4.539416405806434 4.814873816356308
Cu 9.77552098994037 7.195798364091819 4.362124587561753
Cu 8.05323741798064 5.495100649643229 4.6972512521856
Cu 2.4349791794233915 2.71838557041779 5.0576195175820144
Cu 5.460228177200256 5.4970655529528 6.720839441493406
Cu 2.6332463838432676 5.753125724254517 8.519408613095033
Cu 9.371204446900272 5.513892747163345 2.622373359115657
Cu 4.486345555898773 2.6300277230461093 3.3552467103884833
Cu 8.750596038533615 7.717181563313579 8.411265847560925
Cu 6.306830242437667 3.852557511494365 4.844666430344366
Cu 3.4926288991865917 3.9111873209847046 7.115663503983748
Cu 8.426423279696456 3.37156694372821 3.2768862382793404
Cu 6.838256715594188 6.273812787253249 8.83841915338892
Cu 9.318041838371341 8.672983293414012 6.259167309046908
Cu 9.757121017106767 6.235915881004184 6.641140916068806
Cu 4.868481250263966 4.797250880241511 9.068985005969985
Cu 7.787686963057938 4.659025285242321 7.0091035016349625
Cu 4.716143722111666 2.1504373764751956 5.717805514618225
Cu 10.219738812017503 4.56514086190352 4.82422736331707
Cu 6.750477534820779 1.6819273581110799 4.00876470726359
Cu 9.204800203135552 5.417670016263743 8.953310404780016
Cu 5.895426348677138 3.1169105411077243 7.627058230102939
Cu 8.600020136464632 2.7531256528111108 5.564353429257364
Cu 7.246702854659164 3.958411702580088 9.51610727201744
Cu 10.134621526959927 3.8399530544291927 7.268043205942922
Cu 6.888354466136129 1.2566814074254042 6.37275276295686
Cu 8.294391080838468 2.367117777060086 7.9710511034750375
Cu 9.660492029703303 3.230068844566398 9.726419075248971
