50
Energy = -148.98289434 eV
Cu 9.594529730906036 5.422613932493495 3.2719332721313856
Cu 9.90216436889089 5.409836665969257 7.3049422268404065
Cu 9.108585348841041 6.538280342582199 5.318385150333324
Cu 10.847059512843614 4.460169341134389 9.328072029293182
Cu 8.452173085760407 7.730682359848299 3.1809107171117046
Cu 9.257838935108628 3.91596145129153 5.241783542090169
Cu 8.254534638849627 7.314447603260843 7.4849841816916705
Cu 10.241579217703565 3.0044263843030135 7.401680688203605
Cu 7.6583795541353075 5.7925686951258 1.8499749150678164
Cu 7.483097480256383 8.43815836719551 5.369336685277277
Cu 7.7173751185609625 3.869107739771022 3.3463659619136004
Cu 9.140978325762333 6.2727637627937956 9.506307927796144
Cu 7.133262736437245 1.8230049015195888 4.747813941229549
Cu 6.823792427695691 9.700462433184274 3.3519213312337053
Cu 6.869539954072614 6.152059626030489 4.3000772001303345
Cu 7.478803967559317 5.004205530398045 6.542184967327688
Cu 7.322591192660813 7.976526851206318 9.636038562346535
Cu 8.555105017333133 4.0004449057408005 8.847325079818187
Cu 6.746132104560386 5.755181707653575 8.858944219608816
Cu 6.108383800396338 7.566751006241731 2.295384398913487
Cu 6.459193831460904 9.075813789622302 7.607246402971406
Cu 5.890144206315314 6.905172761417272 6.528222122871167
Cu 5.865415377998008 3.8256880476817057 4.945396674079011
Cu 5.090090332584681 11.47954581795546 3.609797699128301
Cu 7.894981232459284 2.595574747548485 6.917316093833551
Cu 6.291696671405432 3.3065290092357764 8.779516471783909
Cu 4.527144642035282 9.445506456777911 2.454672976965468
Cu 5.104008856698231 8.16045796984498 4.526862116565398
Cu 5.6568737606613455 2.6710983062150437 2.7890411908156323
Cu 5.7124727181432515 10.290164275952197 5.5869788251272805
Cu 5.3653666257470665 5.125753749085685 2.6592727170974664
Cu 4.983249034767871 7.53762229384262 8.884172694184565
Cu 4.35599628066537 5.793563781707482 4.835771552740527
Cu 4.389386835308971 5.126391277490034 9.353612657712178
Cu 5.557020931639775 1.9607846422047814 6.8388222780240735
Cu 5.036812299393298 4.548083414720511 7.1003127592280215
Cu 4.090210744615255 8.824918083131807 6.746166777722689
Cu 4.611109620205705 1.5592922613611424 4.665451765057974
Cu 3.582486313775997 6.499328831401116 7.123199029208299
Cu 3.729991539749417 7.206010372220609 2.7651700403804624
Cu 3.3939343450215924 9.914127671364097 4.605380339613874
Cu 3.570038312756958 3.674275187024443 3.8575170940944874
Cu 3.9528723205378222 2.761342721277759 8.552769445146925
Cu 2.094462159001256 5.609739764006339 3.3620881362411756
Cu 2.562123691769757 6.781742665635332 9.24475359935526
Cu 3.3179003357607946 2.958549784412878 6.2256853837643344
Cu 2.5831282496935684 7.559300746435584 5.048687999311536
Cu 2.366835963359393 4.581810218496443 8.0238317629851
Cu 2.1385314499165125 5.032360375230688 5.631536126346455
Cu 1.2392723686380758 6.783572992062412 7.111317958325472
