5
Energy = -8.59794247 eV
Cu 10.2780504404424 8.596723180752795 8.562874103019778
Cu 10.412176514406031 6.516808507241958 9.479145075420872
Cu 5.748561554681311 10.337397456690722 6.981825438768187
Cu 7.552546431022135 9.746476328283475 8.35415448000039
Cu 8.340236109637653 7.5419203041170375 8.761607634514393
