55
Energy = -166.70625267 eV
Cu 5.571122864974057 10.051127086296718 9.085952865624998
Cu 6.952638020623062 10.506193595278432 7.153753908645928
Cu 7.657949457558963 8.892372342727674 9.070152342120343
Cu 7.842538303829842 6.805134235753883 10.447270089771015
Cu 5.621236375949176 7.736794753971914 10.083184539895658
Cu 8.964997185971354 9.085213440573504 7.044915023846353
Cu 9.314954790278634 7.058296754265501 8.557258895985646
Cu 3.8828365966066825 8.486836381905404 8.559535258751799
Cu 4.374260000124844 10.353792371675057 6.895522121388479
Cu 5.811606508693786 10.245840896807303 4.8906856608935545
Cu 5.815689245013053 8.380568316127334 6.643448640357404
Cu 8.21881928309824 10.281093836344112 5.068253892652422
Cu 6.033787918210097 5.242090704243734 10.045997695236727
Cu 10.860495950422045 7.456757071846891 6.7680064832838065
Cu 6.859871273749774 6.715711814845154 8.100622136083608
Cu 3.0716063809173644 8.35866958171435 6.234288490730699
Cu 2.064517842316299 6.989098547968236 8.065877167987411
Cu 8.200692837277765 4.840120194017868 8.87520421543503
Cu 3.8219048847314925 6.071867552808487 9.574156304550092
Cu 9.750883158952693 8.419081667833067 4.749309586075144
Cu 8.579985585746563 6.81272270513246 6.153773255162331
Cu 3.46610905025566 9.932890517110001 4.516489308644215
Cu 9.931581293870538 5.041573531293918 7.113939694312248
Cu 7.113543976976667 8.160639123154677 4.5281354243745655
Cu 4.422982815199316 6.474221110627543 7.244977539948413
Cu 4.633922113069985 6.956650189760198 4.698898484227024
Cu 4.989132658688373 8.685737611835922 3.070391186421642
Cu 2.5804662596903243 7.664567122228345 3.771711837448219
Cu 4.386872646435604 3.5690695185365646 9.288321971297963
Cu 2.7143666056428195 4.652575284364471 7.800374629375758
Cu 2.2336576447928347 6.1029063751661115 5.789647391293929
Cu 5.954266399020327 4.4305549155936585 7.68261519272563
Cu 6.470465634858668 5.802474335765804 5.69843628933366
Cu 4.248973138978224 4.5887905111193525 5.73139918186195
Cu 10.623714996158412 5.977718851044906 4.875189893616
Cu 8.710450699215516 6.561286826900663 3.5462695251389778
Cu 8.631918354503672 4.525666943631917 4.996616262536124
Cu 3.776755492201665 2.602330301874902 7.106946018367279
Cu 8.166994382212119 3.24868795020547 7.023627321374938
Cu 6.066764060235193 2.0559352178316743 7.897294773892158
Cu 2.78231801614856 5.055407245060275 3.709844833966068
Cu 6.495293805967593 6.774314079859 2.6182211106753828
Cu 4.101719869971451 6.433786006646854 2.1856075703378997
Cu 5.437237976265204 4.7750046970176125 3.5956019527777983
Cu 2.0833190628509475 3.5719948415797496 5.585926617192273
Cu 6.24879044485203 3.1548521142629746 5.414060466926954
Cu 7.792218826530921 4.540592147658855 2.650926615305538
Cu 7.4428452992428245 1.1243446335453093 5.996058622604301
Cu 4.991360131383587 0.9195650104974061 6.012398472874142
Cu 8.078436462136265 2.4220696477451935 3.924167125286567
Cu 5.8655919254517315 4.942397012616504 1.1524898671529082
Cu 3.8745206885473804 3.8102540871168573 1.9745996920947966
Cu 4.0316284377742075 2.6077560188252273 4.217019631835413
Cu 6.095842886719591 2.7903376348330706 2.361318549332966
Cu 6.061418405139801 1.0315396585868157 3.931183297002679
