54
Energy = -162.70490803 eV
Cu 2.579631432535742 8.408632744016977 7.094830073877087
Cu 2.4102743637246014 6.153392696681738 8.459546665065401
Cu 1.0865783820188062 7.990995223538997 5.248191431629019
Cu 5.011909461331305 9.088739203917278 6.389594661733923
Cu 4.565086338485328 4.904882571920476 4.33307568240753
Cu 2.5755701932366533 8.348471765113468 9.545287743837358
Cu 1.2148641384959855 5.836204299504045 6.323696564133249
Cu 4.553974367169821 7.103028299251521 2.9987386673080536
Cu 5.34449019077542 1.4383785245190202 3.7645838873693105
Cu 4.284363932680069 2.736097167963511 5.577987887849144
Cu 6.206648767238488 1.3352724765823882 6.04596720830504
Cu 6.455528485098063 9.221769869562854 8.351899046857776
Cu 7.438830123501145 8.752303133163526 6.125097485888813
Cu 5.400824603498231 3.700257301606183 2.2715523836311493
Cu 4.543129536154542 4.864986485417534 8.964809672460643
Cu 5.283938917561452 2.7600150897598636 7.848215189678971
Cu 3.7444138990839257 6.49838013401538 10.538329564380202
Cu 5.465617952553046 5.8700377933459835 1.0860286704367963
Cu 5.776157694207103 6.955229756355105 5.327809406598724
Cu 6.687345408222184 3.320354423796112 4.581755825244395
Cu 5.014100704179534 8.607900617937185 10.326371410989555
Cu 7.576215436901307 3.157879112836273 6.868971449886094
Cu 3.0455890099096146 4.090885676724521 7.218182845884094
Cu 9.47821504444814 3.7293033302165512 5.441789825531898
Cu 7.519029031593393 8.38658543886403 10.356971813009373
Cu 6.153847309033992 6.420966878710728 10.052248890842833
Cu 6.984038190693178 4.503363866571847 8.762593222937337
Cu 4.627790525670356 7.343674218056664 8.206040064966428
Cu 5.540428722909055 4.8726574505085685 6.676957062543178
Cu 11.110810709562436 5.435967700453927 6.24460288112052
Cu 6.66947818414242 5.625214707161332 3.2276979351687025
Cu 10.632493530175665 6.781757979296462 8.2782556280955
Cu 7.215706672004661 2.157859234049991 2.3529904297018227
Cu 9.116009906410977 4.970783517175968 7.584185242599797
Cu 8.569341416560492 6.318913965650046 9.540528462902724
Cu 3.5506700348233062 6.325290378797552 6.162732318578839
Cu 8.605240465077383 4.0295232443087325 3.1915007925396
Cu 3.3777068445040666 2.7678183271434955 3.221071488439053
Cu 2.3067600364323453 4.139016827468151 4.899329248155323
Cu 7.72276168877671 5.39744147557403 5.485797970147556
Cu 8.793810997037319 8.451491757758832 8.24948393863326
Cu 4.693801226246878 1.605293912496693 1.4645021204153896
Cu 7.038968260266885 6.743431937985227 7.5789662909574345
Cu 9.852733044233181 5.882810169344887 4.189939770589621
Cu 4.080929420865408 9.881251649985002 8.436394647787353
Cu 9.379888956222079 7.207762520850158 6.212652972349334
Cu 2.34262170703916 6.386832937364775 3.965107449355234
Cu 3.348021392311196 5.033546523671399 2.202508215774598
Cu 7.4347518363760265 4.357333456194983 1.1012513214388158
Cu 8.047720645950987 7.568378320040968 4.094324077379966
Cu 8.689932326195734 6.282991803013375 2.0386196723737093
Cu 3.4542862812294066 8.435960285398044 4.71910528436909
Cu 6.7336484158222305 7.822619572156624 2.0087331943814495
Cu 5.908433381586002 8.96706236392387 4.024350222014395
