52
Energy = -156.60689826 eV
Cu 9.751176774242687 5.292981242197524 4.2372616898465925
Cu 8.227435310653831 4.249331644778387 2.2706882744082124
Cu 8.593919615155734 3.2017788650682886 4.517949864292067
Cu 8.781191612724623 6.681347299492587 2.53895835790916
Cu 6.679529510094545 6.12972865409354 1.4092937154531249
Cu 9.620595470595122 7.391795503776481 7.1586714262798505
Cu 9.245880144664799 4.949991844373818 6.604369438708169
Cu 6.940817089411802 2.209429600145974 3.040356516322119
Cu 8.715196977813338 2.412452643516991 6.818835285971081
Cu 8.511957485770552 7.357721132197075 4.989657368728201
Cu 9.057408369695926 6.039101476641435 9.026695739104746
Cu 7.253808657754304 5.44656653761809 4.132045257509425
Cu 5.758457719442714 3.9108133934898 1.845091117523811
Cu 6.75919604667599 1.6801419242892999 5.402139503797527
Cu 7.503169163345826 7.9721496679265185 9.032285661751686
Cu 4.305918490382792 5.660401157992585 0.91990824392492
Cu 6.770299758775975 7.860218407027658 3.1243870274401964
Cu 4.710226783420723 7.967149019409356 1.8553986707093786
Cu 7.863354736486661 9.027984380131292 6.81441422728565
Cu 4.978270904480376 5.975830639624808 3.2482091989605606
Cu 7.253153005740951 6.466612874667718 7.16859512881844
Cu 7.010056326039218 3.9975206484885764 6.223294561829572
Cu 8.009676228645816 3.968552165715282 8.582151530714821
Cu 7.7465503958381765 9.632156523591984 4.409683615880306
Cu 5.359638267208347 3.7409345760333377 4.326365694176721
Cu 6.460375578127177 2.1783584988479823 7.920438372453562
Cu 6.143915967087345 3.3728565996955564 10.069962757409161
Cu 4.649367357895806 1.5728780474218829 3.9410705053128603
Cu 4.626971789086879 2.3954306406860737 6.359207315417827
Cu 5.300474133520632 9.743239009931804 3.725988387810586
Cu 5.60968546933375 4.723752577579259 8.050429003511928
Cu 5.995452968009943 8.099509506225907 5.486922831239963
Cu 5.356076071970999 5.735216887358124 5.726399066826626
Cu 6.131535746027258 10.601543428960461 5.93150104527593
Cu 3.4351220643251934 4.147555900115063 2.7233062011097466
Cu 2.670242216090254 6.556166926416918 2.5094436819239343
Cu 4.112336035421449 2.8614652157472245 8.719202163123594
Cu 6.8286176336416435 5.730409291709094 9.962968662112289
Cu 5.622947811732302 9.128287045782601 7.793430681321476
Cu 3.795189994981211 7.928044662951803 4.179205795143513
Cu 5.103685886839793 7.115607698088232 8.972005946116884
Cu 3.439823468769559 4.495257176413492 6.9153347336798
Cu 4.264546696888894 5.0023212068294916 10.046859818153928
Cu 2.9135235996081525 3.179858159634517 4.87216835872571
Cu 3.7823291402060595 7.167787984045458 6.783487967888774
Cu 3.9059909698067212 9.54397711431375 5.996834910383748
Cu 2.886761884025192 5.705565456832294 4.8350876405118415
Cu 2.1198666755919295 4.3291748535939405 8.903271727332285
Cu 1.8456756157825596 7.976078509691388 5.579018807089683
Cu 2.7320411569208334 6.623697906839537 9.010639093333172
Cu 3.2597503691876786 8.905819141510687 8.326179673322379
Cu 1.5321994559953447 5.983426340076175 7.016294581910707
