53
Energy = -160.16520946 eV
Cu 4.76064774025165 5.056666305727142 1.299329857618602
Cu 6.472151851113333 6.673995876612179 1.431970090893929
Cu 2.316024739586236 5.353925866346873 1.8207716241309224
Cu 6.07973733169128 3.1921463948774464 0.17903739696970244
Cu 3.3320733259983464 3.0652211384257027 1.0272330336510849
Cu 4.909339198051225 1.0335150465754426 0.9574649415948073
Cu 5.878046315885164 8.521373083928845 2.767887368487499
Cu 3.8898199806721285 7.471605831904982 1.4962317911134293
Cu 7.239616118926686 4.448981621797284 2.1142909912447623
Cu 1.3547999778145332 3.1017748997615073 2.833041584782346
Cu 5.847468588355541 4.602577186098001 4.158044223982666
Cu 7.2858233278094415 1.4892482932971602 1.8504426880445457
Cu 3.5616364470411837 4.051289812481635 3.3169674003410154
Cu 3.206696955006626 1.3572081685472202 2.8065476201102384
Cu 7.344117928784081 6.529049288618801 3.736304264389237
Cu 2.0323281953685775 7.153758498737996 3.3978726475276213
Cu 5.420974122045041 2.850528560169521 2.3679340846069254
Cu 5.625043142399881 10.218975103984363 4.51594099742712
Cu 5.538249833931564 0.372467668537074 3.322000955560318
Cu 4.466471829519959 6.419216260976017 3.4694099268538072
Cu 7.866915286735895 0.44828474930737877 4.154252970142014
Cu 7.7139336726148695 8.87890211338003 4.477253951022663
Cu 3.6614488138426644 8.860784887332223 3.7808370952719583
Cu 1.0903845760326778 0.9370540566490968 4.173419166536536
Cu 7.398718437499934 2.743319506271966 3.98916748669347
Cu 2.4577361885995037 2.6424414021957237 4.989041626812468
Cu 5.647189615140407 7.830130933384715 5.153187872814646
Cu 4.762094119737063 2.3038263242848043 4.568043247081134
Cu 3.4643020150991655 0.31639626735659343 5.085474274975083
Cu 1.621890374825886 5.008275780795071 4.468728813228361
Cu 1.708927296087574 8.532342381479127 5.4028793527012136
Cu 1.594808710318502 1.2510221166769915 6.653607496998579
Cu 7.980447582135325 4.745367553625493 5.4336716263200655
Cu 0.2374655568287495 3.110037071741057 5.426755064384848
Cu 6.143300329205574 3.2573209621725487 6.19179243496066
Cu 6.066301257814226 0.7027191199181867 5.826199762467541
Cu 3.953429744278907 9.447798408697462 6.179803603022992
Cu 3.42286941706479 6.909093159473994 5.634537942445053
Cu 7.749547746271979 7.146098685338185 6.282943448382124
Cu 6.569097672236953 9.431761019450127 6.657641647696252
Cu 5.8316190246943185 5.728156708929713 6.488643027652026
Cu 1.4257137565558755 6.011744930770098 6.674129981770503
Cu 3.898713269867775 4.462612181916092 5.769770256210748
Cu 8.187723021354046 2.064985957804502 6.218373371182919
Cu 4.032468574870188 1.929855488361206 6.9310671446010375
Cu 2.154229424292305 3.6863604207243403 7.242837655908799
Cu 2.539073536877881 8.04755202751818 7.6716006596985835
Cu 7.4677632838344925 4.263482984651126 7.858160085909285
Cu 6.389697077078358 1.862761435155927 8.065291007251883
Cu 5.026730520749326 7.823210262847491 7.666580637069699
Cu 3.5470843161793693 5.82960858205205 7.948878882110608
Cu 5.931466271686908 5.954584623531729 8.882836992481039
Cu 4.885134679489364 3.857875108955473 8.173160045017374
