54
Energy = -162.00355362 eV
Cu 3.349166103104354 4.993224290270365 8.41855629535686
Cu 4.006425553506408 2.420452884674822 4.2183414608102865
Cu 3.509285142689713 6.459427266033474 10.37780722338561
Cu 3.6466002255182333 3.641592005701572 6.415277452792795
Cu 5.0030905111673265 2.92026574794289 8.349701900307153
Cu 5.429492439004836 1.8064612925485115 6.135153349528277
Cu 3.637613581269035 6.274118549584174 6.144536780278738
Cu 5.335517144213548 4.85358877944699 9.912504233918183
Cu 3.3021058825123877 4.719729666872112 4.23183828689867
Cu 5.820728973835401 6.806715335652528 11.287503148816752
Cu 2.687259456257227 7.344497289268943 8.159677796256501
Cu 4.75225734739224 1.788156020204239 1.983892981834068
Cu 7.137621342894266 1.5711581651517248 7.807758236337404
Cu 7.2675696193349895 3.722136669089069 8.822063028586726
Cu 5.5345953765869265 5.157500078245843 7.455523867272413
Cu 2.717528617860418 6.998676782541573 3.7454395344789493
Cu 3.071521936985786 3.500729973450657 2.1663364821086417
Cu 7.694063137748323 5.5070408924925385 10.411222987310245
Cu 5.453178009758411 4.054358856564464 2.684939876965456
Cu 2.7111085209416004 9.396732883719357 3.39844827199359
Cu 5.154198890830753 7.34406955399739 8.878576896058998
Cu 8.237476654354891 7.221424388654228 11.953124859893414
Cu 3.936500687039635 5.789384939447285 1.985840905861805
Cu 5.753107783535484 4.104655111580504 5.231266252254765
Cu 2.2406576634448543 8.369711641309467 5.88447669667307
Cu 6.374361730674194 2.0457221375393173 3.7754126171834472
Cu 5.288625485995431 6.212052533103866 4.066848630816043
Cu 7.76155570662547 2.5907625198042457 5.643774175886241
Cu 4.411013730130654 8.384204946394766 4.799174281860726
Cu 7.771263546428225 4.87763749400132 6.598449531933525
Cu 4.664635433083951 8.05634739753581 2.3683475721283487
Cu 4.2728077160735305 8.90790956917918 7.190271417731371
Cu 7.4647702955125945 6.710901999616128 8.211065177850532
Cu 7.69579677121783 4.181808900392372 3.738639584817595
Cu 3.597754609181844 10.531141040922122 5.417563532419775
Cu 9.216939455278771 2.937649161342098 7.455734506003689
Cu 7.316873755172714 8.313088047787245 10.034476043142906
Cu 6.976561295883336 6.229751645350278 2.351491432779512
Cu 9.355609937487694 5.0031275040152945 8.608982513108172
Cu 6.105764678759023 7.2329187666732535 6.212373956462489
Cu 7.95332861377476 6.462654964541393 4.715371176618439
Cu 9.459934111778736 7.141161309451654 9.743844174656807
Cu 5.046430844982931 10.282245073509616 3.386260214484692
Cu 6.6312181386150515 9.11015260962862 7.830483239472651
Cu 6.6404858086195055 8.394210039494228 3.810342848611404
Cu 9.700121983065841 4.6549420124849 5.274926130892032
Cu 6.097376090994368 10.000324312411237 5.653801877524099
Cu 9.533046280649941 6.768098185361151 6.938620677115136
Cu 8.99851755636014 8.884748049336022 8.13147021401727
Cu 9.424289448972464 5.658556880482297 2.923238921973853
Cu 8.826450000829446 8.017970168289551 3.000340055155738
Cu 8.353492487949538 8.683413154680212 5.68027080180546
Cu 8.097290167643823 10.792141673115463 6.889770170962494
Cu 10.288863671790859 7.1398625966447975 4.710804012617905
