54
Energy = -160.9552848 eV
Cu 7.968380169970988 8.82817149775153 2.9919398901068925
Cu 9.137995666113836 5.929027825289422 5.751494504086964
Cu 3.9866047253400563 7.630472474558269 1.2468116759770849
Cu 8.17710132211305 8.209693432410065 5.4798221118877555
Cu 4.014513515487784 2.739717612950033 5.450968514540655
Cu 9.563724158787483 7.813727081096672 7.529302305214403
Cu 4.7622351770345235 3.1726625787989837 3.1931385855493257
Cu 2.0182189519388993 6.17511561784125 5.450154989660415
Cu 6.417300661800407 9.944598440431701 6.633028063511565
Cu 2.465546909707322 4.199418997758777 3.975998398470979
Cu 2.097866120047387 3.9039050535299396 6.375226746476479
Cu 3.8497347237393442 7.305832035071825 9.32424036423504
Cu 10.24768914043867 4.879305837904521 10.294254254953634
Cu 7.159097714474614 6.937594766997876 1.4613559447701536
Cu 8.776366734463389 10.033857166885685 7.063766392063256
Cu 3.8134768112318955 9.007502825303137 3.2864785713286455
Cu 9.936670739132648 5.422299809821979 7.996714075861391
Cu 3.4069849227432774 5.687190621319083 7.39806662283831
Cu 6.45306746056426 3.6364305784763826 5.002366456403422
Cu 7.592237853473506 6.340902326272648 7.575770016141313
Cu 6.272417181701427 6.597404763039801 9.668428520162013
Cu 4.536735112580486 6.3105506714801765 11.436076349295242
Cu 8.751390089381038 4.117901548316479 4.193729616079665
Cu 5.938638585506116 2.145798683294211 6.859712809626302
Cu 5.3661538313528325 7.065505731476737 3.1225629851803944
Cu 5.470970935452085 5.233429201725587 13.298254425920542
Cu 7.969443935567097 10.51475230475219 4.7829789218494305
Cu 5.375165412734507 7.291232189566651 7.3444151823191595
Cu 5.8830818005622 1.3654255267055386 4.507239114093563
Cu 3.8777496547655486 3.1779312982875116 7.87435394198991
Cu 2.8568841243484933 6.627786455843041 3.2237671384773563
Cu 6.4241649582928435 4.977285881352943 2.925421889446531
Cu 9.715663972513125 3.1131488293496004 8.586157400582387
Cu 6.014417248294885 9.106976814284675 4.40432838731262
Cu 7.220101575660855 2.714962119055021 2.8215114267815697
Cu 2.014304823509546 8.56339232634943 4.870235129619797
Cu 8.796867385632813 6.897725509077204 9.68841888859803
Cu 6.255476459369073 4.575375480002008 11.15314646906154
Cu 8.327828683643748 6.492454993431166 3.5308565622104386
Cu 4.073061723830257 9.788782084966948 5.813670464597503
Cu 7.946031341279727 3.7875412592063293 6.998497442481382
Cu 5.878718067315469 9.062349080351153 1.834499469907794
Cu 6.154098074232259 3.233837578368537 9.006730223341442
Cu 7.2916761244683475 8.597644695461607 8.486655854935307
Cu 5.666973993422669 4.745262532661946 7.107563729633637
Cu 4.1819581359514935 7.471865292595227 5.243885646285785
Cu 4.48580521755692 5.1647834627615214 4.664489468821278
Cu 6.560268251768518 6.288398714660247 5.292897764548668
Cu 10.203000663795775 3.751042839173565 6.181413337435163
Cu 4.430977542209931 4.901993661356453 9.489203959816946
Cu 8.464083188259039 4.736691109896383 1.7895083555029365
Cu 8.001946241776373 4.63357898974196 9.47967675586253
Cu 4.730559381254045 9.372727181842189 8.250613669140716
Cu 2.824818576257664 8.080284917527807 7.195580139124741
