54
Energy = -163.63288785 eV
Cu 10.187090068461282 7.428522810939815 7.405060950908814
Cu 6.400104092560077 11.064524370544378 7.062920887256861
Cu 2.542171666459895 8.250376368382655 4.877517268339498
Cu 9.209090149317813 7.398683536823043 3.061464401534605
Cu 4.8981760964560515 0.9257125953293799 7.166314664423146
Cu 1.8284922947084152 6.397450033070411 8.874151821991646
Cu 7.865116531357241 7.161444804412473 7.131477639015371
Cu 2.587562701526836 2.199499361709193 3.7074915472012298
Cu 4.269542096844576 8.065969296140636 9.037600661586914
Cu 5.510933868874571 5.845665879957876 4.37322319870161
Cu 4.29763902260006 3.7197077326887342 4.462931337759945
Cu 4.289606932290362 3.1010283773654854 8.290178549338703
Cu 6.065252275909227 2.777114675229643 6.1552946411250105
Cu 10.523066178120153 6.72379329803024 5.070683745217495
Cu 6.404220035535773 6.745748153444248 9.23008800583673
Cu 7.2439690184221535 4.98062096234182 6.09372543740999
Cu 3.2581799074658275 5.988134115693224 5.1938605840649945
Cu 5.171148652318612 4.941562721055829 2.1230568165303194
Cu 6.409319396711378 9.016136678190087 8.407150850029138
Cu 4.928159844010568 8.298440525053591 4.46746112940857
Cu 6.805248017204789 9.001967802226995 5.925196093866323
Cu 9.289592024302392 8.737695147917119 5.265275313196634
Cu 6.478405716591107 2.014622256662342 8.65827118413572
Cu 8.631338741206342 9.638604329094427 7.453340555872646
Cu 7.494617729907661 0.9900482221736077 6.634950361788492
Cu 6.903648036793781 1.4147787375943655 4.215016747157358
Cu 8.526915867745902 2.9391513763440833 5.35800686563464
Cu 6.369059533514659 4.465786930190771 8.477539354265566
Cu 4.793067889669104 4.7566669487540505 6.578017014192694
Cu 4.450979424162502 9.409825117305642 6.685422414940331
Cu 8.614859606660426 5.522742432947132 8.754744377337875
Cu 7.518264233071829 5.680918227987899 2.4507444922354793
Cu 7.528861872864097 7.040832408155351 4.652324211053629
Cu 4.93976800428673 2.4533698413398226 2.5884595910123576
Cu 8.547194419027983 7.974436797024512 9.288830109838235
Cu 9.697234048669772 5.030132667557684 6.606242264737275
Cu 5.444902066384064 7.06847194274603 6.797944028161034
Cu 4.581256915369514 1.210113973783876 4.7279184808288255
Cu 1.6773457274682682 4.101062879725132 4.994668871482214
Cu 3.0947249317183965 2.4616119813648005 6.242675841065886
Cu 6.000119010340579 7.474771043033817 2.4517202275359384
Cu 2.991994356015865 7.456489955946482 7.133940756911246
Cu 1.0504060026375164 6.276491182239564 6.233222452956046
Cu 1.3721609533614068 6.230432910031747 3.745503630174439
Cu 5.606924757118697 10.675127001526343 4.71283075828591
Cu 3.6523093954418955 6.809857083006157 2.8893488139082772
Cu 8.349558951881754 3.263666197528764 7.73851614444567
Cu 8.091097367699213 10.905366979600114 5.260523557282803
Cu 4.173371983677737 5.667874249174078 8.751402083295915
Cu 9.038831165510887 5.033470455123401 4.2062892503268134
Cu 2.798298376054821 4.4748138895039995 2.7119044703327524
Cu 6.777369840082261 3.783380779040951 3.783930368668324
Cu 2.4322143631187743 4.598885288853187 7.342548740747436
Cu 7.381583881953526 9.221696461518695 3.536842781674267
