52
Energy = -157.0865615 eV
Cu 1.3084403027602738 4.974226013707373 2.2438220432399407
Cu 3.199548307539951 5.544950630454207 4.108387551653596
Cu 6.387108569293018 8.243876133729524 3.215379065558536
Cu 6.400580401330312 1.8544303277569263 3.6334264246399646
Cu 0.6226552670728712 3.703250100500682 6.950989641205081
Cu 2.27721222374526 2.6983151485505505 1.1348422056781369
Cu 4.7524884904525955 3.73452118241195 4.785714919893993
Cu 8.841495807221708 5.518779302351082 5.563630906223729
Cu 4.607130709421218 3.412023488252442 0.04799487156524463
Cu 2.9894517065559016 7.056129878667195 8.063690439352877
Cu 7.9589815644878845 3.2970110962099057 7.11487268020572
Cu 5.307782069711995 7.652598620609367 7.253402197580668
Cu 0.7569766481671524 4.420012657125368 4.581227774751713
Cu 3.1828280636558834 7.703825740178526 5.667582285404157
Cu 1.6944114594289112 5.836315461631882 6.291529024289267
Cu 2.382332228957997 4.853979671051943 9.479165600548141
Cu 1.1453909225924095 1.946150632160412 5.068598716987726
Cu 4.068778628831337 1.6790932516764405 7.401124325882837
Cu 6.357505352784078 1.9181281585341283 8.511523934525062
Cu 5.314540746468662 3.678919400332924 7.238250456747734
Cu 2.790232009960832 3.4171121587748576 6.104623255159271
Cu 2.219605909368281 0.9332057001849878 2.949874116938214
Cu 3.7281558637964984 4.568186285055255 1.8995369964770286
Cu 4.8605657703777805 5.699454525802566 8.869179507833378
Cu 7.617917731075817 5.899977752867094 3.3502420010429117
Cu 2.6253013869871826 3.17282828793862 3.5836869604287234
Cu 3.9061051410857233 1.4470196327156193 4.831923358867325
Cu 5.923074410125754 4.101677810538003 2.749146456085999
Cu 4.386791740473926 2.045937563269505 2.2613111154825454
Cu 6.683109007669749 4.81327007366328 0.6538999293905547
Cu 7.1217302868819 3.9958699395521884 4.945067462436451
Cu 6.890089441177296 4.31758149135133 9.092449788352084
Cu 6.726683321628835 5.627792809578845 6.8306597016991235
Cu 4.117892965547934 5.587588733710272 6.477289540587057
Cu 0.388907054573144 2.703924312736994 2.78759144806849
Cu 5.414703162269823 6.378598341885236 2.128700074784244
Cu 7.023231628538735 6.854779008050271 8.863214169419557
Cu 4.542406562232067 3.2870250725200574 9.466841809202108
Cu 5.534147331645824 6.25072138139989 4.6057984501929266
Cu 8.229758759144033 3.4422462962257225 2.8100642090113657
Cu 4.663597821974347 8.335565947430602 1.056385515002802
Cu 8.45884729974407 2.033229695213644 4.9802277545351314
Cu 6.602336346091909 2.3702010233618482 1.1857613187601
Cu 2.7660846051071424 6.813874850690543 1.56195635394729
Cu 3.898916532918751 7.969181182034223 3.3857709171399204
Cu 4.548148752608062 5.993808531486161 9.466841809202108
Cu 1.4518232734574263 7.017185785245426 3.8483618651903004
Cu 6.203992516546662 1.7553256066780445 6.02608095798364
Cu 7.3431619569260205 7.586480061036039 5.4606898392783885
Cu 2.7267245468362415 4.509598372310512 8.279611381085804
Cu 5.257671484343021 8.950598224923029 5.2332593788085475
Cu 8.839640299343243 5.440611036814138 8.030963547614553
