52
Energy = -155.15345975 eV
Cu 2.962458868322376 5.480143971801691 9.771424861743832
Cu 1.2258489879489558 5.331933892900703 6.080463484618676
Cu 2.4237676981282408 6.690761881878444 4.542545801454126
Cu 1.4621775052424053 4.234456459717725 8.270523941788017
Cu 2.15974833388022 4.21372437086556 3.937524640713445
Cu 2.287251633449893 7.597890382918152 6.859933139003321
Cu 4.186139469287189 7.399819297163442 8.687850005073738
Cu 3.923701380028895 9.438484087527822 7.235519135511099
Cu 3.523725383056981 5.826472748780997 2.494297428837993
Cu 3.144652473608423 9.005922153889092 5.018369934603529
Cu 4.131086990612714 11.126723372983388 5.480906311449642
Cu 5.251271966079094 5.218279846916815 9.111434606738522
Cu 2.6379395300389685 3.3479260825188275 6.295771034582458
Cu 3.325602815261139 5.447404975948731 7.353285245378504
Cu 4.250504878503456 5.059391171674099 4.846198429308625
Cu 3.7439870592469995 3.3521279741181536 8.530332807157633
Cu 4.223249478156821 3.53703507731729 2.646156153432906
Cu 4.746246112788245 7.115116554123238 6.252681468015812
Cu 6.115187765969542 8.6691543443166 7.8477003348325045
Cu 5.996324855289002 10.931858175249618 7.033681430219764
Cu 4.673582785477556 7.515136763614146 3.772271141353995
Cu 5.6243594913637525 4.385716187645612 6.707573538395289
Cu 6.437855979499528 7.213134941199515 9.804424112979383
Cu 5.715212813701616 9.271551852539723 5.238552539167447
Cu 3.497819211475112 2.134466637560568 4.44476497756822
Cu 4.732639645923488 2.0745408873548876 6.652538339677684
Cu 6.209966475400278 2.991648362509179 8.610794252054871
Cu 6.974301053052022 6.324068178708161 7.469074641292132
Cu 6.793476450534051 5.0842408484143045 0.8813834168584824
Cu 6.846817686366289 6.941723220155001 4.952818915190678
Cu 7.521098425314606 4.973662134905138 9.826555020778688
Cu 5.437744337858278 7.0491611708083255 1.5026264001558667
Cu 5.782322126286084 2.949575440345229 4.5102181730122135
Cu 6.405120874490914 8.920954428284325 2.9014984625041187
Cu 5.994915674619227 5.219442797221472 3.1476466080688192
Cu 7.1496054936931595 2.257515211438329 6.402918750581481
Cu 8.38193308935861 8.349393170618141 8.604992830049545
Cu 7.701073121664073 4.566272755980758 5.203205600913462
Cu 6.5989627175942855 2.977200047666371 2.1945993293174313
Cu 8.685084698103967 6.9778023879827895 10.640201577708911
Cu 7.887736612826371 9.519336868325226 6.447314290817806
Cu 7.726610068536937 6.926882955804632 2.41883876401497
Cu 8.184790429553168 4.076552021305715 7.67509235971212
Cu 9.325040054631044 6.0872695283209 8.505379651610737
Cu 9.030545533215657 7.4113893234654995 6.3704092791247895
Cu 8.405196430596915 4.559727009773232 2.6349634725901785
Cu 9.505183962039522 2.7179049637988433 6.15318892959046
Cu 8.429880012106237 8.610425612846159 4.227891877077259
Cu 8.182467539845844 2.423885698040184 4.062556019928157
Cu 9.30028667859063 6.299718958027091 4.209690401548609
Cu 9.969576697345007 5.148777102648071 6.365112004331976
Cu 10.097364991578168 4.014307864039115 4.2367128005329935
