53
Energy = -162.01041703 eV
Cu 3.874785864576598 5.379727506162254 0.008482132663385026
Cu 5.5866348261323955 3.6947666239431167 0.7249443735964614
Cu 7.243096842377199 2.028591697293177 1.6752108383826767
Cu 3.0827461742928177 3.2432009817945873 1.078388957551451
Cu 6.023755349677709 6.192804466698305 1.0265454588962666
Cu 1.310491098163784 7.692106554841922 1.0980542629842043
Cu 4.800005267778038 1.547999664516317 1.927727620566278
Cu 7.758927884927452 4.496165349418506 1.9090103347579515
Cu 1.8922652368064596 5.431500180834756 1.5528044429079
Cu 3.69661493115129 7.36543462459702 1.5771474150844236
Cu 2.3226283357028055 1.208078046835372 2.3425774548838874
Cu 8.089791716890504 6.966323226610255 2.251068275996612
Cu 4.258425984660629 5.068962596799853 2.3464947636151665
Cu 5.974762393498303 3.365281549973483 3.183298938887934
Cu 1.1408782910388457 3.3723411995146866 2.8054752798035065
Cu 5.871778865752547 8.141307519226464 2.667027226404806
Cu 8.762177472189956 5.310763536807475 4.110467867941365
Cu 8.324861813015332 2.800233931534059 3.8075736794048445
Cu 3.4722206144635184 2.942085001239023 3.5118378967250483
Cu 6.3947808367493595 5.887476311975255 3.505701519693183
Cu 6.486653569141557 0.999130203040369 3.841074908753939
Cu 1.774670649758044 7.519994421492127 3.394734342482087
Cu 0.13995681899360307 5.656798471314426 3.318089027436276
Cu 3.5887861895366613 9.175571239072282 3.2459076581199815
Cu 2.3765311246219274 5.180419278174975 4.041107080941043
Cu 4.217936604456215 7.068468995568991 4.118638120762016
Cu 4.658201349645639 4.74639833484965 4.733459561043064
Cu 3.9391755297276547 0.5894249098571497 4.192685452637332
Cu 2.614198338585025 8.336432367214893 5.526004287023615
Cu 1.6577502404838147 1.7501754056075838 4.709603844659899
Cu 0.5323732755788143 4.003352167709348 5.228009905455118
Cu 0.961329403595885 6.461903570976404 5.605313478066143
Cu 6.9459655163297995 4.190832297995412 5.37552221742658
Cu 5.88443874921443 6.547171673286295 5.9924979204330615
Cu 5.128286073162177 2.4222701210426583 5.3976804549203194
Cu 2.9023321828343596 3.546198526649439 5.925725621408825
Cu 3.394804720521838 6.135589045564986 6.305230486041598
Cu 9.178591277899972 3.6568543335473223 6.00693042265155
Cu 8.170422552532647 5.936161940863825 6.583923966909
Cu 7.47638021534112 1.8142510382885064 6.047444857146506
Cu 5.576843670322751 0.1702316118223042 6.030140345103603
Cu 7.72911965954111 7.5288316484163795 4.679796138375746
Cu 3.341992767119406 1.1921867885500772 6.634950854313394
Cu 5.036886483643011 4.341696575855822 7.098207011194629
Cu 1.9350790223682475 7.270733850333739 7.765392963730135
Cu 1.1864948832245936 2.39914462638292 7.089699732695705
Cu 1.534563468111826 4.850225255969486 7.478678857802654
Cu 7.385365251414775 3.74117030276169 7.782066058092595
Cu 6.3611680446662024 5.9376323076377 8.341562893701289
Cu 5.537710446278727 1.9706551148940927 7.790555657606456
Cu 3.657909644193321 5.582240692243249 8.698321646109449
Cu 3.247985002424412 3.0919497718839897 8.35732837967279
Cu 5.400789905888958 3.8930749715214756 9.396199537542065
