50
Energy = -150.02069994 eV
Cu 6.934084671650604 6.436874453594615 1.3447693702323111
Cu 4.7070983334955905 5.858104452914436 2.1744144251154776
Cu 6.348373968746484 4.06305252651986 1.68116357896115
Cu 9.04441014005739 5.195057213966282 1.7567447256601723
Cu 6.098590086034717 7.42837190337265 3.4623762321733054
Cu 3.652885655979726 7.650627753841704 3.594983822042416
Cu 8.514013703349562 7.5510229471962305 2.9089933986389185
Cu 8.290889702940994 3.0453118823348175 2.7563285141093963
Cu 2.9229506591187873 5.282627363152388 3.914599282335255
Cu 4.205386328596466 3.5175267092445397 2.7223782436460646
Cu 10.547541057064109 6.42016348213532 3.2606504103261527
Cu 6.236356997806057 2.9578772740940935 4.003909161006585
Cu 7.467837065939711 5.30779283223103 3.495679860055953
Cu 5.281834892158116 5.210417693792391 4.542025541957821
Cu 10.143981651385152 8.292275592884714 4.988352681111472
Cu 7.674307786515655 8.850251867828863 4.781649598652381
Cu 9.705585029994316 4.320043462284931 4.220132382454455
Cu 2.015976229655469 3.0266286570261824 3.7584630022563705
Cu 5.208543727336077 9.002856782731042 5.051976184780531
Cu 1.680170106700029 7.043543369995985 5.040839996874251
Cu 0.8413479456755525 4.720170625403954 5.082895500424611
Cu 11.317538848741046 5.823256274184042 5.419341469447762
Cu 4.054687962513959 3.1523584996556253 5.161469372932664
Cu 7.531442735035262 4.292476039151963 5.686854503387729
Cu 8.87179067881485 6.382605890822679 5.3156986914544335
Cu 9.77622845105297 4.460332169300269 6.771963263772602
Cu 6.165396577394305 2.3956047068660333 6.4586803487605176
Cu 0.34798002360841573 4.132225625092095 7.418798356165996
Cu 6.528868410936557 6.858200095734239 5.950446379241576
Cu 0.34416917673328185 6.418836746752118 6.911105401518423
Cu 4.038447043165248 6.8484967246830575 5.878756231138314
Cu 1.829388336146018 2.630316845979427 6.178926371523468
Cu 2.8509646260387074 9.129259012916098 5.516981625064125
Cu 6.620812533110896 9.74217779081117 6.871132126641167
Cu 2.8126064537577435 4.842643176947577 6.757426081784865
Cu 5.354465741103095 4.71015130490134 7.011367025840259
Cu 8.509728226610914 8.286160528218621 6.985812321140528
Cu 10.37981367638192 6.855615507183573 7.329891751141851
Cu 4.46364278856226 8.801389769425722 7.4051854792708856
Cu 7.773976778414801 3.589470135141385 7.999210981308264
Cu 5.78319909899704 2.7812598084928135 8.970758643120371
Cu 6.428630620422407 7.6559006964349745 8.318567386080376
Cu 3.9400072311089223 2.489514123769978 7.474170220417285
Cu 1.8354850452950624 5.632229893524891 8.829343103219927
Cu 2.2824978552387596 7.672534602572407 7.453995856690204
Cu 1.9936264861476471 3.0736984172170043 8.702296785999234
Cu 4.247549262030722 6.558249906542803 8.409622064817519
Cu 8.095656623797858 5.9568479464330615 7.75102081159704
Cu 3.9554317810193593 4.33133347129069 9.220200277514373
Cu 6.281913514152765 5.254367769942825 9.235763482725776
