54
Energy = -163.3554102 eV
Cu 5.122689802000718 9.822951446697603 5.648146031072902
Cu 8.724936782003644 5.162461765543657 2.7037224399190336
Cu 2.8902183266619943 9.286960741845176 4.624810210364182
Cu 5.214193032492177 8.53900080214228 3.6386297379433192
Cu 7.508482336052971 6.770918514108712 7.3836235069581955
Cu 3.1313016421434026 8.077587830076409 2.4619490949275096
Cu 8.459567398863436 6.192613518394095 5.100879201101652
Cu 3.258582546958701 9.409595912255192 7.1504868560197234
Cu 5.576982932083409 8.304305889743475 7.471348754191196
Cu 7.269858181150463 8.601034643232513 5.382846902027472
Cu 9.10839165503012 4.874835408941848 7.145382935006894
Cu 7.043356835136737 7.048026343872834 3.039863948516322
Cu 6.5384824932162555 4.916546430101162 1.4284327322786596
Cu 1.9784871996993725 6.896302956773426 4.236881820031461
Cu 6.738241425437011 4.849058270644452 3.929218301651214
Cu 4.351035752049722 6.221184372658835 3.6426351312139666
Cu 5.002382550219647 6.854365508845337 1.4409998801283328
Cu 6.95081470577847 4.402978149737464 6.364901390629799
Cu 7.019357355804266 4.7627736206521805 8.744390736139108
Cu 1.5456071382199081 7.728694810469868 6.4751552039351745
Cu 8.650997297935849 3.6027786825610058 4.834032123123859
Cu 2.553844609015579 5.670410908527291 1.9840569916327446
Cu 3.372373737249828 7.2099287239523555 8.299698414390518
Cu 3.8710848769722537 7.481877588363091 5.82729452664618
Cu 5.706941926678699 6.804151270357944 9.418772828592358
Cu 5.088530642941561 5.755994304753792 7.43329543411096
Cu 6.047645031290101 6.653861811973782 5.3525755908235455
Cu 2.3075476413481244 0.8194965590437844 5.830069306278974
Cu 5.951570354960455 0.8760507438597075 2.8991562826066017
Cu 1.7807726019989898 1.1123720692448478 3.3655281348045283
Cu 3.7104484179860475 0.6623706358874696 1.8557053641259822
Cu 4.653168030613377 1.2764818254631598 6.429538535209849
Cu 1.2459808992376313 1.6366760587060616 1.054683862329175
Cu 6.303469150671878 0.045844485356731204 5.20581517994685
Cu 1.1064494718341664 2.813280859945762 5.071873947615839
Cu 2.9190634106476843 3.0702203904271235 6.798629622513915
Cu 3.608113485466227 2.325545927644576 4.42126396304461
Cu 7.17613039292082 1.9143170498456077 6.732880073899026
Cu 4.024349835587329 9.822951446697603 4.238310028369278
Cu 5.406722302517458 2.4561083585307015 1.0958317389574697
Cu 0.7990327689430388 3.5546416940209995 2.7132306304984777
Cu 7.417992246559879 2.8912443434827892 2.5629484163088625
Cu 2.994746396676761 2.9203583994466964 1.9253150587384729
Cu 4.214786096060878 4.606854310523448 0.5868375880077812
Cu 6.121913924502639 2.552851319619307 4.7320198490572265
Cu 5.236211222018703 3.263731848513413 7.7114441717586475
Cu 0.5546130125325957 5.204336269260708 5.3022850673483894
Cu 8.134941943106249 1.2663882124047492 4.279053221102416
Cu 1.6576779778829513 4.046084665766924 0.36385653441414084
Cu 2.602884943371391 5.49965519219535 6.57610458599853
Cu 2.5568922672709826 4.507843980600289 4.146145637298059
Cu 3.447079884365595 4.6513121883389275 8.746706796784972
Cu 4.660457683671767 4.460733116222589 5.405881645034947
Cu 4.850673169330924 3.8732015303581293 2.9529317797405863
