55
Energy = -166.7572633 eV
Cu 10.142400109090904 10.142400109090904 10.142400109090904
Cu 11.950830259559812 11.950830259559812 10.142400109090904
Cu 10.142400109090904 11.950830259559812 11.950830259559812
Cu 11.950830259559812 10.142400109090904 11.950830259559812
Cu 10.142400109090904 11.950830259559812 8.333967958621912
Cu 11.950830259559812 10.142400109090904 8.333967958621912
Cu 10.142400109090904 8.333967958621912 11.950830259559812
Cu 11.950830259559812 8.333967958621912 10.142400109090904
Cu 10.142400109090904 8.333967958621912 8.333967958621912
Cu 8.333967958621912 10.142400109090904 11.950830259559812
Cu 8.333967958621912 11.950830259559812 10.142400109090904
Cu 8.333967958621912 10.142400109090904 8.333967958621912
Cu 8.333967958621912 8.333967958621912 10.142400109090904
Cu 13.75934719113885 10.142400109090904 10.142400109090904
Cu 10.142400109090904 13.75934719113885 10.142400109090904
Cu 10.142400109090904 10.142400109090904 13.75934719113885
Cu 10.142400109090904 10.142400109090904 6.525455027042902
Cu 10.142400109090904 6.525455027042902 10.142400109090904
Cu 6.525455027042902 10.142400109090904 10.142400109090904
Cu 13.71901899653523 11.93155731169443 11.93155731169443
Cu 13.71901899653523 11.93155731169443 8.35324290648738
Cu 13.71901899653523 8.35324290648738 11.93155731169443
Cu 13.71901899653523 8.35324290648738 8.35324290648738
Cu 11.93155731169443 13.71901899653523 11.93155731169443
Cu 11.93155731169443 13.71901899653523 8.35324290648738
Cu 11.93155731169443 11.93155731169443 13.71901899653523
Cu 11.93155731169443 11.93155731169443 6.565781221646718
Cu 11.93155731169443 8.35324290648738 13.71901899653523
Cu 11.93155731169443 6.565781221646718 11.93155731169443
Cu 11.93155731169443 6.565781221646718 8.35324290648738
Cu 11.93155731169443 8.35324290648738 6.565781221646718
Cu 8.35324290648738 13.71901899653523 11.93155731169443
Cu 8.35324290648738 13.71901899653523 8.35324290648738
Cu 8.35324290648738 11.93155731169443 13.71901899653523
Cu 6.565781221646718 11.93155731169443 11.93155731169443
Cu 6.565781221646718 11.93155731169443 8.35324290648738
Cu 8.35324290648738 11.93155731169443 6.565781221646718
Cu 8.35324290648738 8.35324290648738 13.71901899653523
Cu 6.565781221646718 8.35324290648738 11.93155731169443
Cu 8.35324290648738 6.565781221646718 11.93155731169443
Cu 6.565781221646718 8.35324290648738 8.35324290648738
Cu 8.35324290648738 6.565781221646718 8.35324290648738
Cu 8.35324290648738 8.35324290648738 6.565781221646718
Cu 13.63595935095021 13.63595935095021 10.142400109090904
Cu 13.63595935095021 10.142400109090904 13.63595935095021
Cu 13.63595935095021 10.142400109090904 6.648840867231451
Cu 13.63595935095021 6.648840867231451 10.142400109090904
Cu 10.142400109090904 13.63595935095021 13.63595935095021
Cu 10.142400109090904 13.63595935095021 6.648840867231451
Cu 10.142400109090904 6.648840867231451 13.63595935095021
Cu 10.142400109090904 6.648840867231451 6.648840867231451
Cu 6.648840867231451 13.63595935095021 10.142400109090904
Cu 6.648840867231451 10.142400109090904 13.63595935095021
Cu 6.648840867231451 10.142400109090904 6.648840867231451
Cu 6.648840867231451 6.648840867231451 10.142400109090904
