5
Energy = -9.58399421 eV
Cu 5.023203422346689 7.836801914875512 6.420080114022391
Cu 7.31405261265163 7.333425022726977 5.769289829320169
Cu 7.862357900525716 5.054386471908533 6.422155867757009
Cu 5.553778723202687 5.537762918679008 5.8256545874862455
Cu 6.466106703778486 6.469334154399464 7.7558335743993
