54
Energy = -162.2752146 eV
Cu 7.851395582930855 3.226491199081913 9.012360512509728
Cu 9.038544766738632 11.43133751718186 11.330045475326129
Cu 4.428842966455015 9.596129361934391 6.2027076814519155
Cu 4.979051393862476 8.009474003996594 8.142529901884458
Cu 7.9835141388442485 4.059234940998329 6.673576979249231
Cu 3.275847090215777 9.60696569054395 8.435498992534622
Cu 11.458460417219568 6.234686347971588 6.312272323799766
Cu 6.917639566728378 10.964652006593164 5.786911115369239
Cu 9.627213863174845 11.127058952376537 5.575363013511821
Cu 5.663648044421036 10.535937692265664 8.073662904751163
Cu 12.250333706634764 8.020192031665479 4.916827673183223
Cu 9.906136301588706 7.2632998062733165 4.396555152269148
Cu 7.056214989965678 9.06085215086762 9.461875244346757
Cu 8.727206858525735 7.187879354225819 10.484382866787339
Cu 4.303854402019089 8.215516677289042 12.225672072420126
Cu 4.883556167280902 6.04698440463605 11.281751640871514
Cu 11.557910050994957 9.99329394891324 8.410649605836259
Cu 6.5762745254761095 6.182020094522976 7.208711851916698
Cu 10.00424094694836 11.798231719753698 9.166498446571673
Cu 11.197897346670292 10.377314482171538 10.933113563393913
Cu 5.908200217857827 8.903418825764566 4.303307122474715
Cu 10.708299706610946 7.382552725814817 8.580568129457378
Cu 7.956699680702182 4.921523049226751 10.951284958508461
Cu 5.266096846630946 6.5441939647486755 3.586538418813149
Cu 6.833505216735288 10.358175651866802 11.517491661597441
Cu 8.375036426572821 7.774208421747061 7.978177796490543
Cu 10.47675044939855 5.4679739681697095 10.13174989138273
Cu 5.836570698668479 4.866700281796497 5.356548848244927
Cu 6.664941373846852 8.682526133914829 6.571507058469287
Cu 6.5081389975518675 6.579583385821968 9.625658198051642
Cu 12.09637404838175 10.233054389214848 6.005823428648389
Cu 9.505740911621622 9.39677673077812 9.601294175565135
Cu 7.2998765664061445 6.890145755402237 4.813691234394723
Cu 12.690918588529572 8.09436461289418 7.345448039929116
Cu 4.840915710999517 9.582870465075962 10.31272748327602
Cu 5.797472216253938 3.8414966728562012 7.634136076873192
Cu 3.4744898742781007 7.577188589659844 9.991195555465966
Cu 8.446402534796043 10.153626358193904 7.509982699778749
Cu 11.051888212445597 7.91621674322117 10.907320930745449
Cu 4.427171797145391 5.678303868945489 8.612777618222042
Cu 8.583905582954586 12.522979000115756 7.271059583611754
Cu 10.286844911204598 8.620972401370759 6.447324855775184
Cu 11.150276737864278 12.153345420042553 7.130276617843727
Cu 8.529776942154683 5.467029455527747 8.677642870923684
Cu 12.432806055797299 5.775867675875425 8.511001094638154
Cu 10.4081375657988 4.483441116921307 7.697226133991929
Cu 8.358094197172235 9.15080941713402 4.840556958857565
Cu 9.019288421968207 9.101425638905283 11.967552801421995
Cu 7.5436145818506635 11.509686567226213 9.385703204918652
Cu 4.784497043293234 7.132943079139517 5.833939588704869
Cu 10.653587167471922 9.594550888079286 4.047477368851979
Cu 5.825376691713556 4.180910138380802 10.020704482079196
Cu 9.06055507671154 6.1640552759729195 6.3340568801050114
Cu 6.640035505195075 7.919804659762265 11.680823912270016
