52
Energy = -156.22526245 eV
Cu 8.3817950513058 9.07372187753275 3.677219505571711
Cu 6.380597876790364 10.559745777406139 4.1966906981022225
Cu 6.827635724519894 9.510314361599905 1.8893665640611332
Cu 9.356271670785333 6.832584664199671 3.4098715600696683
Cu 7.796116461339782 7.557849479165778 5.5020748264217865
Cu 5.5747318427822625 9.366991741356465 6.2624833963651545
Cu 7.474479322949245 7.173612456549031 1.9797594291508638
Cu 7.998038109959222 9.840446725873216 6.012938888327472
Cu 4.573151504749807 9.984691567782704 2.487553489893539
Cu 3.8859928903120964 10.215125793229145 4.727603088946032
Cu 9.299330621543717 6.798880095580069 7.371050537537157
Cu 5.439448863438058 6.894850494928687 6.033941087922097
Cu 3.2268288830739373 6.246142692895218 1.7399379029211208
Cu 3.2270628881915093 8.137410820384558 3.373702536994012
Cu 4.358094722350642 8.028580372723631 8.063092666254585
Cu 7.8280340494214835 3.593213212641488 5.005432963379501
Cu 5.788695896666315 5.424003167033651 1.708221978791046
Cu 8.350201640484354 4.693197188946127 2.705230369930454
Cu 7.301051249529471 5.484372596949676 6.81596204362299
Cu 3.3365477725930135 8.18585583908042 5.838356581257302
Cu 2.1805224736063207 5.256900315857079 3.868038604295655
Cu 2.6473445523430184 3.0160736408859914 8.767570682330971
Cu 5.082716794306676 7.772529839013382 1.5787428943084962
Cu 3.96610948846308 6.831432106354309 10.261848399238703
Cu 4.300208228079698 4.343538011610711 10.004368648955605
Cu 3.8378703747765828 4.029090855625534 2.4136621158479943
Cu 6.12718769486215 7.918070841354531 9.944060425734662
Cu 2.8712764823399852 5.771444082448 8.37595914464773
Cu 7.03645028481221 7.998544682662645 7.739566812511209
Cu 2.0047447019663425 3.8157793703941505 6.536102710860616
Cu 5.848097460791978 8.226141022713412 3.8975839934455836
Cu 6.1206896175311325 5.701816082433144 10.951583504771035
Cu 3.5613333416300934 3.3275254425085774 4.71054026014211
Cu 5.5106806280585054 5.966929266780476 8.518644168602338
Cu 4.475596681164924 6.059362665938208 3.7803281394994657
Cu 3.2578792898518674 5.783224215381799 5.946664704697334
Cu 4.329479985928631 4.095308840923588 7.488818554673805
Cu 5.501492383604792 4.5039755026901656 5.453294768607406
Cu 7.8914584386347695 6.108461293015359 9.227908642791638
Cu 3.763130349476161 1.8721155823788955 6.756278937822309
Cu 6.93416111385695 5.878233671680357 4.078414677166411
Cu 6.538583912688718 3.0927657050275337 7.138377735461483
Cu 5.699869962220979 1.9857941394395033 5.109121017895706
Cu 10.06649186257343 8.114403119289271 5.3643918977718315
Cu 6.0691736544275185 3.5630051341950084 3.2542443078455903
Cu 6.786290035415657 3.909517386454083 9.457996585711195
Cu 8.788320580475258 3.920665510465409 7.781018644487508
Cu 5.029721725014585 2.1717941258513997 8.960706537460469
Cu 8.033935817153274 1.4690205313405276 6.233862127628063
Cu 9.34719433363596 5.4563729981629985 5.346622380579781
Cu 5.907739051614006 0.6934918666818595 7.193602047191902
Cu 7.650964717685293 1.7364780705564968 8.703770192784395
