55
Energy = -165.1490481 eV
Cu 3.9614300032066736 4.958614310677946 7.7597023324443235
Cu 7.467155554880161 11.660876038891258 9.009523734072552
Cu 11.543233493125468 10.932572364090808 8.103055671544533
Cu 5.935091707961198 10.22290903076913 10.440473735455948
Cu 6.880989343472419 8.495141106077016 4.01898548924712
Cu 5.733377056061231 8.236084478259867 6.485814024139945
Cu 11.790790074024441 7.889502834647205 5.634397582946798
Cu 7.751907485932138 6.746128036845662 8.190830488686084
Cu 7.057701010133131 8.028027133126349 10.6486739804293
Cu 10.992836796821281 6.124689675588615 4.188527942604916
Cu 3.593950764581189 5.744040853712894 3.6264053987528473
Cu 5.829330067704605 6.054037910130274 11.268400131402947
Cu 3.7930234955270197 6.568451101972771 5.879840992654967
Cu 8.44773340377255 2.735731165586655 6.39073382512187
Cu 8.14975386894848 5.814037380266337 10.38809094655717
Cu 6.058922061104746 5.690144199825043 6.802321961429594
Cu 9.642595320084673 7.651792235890646 6.94410423045799
Cu 3.1417333470490063 7.395863074851919 8.104853228308155
Cu 6.122184219496729 3.3105099170747057 7.224589701059573
Cu 3.755917490032141 5.938182589164497 10.010072951694589
Cu 8.206644879281717 3.892221140801351 8.71738220009921
Cu 9.51193895130918 8.089197901946955 4.4919018913632405
Cu 5.9384094124856865 4.77772810628052 9.198542975118455
Cu 5.260664446970459 10.138823506853758 4.998029532388323
Cu 4.430322648303863 8.04965895895172 4.056339620190265
Cu 7.09876395391616 9.139482960842386 8.467228803414015
Cu 5.4504418791142255 7.180085874061587 8.755355404205057
Cu 8.593921111435302 2.972795683762046 3.8135687012186668
Cu 10.44095706108597 3.6216333031555688 7.612509152170814
Cu 7.06105675739132 3.8063801015311167 11.027283007241918
Cu 8.826846852011062 5.1497586563224615 6.655506756982753
Cu 7.030339560876881 4.198410892915384 5.098371212322631
Cu 4.480934032493583 8.224231576910274 10.681633744463022
Cu 10.047544080968903 5.805936263319349 8.73665372600444
Cu 11.286881926326515 5.7345715349892235 6.608605989871678
Cu 10.330863904949428 3.964560211355323 5.134627980842158
Cu 10.518672729866179 9.84096010165564 6.116647011437967
Cu 9.84313738105981 11.959157605870644 9.650544470126656
Cu 7.687500523929167 6.9613533825713 5.604806577960845
Cu 8.437336496656869 10.084307253587863 10.572735513086633
Cu 10.853960697091711 9.815121186957738 10.162129721927373
Cu 9.302949952241791 10.108564556381141 8.174487300715063
Cu 5.910709912513503 6.130980646018714 4.166224157687684
Cu 8.580499693289358 5.64214434143563 3.8029719698676128
Cu 4.586396544979903 4.300455012379162 5.394327845127283
Cu 9.34298043007128 7.955471505191633 9.6393122776459
Cu 4.984141800785691 11.871998584424343 8.896141005217972
Cu 3.4927614145479455 10.469696860548465 10.288371108104744
Cu 4.495205382597782 9.494634762490598 8.366255421880705
Cu 3.8784110677988926 11.262821781897273 6.772976361204396
Cu 10.295137069346396 4.309913172365812 2.7173283826875636
Cu 8.005839884488783 9.450544925394649 6.083419818426065
Cu 3.36243966356425 8.971964175176879 6.165259580093179
Cu 11.465577918325295 8.44491175456696 8.193471738175116
Cu 6.276135185142749 10.948168050774779 7.025632462854205
