55
Energy = -166.19503353 eV
Cu 5.834845976633383 5.863392594112419 3.6525787235712146
Cu 8.064170819298589 7.156670427433536 3.3550362653983608
Cu 8.091132271283687 9.610197339266128 3.986625489071357
Cu 5.658842686638722 10.582084426330379 4.978496395389622
Cu 10.163958323144776 10.805797865986788 4.569782583218382
Cu 6.032719640746352 8.375500484073983 3.7964929567710484
Cu 8.01559544311106 4.942427028945588 4.4699381395598845
Cu 10.195914463700046 5.991133721252955 3.831795923251922
Cu 10.265345899303318 8.45188088100491 4.087533314289186
Cu 10.165682963234353 4.757370995940478 5.960116271027314
Cu 8.313924476381013 3.040707473800132 6.0642708268904695
Cu 6.288868944096388 11.573589609149233 7.212830713449267
Cu 4.39036075336842 8.372011347574784 5.512534516718018
Cu 7.032569249120549 9.212024187573169 6.254044700885092
Cu 11.789161026062617 9.502219995796573 5.812563281001431
Cu 8.106866916704469 11.411194567135343 5.616163040838832
Cu 6.470451429975519 6.789914868653917 5.703741219790622
Cu 8.949490174244502 7.07379281473789 5.642829675188212
Cu 11.385011678670095 7.026072690608337 5.805593089237963
Cu 8.005767817801372 5.1918546471641305 6.975180718181699
Cu 4.191696815582908 6.040776793212973 6.3589417294020025
Cu 2.973069509389732 7.997352130170135 7.592871954924404
Cu 8.37228949157384 12.832483990131527 7.544593053073331
Cu 5.9526676077250436 4.316110377558673 5.7356188392777
Cu 10.009167214104778 8.72551916384104 7.156044047745962
Cu 4.408887843615475 10.040479230069645 7.289550537218734
Cu 10.44976095490928 11.301581846561758 6.960180620301388
Cu 6.121199567446512 5.548872148025246 8.397635059754988
Cu 9.432177646536353 3.8493497322283643 8.344554088042207
Cu 4.324889566659958 4.019509855543908 7.6590489819321155
Cu 10.146473996656646 6.337360674856403 7.853730813017498
Cu 3.8835913396252293 6.154081940590128 9.009559822519769
Cu 4.31451873821645 8.698111323397882 9.688646839579098
Cu 6.630137526818836 3.163360751324875 7.838228342848312
Cu 5.319316955853163 7.76853871813518 7.696760301657538
Cu 7.160494622142144 11.868953097449477 9.572052370050015
Cu 8.511796784991269 10.420131567055043 8.087379701729882
Cu 6.355597518567258 9.684190321898434 8.775343660667112
Cu 7.578854388717498 3.5443766041889706 9.995797740689465
Cu 8.376684793823719 5.8408694565523955 9.460051300937286
Cu 5.162097242548769 3.9976222042360354 9.935923794077208
Cu 7.737969485853873 7.5380205038841535 7.767156208890906
Cu 10.828199046552381 9.940331298021754 9.177867448136748
Cu 9.097415276934228 8.289702124463231 9.534383197606264
Cu 10.667569463865451 6.599378667193664 10.287673089251294
Cu 9.835770607549994 12.17097306611535 9.291239207613739
Cu 6.497573167042569 7.516141640285821 9.99803977246554
Cu 6.7174814572022585 5.408204135953676 11.303971512833725
Cu 6.376518646419094 9.80778750366598 11.145072433286241
Cu 10.417954154273236 8.765775555408396 11.445493320355435
Cu 8.800345490854546 10.495083787820755 10.704210036975354
Cu 9.499354898108717 4.560887541315881 11.052458270095128
Cu 6.319585095223463 7.625477466148854 12.36506505094768
Cu 8.656772798179887 6.889191450262976 11.717468642892051
Cu 8.244504515656255 9.106640548631972 12.562305548213685
