55
Energy = -164.57306907 eV
Cu 6.150428074589675 6.992383638051141 3.9721807501324338
Cu 8.687098264716031 6.426508553509575 3.863690964404968
Cu 7.787819242604969 8.797683774149318 3.8364218604033278
Cu 9.601574254038919 10.399799868168692 4.303852400994084
Cu 9.838204462440947 8.163842400831264 5.206093668380362
Cu 6.984174029944142 4.955819745286882 4.901164075164084
Cu 5.232605366174737 6.709008679025414 6.266758384447408
Cu 7.668724715041852 7.1538113187786765 5.958277452910554
Cu 9.213114449333222 5.088718449613921 5.935789191673168
Cu 7.0637693849219145 13.287371259858327 5.899818320169235
Cu 11.113554970815144 6.190246837697778 4.765934063841954
Cu 5.811431499630174 9.077333567091342 5.321338098247152
Cu 12.133066577924048 8.292729436974346 5.81791331547452
Cu 4.75477604738013 4.421774374343352 5.6219186651981765
Cu 7.076793163811533 11.194258172144435 4.54069500204781
Cu 6.394944933752764 8.485479754349742 7.622849679502308
Cu 5.10573956147658 9.942974731193377 9.04042918560891
Cu 10.616722989423366 10.165499031815841 6.696923393733106
Cu 8.061440887921604 9.750820571710177 6.118180544610447
Cu 9.08139583353122 12.015318994184671 5.966303117030535
Cu 9.277925571966609 14.215418063212168 6.82879428418279
Cu 8.77940299030285 3.561037299853088 7.83660753493269
Cu 10.782089098797114 6.724951083273198 7.1107204477250034
Cu 10.992239795739696 4.42045472873137 7.585059172402932
Cu 11.86441344582357 8.56869352124485 8.269801764782729
Cu 9.119328975386205 8.41246375286583 7.728012701245804
Cu 4.064573566785275 5.2177467045973165 7.825035816537619
Cu 4.101227965786083 7.739808546266107 8.306531514101925
Cu 8.46120155437413 6.105610086872694 8.154193982068074
Cu 7.874774550169322 12.801049750714405 8.113100757393376
Cu 6.177586693049539 11.191072654397132 6.966347478564663
Cu 6.569978005694216 4.59602354474516 7.259604768263709
Cu 6.6237317499507045 2.520713812445022 8.455811391100143
Cu 12.114534361129575 6.127944586530975 9.086633244774708
Cu 6.00188192117019 6.335702426456237 8.876685974927488
Cu 7.77335791313787 10.295624783502937 8.617482008877381
Cu 6.182618228163831 11.997333969377461 9.521891863670247
Cu 10.26655874789621 10.095545426026902 9.249648985641528
Cu 11.677765019526799 8.87623603866238 10.753023722534632
Cu 10.185263228578371 12.220224482342726 8.126974888121278
Cu 9.987699847653724 4.8738229455051165 9.798329806145912
Cu 5.2104457265363315 8.04313957380671 10.542386001082317
Cu 10.172609117621098 7.386662539284499 9.697736060276142
Cu 3.8925009915698014 6.051468400520757 10.174252716902684
Cu 7.65754272247573 7.979731918191979 9.720018895817594
Cu 7.534803655222309 4.416872398728387 9.73190659779754
Cu 5.177670271832642 4.064561630485512 9.68970237098887
Cu 6.177179637264916 5.787740658972564 11.325505367504856
Cu 6.848904212700555 10.107567302542835 10.936087459727538
Cu 9.160822663547417 9.127893863581425 11.223709221413365
Cu 5.078686301210232 9.497307229283548 12.393610570289862
Cu 8.585638975200402 6.363954870417911 11.231819309061152
Cu 8.527416380320984 4.077331778755916 11.81096137035161
Cu 8.701929296487632 11.72030106760121 10.258793523977662
Cu 7.058317908336047 8.006605202305813 12.176686093720111
