52
Energy = -155.90636216 eV
Cu 5.715089194769174 5.626693049486746 0.43834157845188265
Cu 3.9323866251274096 4.125786049408563 1.119497838304531
Cu 3.6789327106088985 6.450726448668869 1.7787813642091015
Cu 7.7129695806663525 5.9878860290537155 1.8112109167604113
Cu 5.796340173909534 7.598673257360589 1.9934764795764393
Cu 6.3365291635545695 3.2350559055998906 1.2764556825769724
Cu 4.38027526101244 2.633064572011886 2.956567292595766
Cu 3.651564990166361 8.76510962779434 2.404976720589011
Cu 9.332666551037562 6.189787751582959 3.5699150863714357
Cu 5.6946360053018115 4.9299526151644 2.749118478400219
Cu 3.198075845867318 4.837076649245819 3.5131848058132333
Cu 2.4765485667674163 7.189617987645166 3.9226785993741404
Cu 7.374394171006648 7.499548861314218 3.8204022048125146
Cu 8.111698805047139 4.037306420428361 3.239248122325253
Cu 6.689795956345682 2.1191862880880095 3.460483631956796
Cu 5.45427820325072 9.081459733943134 3.981627882037317
Cu 5.098668803730796 3.9185400087587077 4.891361176387966
Cu 4.862399843486789 1.4628643787096056 5.084184942333567
Cu 2.7840895990685586 2.9776849350754575 4.987688075915288
Cu 4.950549390730381 6.6127982636576546 4.237479443757218
Cu 1.380976365320761 5.177677964388064 5.209244654237928
Cu 7.120864866987027 0.5173972098752153 5.1609875441813315
Cu 3.096352096431154 9.634077341542152 4.6098933930712995
Cu 8.769355071816037 7.013132795552771 5.966823560713139
Cu 6.947724678887761 5.484549159306463 5.203879433252114
Cu 9.348627085559555 4.591353310005205 5.289429531613078
Cu 4.225663475992307 8.016573794796631 5.991030683580468
Cu 9.17695210285497 2.1261737904500393 4.585778433410151
Cu 6.695342090969027 8.330658124712206 6.024139543822087
Cu 5.049637874205144 10.3051855929498 6.06428088313158
Cu 3.531828195601694 5.523919146878271 6.134611007666714
Cu 1.7966209572199288 3.5653567048729498 7.103383164414552
Cu 0.975477699602119 9.606965807602801 5.665750748827333
Cu 7.4013343108450815 3.021736845396561 5.7622411331937275
Cu 5.528380898430991 6.432269606806313 7.3203109460864875
Cu 1.8090758820959898 7.487764852819052 6.229191180465823
Cu 5.77346569159264 4.060183953041062 7.171623464891061
Cu 6.088098332887878 1.3942043978369376 7.253105503523508
Cu 2.921218245918296 9.594534907970125 7.2265168195937814
Cu 9.695906801711041 3.1918411676556047 7.136116230900818
Cu 8.536950349927567 1.1302546320422446 6.963506007001737
Cu 8.149736196497077 5.1318397754631 7.407850334783466
Cu 3.9048207571712883 2.5104609844012242 7.139884018713981
Cu 1.5438261869741166 5.761691400689259 7.841690815310331
Cu 5.301840640574411 8.882054729315072 8.050876884994707
Cu 7.497261252451718 7.404489423404094 8.204728463409142
Cu 3.3337699660277855 7.337376501966066 8.249303447629865
Cu 7.626424591617128 2.945799169861127 8.431018986702215
Cu 3.787058393561345 4.783198831824806 8.52823502779664
Cu 5.276468617460347 2.841302982161608 9.175672509503068
Cu 6.47376502519132 5.0892887280352825 9.25037119961989
Cu 5.29623987106919 7.120821548289103 9.704798136316642
