55
Energy = -165.80895939 eV
Cu 7.822031019545344 10.39201658727853 5.181944688451981
Cu 5.745861715736464 9.16960834699317 4.25424304723762
Cu 8.053657782243626 8.17728217009753 4.162228769270026
Cu 8.297358600561058 5.695746156057849 4.389898701463721
Cu 9.960098482129117 9.136557258270521 5.5518140064073345
Cu 6.178426118436631 6.779719064392019 4.974764180606914
Cu 8.839050733060207 3.4115778196594206 4.878638047582055
Cu 12.086380625338133 10.184638365207668 5.960597175681024
Cu 5.575670225670389 11.134223748904777 5.772789664727581
Cu 4.5617673884339105 5.15492285004667 5.852384008386608
Cu 4.136996331107626 7.606745015471938 6.248625844754531
Cu 6.934770804968593 4.463524629178165 6.011323180219864
Cu 10.266358279559997 5.102661528304925 5.910948068990449
Cu 8.419189810320013 9.71185043907112 7.508167487980493
Cu 12.275470152911538 7.722874872104611 5.608011269197251
Cu 4.022512976984174 9.98962582243464 7.2340298139929775
Cu 8.831291289724717 3.648753182650284 7.274407664649929
Cu 8.272664324602399 7.3081741516879966 6.4565644554195565
Cu 10.888059659016148 9.751547443652802 7.988195617965535
Cu 10.253800717551325 7.038377741451873 4.490907761055932
Cu 6.050391322005956 6.255812478629359 7.386119548948757
Cu 9.82342236844727 11.410979682410105 6.4259174423081875
Cu 6.21782518959368 8.84378813218962 6.523847903756063
Cu 7.4656359862314945 11.967870212310476 7.1414399825545205
Cu 6.725888112803445 4.139341197216133 8.571275805945996
Cu 3.8073572014688892 5.854576965616879 8.119709568770846
Cu 13.00729543580247 8.64513288032292 7.709171284245592
Cu 10.789700586886164 4.886776453402422 8.314541959807816
Cu 10.609930808018522 7.181792902126772 7.192069555185099
Cu 4.5701441601873505 8.09966914140552 8.638956603652977
Cu 5.059364784925392 12.241683462474906 7.900017378069256
Cu 12.76467487883129 6.243231262916688 7.707940974932578
Cu 10.613376942731033 10.12188041805714 10.364046506417372
Cu 6.164502036541578 10.262789294070101 8.649562252504603
Cu 9.081259003184075 3.753432722122533 9.65185381902493
Cu 12.393812035124322 5.502118840676707 10.007657903860979
Cu 5.700398128483701 6.1968309300650075 9.84059385692214
Cu 7.142838637072281 12.392019983559997 9.569377000272986
Cu 4.076841620195152 10.23870111710246 9.774476095656844
Cu 7.110172642109962 7.996823905754574 8.647047360668655
Cu 9.494283997121967 8.054112374244081 9.128587644804666
Cu 9.32080813268593 11.615576720137188 8.86237628138981
Cu 11.796365080386316 7.836027597500958 9.70507419749764
Cu 4.810422350454406 12.475920195178507 10.270932187229107
Cu 8.415023672793449 5.847836329062333 8.546450960488523
Cu 8.779794040952593 11.629735254889987 11.352446341848692
Cu 5.768633279319229 8.603057020444421 10.746919089182217
Cu 6.2811178408194435 10.90720769924206 11.367381382998655
Cu 10.047155899602307 5.934593075259718 10.487265791464361
Cu 6.1428282507769 6.691853193208926 12.261398999684184
Cu 9.979079994146964 8.177026540112498 11.596174313537889
Cu 7.915508241407022 7.21952954998449 10.83023543401505
Cu 7.444887251912561 4.903521827151848 10.941922366406846
Cu 8.112159697971734 9.752576183785541 10.158958899792898
Cu 7.608172945881209 9.048236859226975 12.410259446888196
