51
Energy = -152.94964454 eV
Cu 3.499201283621338 5.749156148969688 9.751973455947494
Cu 3.1922382516401577 7.948147446516484 8.641538217980422
Cu 6.00810932710669 5.085554415755679 9.723420606836095
Cu 2.970172169580659 9.915666813685865 7.149793598362201
Cu 3.1121767685129322 4.410474792472197 7.7367722009480495
Cu 5.18571319369884 7.506309829965311 10.047383583407607
Cu 2.3728787036403514 8.460587284560456 5.223875844227395
Cu 8.645253378612331 4.75920808387025 9.447508520931171
Cu 2.7148840383824178 6.582927526688688 6.684122761211195
Cu 6.813806511820139 9.324435204754598 10.163001697203166
Cu 4.888902389269316 9.670959231577086 8.74740421361373
Cu 5.396179853022014 3.488353982586257 7.673044502951341
Cu 7.111373278207541 2.933403938142985 9.2644429374502
Cu 4.908361862804024 6.2354202521173425 7.88516555137541
Cu 7.6489724689452085 6.944207058664543 10.02542048966099
Cu 5.088264129716862 11.094363107777198 6.832005777091042
Cu 4.568912603012009 8.239961701189651 6.440169446979907
Cu 9.445496345946133 2.528083561517353 8.605731090568254
Cu 2.420577598938214 4.647086562655328 5.337499914694312
Cu 7.173240119190805 5.2784469491650965 7.532017884569413
Cu 4.169479118849068 10.072825264326696 4.830367805869813
Cu 7.177791595975193 10.372452187648234 7.896046277002371
Cu 6.7112584604343315 7.95975148914249 7.99660769394805
Cu 3.2641254895242167 8.656888694971933 2.967749162395903
Cu 3.607522845544758 2.675424905860905 6.114996129753592
Cu 8.87838904127456 8.920438384410478 8.965200543006224
Cu 4.87623154830402 5.002368563897926 5.781193209506195
Cu 6.536763589057061 6.898373767951131 5.733793910643523
Cu 6.537880228814989 9.545382631932263 5.647015696810673
Cu 9.558025380399926 4.457912481426315 7.106183445621228
Cu 9.208816008893873 6.721816273742587 8.04563599599371
Cu 3.615896783874296 6.533825212250809 4.241613640250624
Cu 7.401511648281195 4.499772380987684 5.164146312201103
Cu 5.508352316595072 8.255074811546718 3.8330308581009715
Cu 7.6685555747044996 2.6580949833884087 6.92770333259277
Cu 4.163621413146934 3.691905060464607 3.885270128985021
Cu 5.856258055320892 2.514808914755014 5.307486635960702
Cu 8.60710657965302 8.615002423541483 6.564557022150313
Cu 5.889533992929756 5.672081975101282 3.563958099166453
Cu 4.642286851020985 6.9239446323732645 1.9132106799122948
Cu 9.799998855086795 4.189132604828855 4.659433552660006
Cu 9.025873254151984 6.363926445909085 5.647789041178264
Cu 6.387870357887741 3.191893776077955 2.9860348040614295
Cu 7.983217105712154 8.156024604222653 4.184779846649606
Cu 9.974188732631697 2.2515063603464354 6.209091791885197
Cu 4.747497343341145 4.482868047997894 1.67229397892044
Cu 7.067980916759158 7.483883789019093 2.0568354555249817
Cu 7.068927201730386 5.1071872102789 1.4525071495695134
Cu 8.197666756806917 2.252942390877052 4.487019604800437
Cu 8.485419118492912 5.9019494719933645 3.3089272274390407
Cu 8.717959849596532 3.6261631108506593 2.530623362586748
