53
Energy = -159.5260517 eV
Cu 3.026698543961341 9.208302550313539 4.940362684558481
Cu 4.928621460605689 5.863716899058476 8.064944954425384
Cu 8.593938757934646 2.365010546021267 2.7912167341780463
Cu 6.264751058091117 8.403204208783524 6.948165029126325
Cu 4.781798187861573 6.920787147135902 10.441673631355236
Cu 1.3282541582594214 5.926276573058772 7.141784150235968
Cu 4.952618665665717 3.819215022853202 6.4711131712977545
Cu 6.524441389465288 2.0767159187599824 7.049714579790842
Cu 8.834595435592353 2.652703918771432 6.934065708060188
Cu 1.7723865227015705 8.487260502182266 3.025763855968767
Cu 5.339575908281943 2.049595260998983 4.838278632191616
Cu 8.62348424995469 5.5734578135733495 9.136486915286635
Cu 6.364010820177688 5.0193546440639825 10.031464814601078
Cu 3.0500208780506313 3.08804959377952 4.892537755159984
Cu 9.5373371878235 3.5388194002489928 4.776420399920751
Cu 4.418612930911449 8.38981257611246 8.5858849893399
Cu 4.037481921106609 7.578981767280481 6.350584047297543
Cu 3.271307276251989 5.376947850620635 5.74532414552452
Cu 8.650502446083841 7.231306719721882 2.752578870239125
Cu 6.685673877748012 8.670989821636658 2.631939356760523
Cu 4.926208315440344 4.538712608910081 4.0896783657888065
Cu 2.74115373744605 6.611185076830698 8.9680416584742
Cu 6.013946141716052 6.1711559446313915 5.772770889157019
Cu 6.386623944642714 1.3275163745576912 2.825887253402303
Cu 9.989789891186234 3.5722502694044547 8.86120630801681
Cu 1.5992360254078415 7.21794072919079 5.11686612429096
Cu 6.775554225737871 7.262897387936393 9.067658305931824
Cu 5.211497342292426 3.2327805618426977 8.775595660751767
Cu 4.705712536400242 5.100593856496983 1.680796953858621
Cu 0.8834440960839731 6.240424007184775 2.9815071934721216
Cu 5.234103990832336 7.381234860076522 1.1911392491637178
Cu 2.894710387832727 6.815498995545365 1.6212312187703386
Cu 3.8604531100661426 4.725080992000416 10.128441834711662
Cu 7.644840158239775 3.028059382492116 9.15286004026807
Cu 7.1430149203467606 3.9670110191446266 5.037449988060029
Cu 4.295689759524743 2.7131058237789043 2.648960785729463
Cu 7.151340251174003 5.863627502264545 1.1042220754764756
Cu 7.799582002147993 1.5936571948205103 4.948856623219137
Cu 3.967500531851852 6.876290957202317 3.845366693704839
Cu 8.190782769768612 6.936605011553673 7.081096680305943
Cu 8.627481320514201 4.7883109591926845 2.8137654788081266
Cu 2.6855684018823913 4.659590799232719 3.035778372712931
Cu 7.092379787411585 4.67018781256602 7.481104114293
Cu 6.563375452911116 3.6636799614252187 2.2823651934931304
Cu 5.418191272929574 8.757384358182968 4.6720119723143965
Cu 9.646239541256529 4.960012129918106 6.910149923247805
Cu 6.514665280162173 6.2511646724566985 3.359133578856698
Cu 2.0405217227114583 8.372879129077262 7.30517926710212
Cu 7.717841943244382 8.12130376400038 4.897101376955344
Cu 2.9647189499508046 4.242849558916106 7.920004420664291
Cu 8.69697707029531 5.928327991001061 4.917034192660218
Cu 1.0925997330068462 4.763126884420556 4.923984410007498
Cu 4.11686165674613 8.983762636460924 2.6111673187019147
