55
Energy = -163.22149768 eV
Cu 9.152837416930996 10.115472217255874 2.553201604206574
Cu 6.703225201508288 9.727675246988998 2.657455902995484
Cu 8.375764736546158 7.8213884024660665 2.8490812502433203
Cu 10.138181399046577 6.046276083444439 3.4147913507777523
Cu 8.020261997375377 9.709117855107337 4.65619967174893
Cu 5.605713903506992 10.185272628633557 4.929387130427917
Cu 10.79163424917094 8.364762196392407 2.8626194043737176
Cu 5.809061654923138 5.990686400110599 5.679955795072016
Cu 6.258586317499248 7.895255347782959 4.165626164455619
Cu 7.964721106834968 6.08261606143297 4.5486376514929
Cu 3.965243947670538 7.103611654072632 4.57612787161712
Cu 10.548469329167864 10.158026472988844 4.610827537665926
Cu 9.42870137039683 9.576466844834629 6.647407626863108
Cu 7.602181385917867 4.6004202472640445 6.464398092053703
Cu 9.987317565197692 5.422038291909164 5.906812211333486
Cu 7.1476498784721025 10.349094900973746 6.864564157358069
Cu 9.745378669148263 7.79862169971118 4.973214591753895
Cu 5.3635333194045325 4.177512560007725 7.374829320322846
Cu 7.580856070015353 7.79857695774454 6.41836282228502
Cu 5.010204882021713 8.296359800307012 6.3590484252885
Cu 11.477854650332567 3.619322133044456 6.750006298522633
Cu 3.744270282568361 6.147001941470142 6.8905067825753905
Cu 7.242339974791468 2.5325779632476415 7.629987740913501
Cu 8.680574001394051 6.248255851645007 7.96023112066395
Cu 12.4677935908157 7.485600683128028 8.775615765183048
Cu 10.699927765120854 7.548205674250904 7.152630240706138
Cu 10.985140880635905 11.25132163329518 6.93684758083438
Cu 3.691848195744895 8.123805024341651 8.398965718401213
Cu 10.937808061676648 9.471908055934914 8.709429089112119
Cu 9.359636673229225 3.7467977639758123 7.882139697643402
Cu 7.2498077650954205 4.447113677090479 9.103163933150913
Cu 7.454048010185795 6.835568379898538 10.010514441394612
Cu 6.110641735499431 8.730840164817959 8.468215609783634
Cu 8.457596529910747 8.709815268397072 8.705314394518364
Cu 4.773603377204149 10.604174029446947 7.4029561674930875
Cu 11.169274894633586 5.450393600303683 8.249355831678347
Cu 5.768281811287562 6.380083639039853 8.23353269260482
Cu 9.064729675409662 11.073194075725304 8.643600581079948
Cu 10.265377101292392 7.27681261465376 9.687456012382912
Cu 4.608744457801891 12.353475181562338 9.255977593381445
Cu 2.6829873257366397 8.608393060450275 10.55185617018162
Cu 4.445017520008137 10.03665586578434 9.842620584697377
Cu 6.7862361991770355 9.22598310945008 10.823721798461806
Cu 9.512777105306958 4.988866673374144 10.128209097296425
Cu 6.651969811908688 11.128747427575489 9.11165890624082
Cu 11.20561723948189 3.322079346200745 9.31586073682327
Cu 5.558397938159292 5.383494423179702 10.590930593641154
Cu 4.909964869564416 7.683584961127574 10.488905383125054
Cu 9.05137215742515 7.039585708406988 11.854823574764378
Cu 9.556860181269032 9.289470567632597 10.812709346336854
Cu 5.711002437864587 11.485670146456188 11.324824365872498
Cu 6.578425069642894 7.177731894860637 12.269807903396707
Cu 7.6821188048772555 4.99367320136992 11.692474304848924
Cu 8.104010770728141 9.161279159700168 12.773211063215614
Cu 8.145233305187991 11.210079801455526 11.050204868461066
