55
Energy = -165.06967474 eV
Cu 8.740713204204635 8.032272461118492 3.08437859711937
Cu 9.737993192619365 9.819863026904185 4.534154914944243
Cu 10.073853140953048 6.037683299135114 2.8775484026347073
Cu 8.26360281535382 11.88920039501783 4.612552543395792
Cu 7.2904329705333675 9.89578759637362 3.7644373811547482
Cu 4.293123696270834 6.847059292773716 4.688795318018559
Cu 10.458276589416545 7.386486882004492 4.91496653855033
Cu 8.094186122775278 5.977467926027785 4.365982620084632
Cu 6.358486207254947 7.618160148726183 3.880718465111523
Cu 10.109356815854788 8.672798163010203 6.989836412928507
Cu 4.014412968623133 6.348383504419124 7.035892244891509
Cu 6.3542568124106555 10.833766463352559 5.9967597766388705
Cu 7.941972228459086 4.2067683013644 6.058853081817154
Cu 4.881284598987786 9.628861057559313 4.1501005005265235
Cu 8.10182562398616 8.310911390014715 5.467681415004892
Cu 10.172580808211604 4.91518325647838 4.9993194534639285
Cu 3.908650443128165 10.677605061601948 6.218286549441857
Cu 5.243583292411338 8.608508163389352 6.250481988186723
Cu 2.8822655320448436 8.62948538556519 5.3754991386402295
Cu 11.424471614312303 5.980643411721746 6.837665767473835
Cu 10.132196758313533 3.8897852137361397 7.12644835298417
Cu 12.43344237061274 8.080508774489783 7.108279728507561
Cu 6.559637358312965 6.595936099120523 6.469263036557923
Cu 5.817521062976574 4.959955885226108 4.981767196876177
Cu 7.384920069038426 8.747463684561229 7.687523153017692
Cu 8.980764310043291 6.332408605446895 6.916157270724286
Cu 7.627995217206804 12.811514714338722 6.760772701683668
Cu 4.613486497486725 5.332285029249069 9.242970315029318
Cu 8.704519120876233 10.634047163576875 6.612243668718543
Cu 5.378137145806113 7.617595777787808 8.583122696001487
Cu 5.9929618547261825 4.435637548370655 7.5377078634771895
Cu 3.216003209794261 8.771276951820708 7.758439174122395
Cu 8.183577433899679 3.871851884998748 8.528993909206989
Cu 10.140617600449657 5.435400385347525 8.937362028350618
Cu 7.23661970179051 11.263665810917209 8.546197379077666
Cu 12.28634825848315 6.547066277491445 9.109610510150583
Cu 5.154806891029192 10.16571161920336 8.258987686895704
Cu 9.136406359436878 7.769198670302304 9.138476628360966
Cu 7.336528736486176 6.1731912594199505 8.961477990657096
Cu 6.473552691574443 4.276853774188096 10.250460670957558
Cu 3.0797212013690456 7.0961219604523595 9.421611653005812
Cu 11.289125954029892 4.8103411683181765 10.961474545987585
Cu 6.988259268121757 8.994810762538101 10.161708750472283
Cu 11.363192542096401 8.80317957180476 9.221137799360967
Cu 9.371279435149875 10.197252980597549 8.90933984669087
Cu 10.691691143363412 7.080350592034427 10.936319849909758
Cu 8.074096650604215 11.096843301644226 10.835449310547641
Cu 5.67023390331654 11.068814158755709 10.460909722498478
Cu 8.801834638087067 4.720090392579362 10.778242651989856
Cu 5.753928535017617 6.805746130559191 10.912536382814652
Cu 4.436996217254576 8.96370392855597 10.3276009288188
Cu 8.19197589577314 7.195065305829161 11.376078820987217
Cu 7.121694085665713 5.351837767556198 12.435267681810704
Cu 9.575140813273407 9.220117955496436 11.09963666690475
Cu 9.642681301131006 5.75469661753696 12.729735227225193
