55
Energy = -164.40845012 eV
Cu 8.75110334866462 8.07335065780074 2.9012561654935296
Cu 10.922182888553685 9.096936992140307 3.7343703116985756
Cu 8.860199355126346 9.385049165368347 4.961874575716466
Cu 12.40038501682341 7.358202411060683 4.629459335192026
Cu 4.746055129233363 9.531835615021174 4.962737657950285
Cu 6.851696200060015 8.182196401743072 4.474292685057361
Cu 6.8245817063050085 10.417871935845563 5.741259711260325
Cu 7.854257684419886 5.883517523232079 3.80112558088744
Cu 10.759118394423297 10.942088190589425 5.413614969122286
Cu 9.890344881678343 6.944576980094477 4.656748274178068
Cu 10.826633503127454 8.5585718272171 6.218210503431224
Cu 6.690367750626946 10.73003576436238 8.105318023753098
Cu 12.84581750895448 9.652779196021717 5.34430768674463
Cu 9.340628358300867 4.8170728272770456 5.58948698693577
Cu 7.099554166927424 3.8742308902390556 5.555925687166774
Cu 7.528834052465654 8.445893123649343 7.107226370647595
Cu 9.130576527413995 10.362298325534317 7.199642532185391
Cu 4.966957826540742 7.1824002689174185 5.542731170104876
Cu 9.45854515267686 6.692545794236031 7.315119295071839
Cu 11.837559562812954 10.398910610988144 7.5354038550640094
Cu 5.066795490652969 4.870227419291537 6.429306407676308
Cu 7.26504227799369 6.244829615828216 6.053394117559982
Cu 11.480286389610509 5.868922708650703 6.302352850305028
Cu 5.6741205961827 6.749781644097065 7.881071447992268
Cu 3.3405668467365146 6.475765578591916 7.217062930857322
Cu 12.993209560541725 7.73593687934743 6.970937880778009
Cu 4.504706896067276 8.913808550642484 7.2933911963364375
Cu 7.7559365798201485 6.914494020256938 9.141484553904183
Cu 4.72917001353806 11.246459667709424 6.8047942702932245
Cu 8.116323049783254 4.625438713814078 7.715213331191551
Cu 4.502642672778315 4.867699885412962 8.861242312407105
Cu 6.114291476534388 3.244163088110825 7.845829031663228
Cu 11.626618564360552 6.511314518318224 8.714958833672478
Cu 12.877342448426926 8.701649464686355 9.141977337020776
Cu 10.201610887598047 11.016382398342746 9.370018544433597
Cu 12.640485504786405 11.057455216394363 9.708513527788842
Cu 6.849020233295447 4.544840240085132 9.762651529825828
Cu 3.773994052827312 7.67077399515843 9.272998198048217
Cu 10.448899685552666 8.571111730648555 8.65040890115366
Cu 9.544821392626947 5.439728896942789 9.601018105531974
Cu 6.048593811976081 8.668127906633684 9.322668989833906
Cu 4.477768888786067 10.410182916655117 9.412825050718546
Cu 11.29476335580301 9.358740941149229 10.859408758267563
Cu 8.335314662719963 9.414354040563511 9.378878158944094
Cu 5.562751999917848 6.462620350740708 10.474961495554897
Cu 4.64345266542632 8.561884674733346 11.382981799813368
Cu 9.538738856888113 7.6754599275790865 10.808680144275156
Cu 7.817724717262855 6.039841441881195 11.45178333676687
Cu 6.770227676263708 10.83950025349615 10.53906708603027
Cu 7.262014155114914 8.493916218146456 11.648371028453019
Cu 5.876245322864938 6.822597072162978 12.820119184692846
Cu 9.093739480408368 10.165152875791062 11.538291885349622
Cu 4.859611377535132 10.876174040617837 11.958130816751442
Cu 7.1906261811747765 10.82719388078975 12.895668752458244
Cu 5.666895677749339 9.11285719013193 13.509179290726724
