55
Energy = -164.18905836 eV
Cu 6.528111388782123 6.877552879917335 4.396120916566988
Cu 9.096971890092428 10.454870068651454 4.598703454997807
Cu 5.674192236387726 9.237202134475796 4.739533417988878
Cu 7.828701791954321 6.031084120376246 6.435468004257145
Cu 8.36912415195009 8.110468222542627 5.287888066054039
Cu 4.212656338016491 7.055005607755027 5.064951799726341
Cu 10.15900900247201 6.876759621440786 7.119520206337804
Cu 7.431354243038054 10.107067555017496 6.298878906654702
Cu 11.428119143025025 11.06735599663239 5.611024333512644
Cu 7.317009725531398 3.7097608067065666 6.667518271653877
Cu 9.834815189820835 12.7137997991713 4.5898092926137775
Cu 13.519576334782963 10.605534068862438 7.001086961571808
Cu 5.515525567147042 5.272279312248825 5.962275193762894
Cu 7.467181951360887 12.309977108636412 5.371781270039223
Cu 6.011973492648929 7.879253341429599 6.657820641660629
Cu 12.088291222378354 8.745648294413774 6.67858877154249
Cu 5.134429096755032 10.736839154209934 6.733605766437719
Cu 8.59666145584036 4.834792900614741 8.449180905944331
Cu 8.173056992045652 8.071515661689654 7.876310089655456
Cu 3.6269433772931015 8.90489442860895 6.346440256405854
Cu 11.364377556701495 10.808557200977793 8.016540730210885
Cu 10.60421673471654 8.43278820984523 9.028623045830875
Cu 6.120091662836468 5.12509318450767 8.265012511454024
Cu 7.093356093969409 12.067099368544966 7.90209228732915
Cu 4.141196017603122 6.675261124165766 7.63013084979041
Cu 6.502852839006544 9.735421711195244 8.488185346283927
Cu 9.36334964100143 11.841363861676463 6.794263618703978
Cu 9.830961314685656 9.407724968117092 6.700397213690435
Cu 12.553712760108885 6.751189034699068 7.818763354501504
Cu 8.985462163459411 6.788214475470122 9.7855245349118
Cu 6.1539136724159125 13.41904776571107 9.682172440274227
Cu 6.177885136589271 7.419121257192497 9.160244190020752
Cu 7.929650356515084 8.909286428308175 10.284149599959003
Cu 4.865144549197439 11.428464438892341 9.113113917422043
Cu 4.206545558742369 8.997900879439083 8.645857191331356
Cu 13.252759035549104 4.704938355650473 8.97272440131247
Cu 10.93618501251286 5.431824081782702 9.07736337752369
Cu 9.021441544967955 10.621509273549416 8.882314147261859
Cu 10.849399843278574 6.58418687812997 11.535049172197729
Cu 7.052277920987379 5.37158520760683 10.52119588950975
Cu 11.156589917082961 10.508255157400189 10.355014856333392
Cu 12.95994313239187 9.057274165830783 8.99969223966282
Cu 9.055062975634584 10.95243477795907 11.52352557327293
Cu 7.025115380426189 11.316887102515441 10.371455865779312
Cu 4.612035424634244 5.957571124444463 10.055536403691997
Cu 11.994670947078543 4.532898354266856 11.082034884879985
Cu 9.429298814075187 4.702355326546891 10.951788984658554
Cu 5.439523649210007 9.447187283023581 10.7352516445526
Cu 7.333853189416113 9.32561500369846 12.487341918754346
Cu 12.895672434930606 6.7304351812390575 10.194417707131052
Cu 12.26207045555364 8.664401646147295 11.402063937552054
Cu 6.049034706755725 7.311223067254311 11.652603892206661
Cu 9.845283510546022 8.733206244975577 11.771885368951502
Cu 11.204036193199045 10.45653767355428 12.751113928596377
Cu 8.370136099949818 6.832289939331659 12.126859284123313
