51
Energy = -152.30858704 eV
Cu 3.364229211538466 8.36870476191278 8.737293989862042
Cu 5.840629961967603 7.368123883346495 9.037274185159864
Cu 5.196556113033818 9.465019572763202 7.752312682880713
Cu 3.6310754123902518 6.02542937698484 9.186327934760092
Cu 2.0228736773958693 6.701379534292246 7.531904332330065
Cu 8.495513184994124 7.537666631920719 8.929475568950274
Cu 7.524347986164544 9.215181524385233 7.481074087230406
Cu 5.561521654595388 5.2746016131237425 10.439198572702919
Cu 6.218489373262764 10.717674383380736 5.97530256247352
Cu 4.081847577026139 9.430236610797879 5.611477624531229
Cu 4.4989720074005675 7.187181326160533 6.90400558220247
Cu 3.835919737530676 3.671244360168566 9.891460611040168
Cu 2.129705179346337 4.290934449478809 8.247087405916197
Cu 2.692547789002327 7.307981815124361 5.256217152652907
Cu 8.419033609260516 9.78759286161931 5.285679204631233
Cu 7.185906093631406 6.737553713959368 7.054685928419353
Cu 9.347810447963782 7.860244327476734 6.5565180996112655
Cu 6.18145457622429 8.159296151732317 5.279915684328631
Cu 7.5377277166548335 5.238200773303011 9.095925822158689
Cu 4.078730936071613 2.894143591866445 7.629690517660611
Cu 5.418863126832048 5.044498296170132 7.765891543548882
Cu 7.441045221376385 11.610657765643424 4.069095125109846
Cu 3.2620611162764397 5.051279863248703 6.2406827934926445
Cu 6.1251245648034285 3.1837469506678993 9.179095997587606
Cu 5.653446335810206 9.985346675798978 3.6867251670974426
Cu 7.8836370064466825 9.525875645529512 2.865384912456293
Cu 2.136628480986263 2.8378633654208563 6.228507128783839
Cu 3.212254243694175 3.7413191918282047 4.178760171897364
Cu 8.499387914547464 2.9469982593187702 8.406632654173949
Cu 9.4810657616752 5.60032915067751 7.7301814493274215
Cu 5.38547424048447 3.8731003127636283 5.518203210524353
Cu 2.618810864086985 6.014220478681453 3.148117986721443
Cu 6.284089402915234 2.012092208835947 7.045397794425829
Cu 7.58787578690408 4.217144123035546 6.684977329124997
Cu 4.650019324294731 5.984209961623525 4.338937142800734
Cu 4.03727784490535 8.241765166608388 3.47280717655348
Cu 6.965016197163649 5.767743551723437 4.835335503207161
Cu 9.382731684264838 5.653957796349847 5.278464544273247
Cu 6.459801264190433 7.461857810133726 2.8457048820889352
Cu 4.222136361295097 1.7141814106109878 5.448507068064496
Cu 8.579946796428626 7.644867647789374 4.189044155606384
Cu 4.705278633271877 2.1944409843555546 3.0680638929272717
Cu 4.215732873957159 4.412183677224943 2.0687788316881446
Cu 10.005143442698362 3.593221183463303 6.474188693379682
Cu 8.466064538933546 1.7662267587015916 6.132869572148975
Cu 4.393677452269743 6.796266410477361 1.644747380299349
Cu 6.563447389430038 1.852611470794484 4.608926598254669
Cu 6.342952140039257 3.9845092391176133 3.1975058267296577
Cu 6.345771071163316 5.498101939681475 1.3219118884940657
Cu 8.404358716772606 3.5690425181414165 4.428847048177792
Cu 8.289176342184119 5.581699991727109 2.869382183804489
