50
Energy = -150.40127227 eV
Cu 10.055160075440948 3.9299997189123124 7.130393201788211
Cu 8.48394063265466 2.1851809941043756 7.957055049845313
Cu 10.331569877613187 4.072277615754362 4.766965785768939
Cu 8.840860978043361 2.1515164132690865 5.513562252862251
Cu 6.631403928838281 1.8102801510771769 4.202245036419141
Cu 10.835222726342822 6.129669836378008 6.107611656857421
Cu 6.466002971025623 1.8147910270259509 6.633343881993705
Cu 6.305904488478826 3.45534320104726 2.380260717261129
Cu 10.332145978179467 5.957956246164261 8.592707696826762
Cu 8.37623708569613 4.4724137885575175 8.843294780186197
Cu 8.116196200091972 3.834966213001544 3.9202221740308865
Cu 9.06589317562109 6.121609366178353 4.317750817398102
Cu 7.558759331535507 3.982399611234481 6.4908505601159865
Cu 6.331505365478986 3.2068923742267077 8.668066920392617
Cu 8.622673098583313 6.1540480387280585 6.9325715145431355
Cu 5.67478310268823 3.904239147299815 4.913963233941298
Cu 4.304452108670376 1.9330512340035562 5.565358837260621
Cu 4.231515935523518 2.7190640958565777 3.3284222289001844
Cu 4.632741027471862 5.1476084850898385 3.0992897744827044
Cu 8.992684709477201 8.267066509519431 5.6081138207518935
Cu 9.441436390417886 8.23360143630012 8.025240768670264
Cu 4.554074132584548 3.817403710749781 7.139079603468312
Cu 7.023130457814471 5.755085775217946 2.840749901749156
Cu 7.984228871400577 6.802805456778357 9.277122127592536
Cu 6.219607700167111 5.676588898948739 7.739382090411853
Cu 3.104344130470864 4.2328007486591375 5.01816875180531
Cu 4.6992923648256815 4.93519514942168 9.478154557037415
Cu 6.8066779223096106 6.134325703280916 5.2677396275279555
Cu 4.446457582445391 6.008204956773783 5.829677680846344
Cu 7.45994341847407 8.027610424653119 3.676557369157309
Cu 5.672234582256316 7.1635199140841355 9.716479237915765
Cu 8.210021745514755 10.154527475546566 7.285669673955894
Cu 6.935859497862974 8.013826611641415 6.981545193756575
Cu 3.0609082097603064 5.639923017188048 7.8660785835974085
Cu 5.24147743782119 7.471087707754461 2.6100120461292757
Cu 7.024068363954431 9.097836968972159 9.180130005030502
Cu 3.15795689804781 6.8464495366075235 3.87968929299105
Cu 4.49822682933398 7.878112391717632 7.444952700641327
Cu 6.997065688266545 9.958000445773683 5.249734534033724
Cu 3.307152928240066 7.0798096724812325 9.78159436607315
Cu 5.225438751742228 8.196707518824745 4.994226268275837
Cu 1.9431357199897943 6.386596948686799 5.9238865510278895
Cu 5.861157988224707 9.822841819513652 3.1559601041438277
Cu 4.4629510430067105 9.294862620117692 9.380894412259554
Cu 5.7170515845284555 10.212357235747664 7.377969675518504
Cu 2.1111800584712697 8.000093004075056 7.857727388232279
Cu 2.7663663517993218 8.671530183189121 5.572771841575725
Cu 3.55613317826212 9.18459219413364 3.34293565595515
Cu 4.5052232070284886 10.52010028621334 5.2309587270623705
Cu 3.291484694036569 10.152758213635174 7.396794550388369
