55
Energy = -167.45357342 eV
Cu 3.6480668820938975 5.645149651991907 9.166082575712336
Cu 9.814863596486486 8.1613167638502 6.321745369932035
Cu 7.769015209011801 4.792928592654585 10.343160988325108
Cu 5.600549176965108 5.960218048573339 5.15881988295628
Cu 9.860896622201247 8.331392638699198 8.877456537354565
Cu 7.739591526046991 8.59217102738819 2.6031703599231246
Cu 5.654520994961517 6.164231690976757 7.8084396639892475
Cu 3.6087953454105817 5.5137671981623475 6.576548870930212
Cu 7.7152083803678595 8.805440406668433 5.037655114757561
Cu 7.833804661873467 7.025466774660124 11.522111380435103
Cu 5.689256294112325 6.272205465856665 10.459708895999844
Cu 7.749536454397283 8.96522045747892 7.593222249364999
Cu 5.605888345074297 10.334292885216732 5.078281589080606
Cu 3.6525335520122986 9.772235205229666 6.428586307557857
Cu 7.816553636518141 9.144936671457959 10.151849828120934
Cu 5.648904792936625 10.695784500922672 7.540275561182206
Cu 7.696842220459535 6.5341575172884365 3.9289402588270823
Cu 11.780311550309417 7.361832415069797 5.130643237202396
Cu 9.792988986309377 5.825518147360318 5.100404237526045
Cu 7.718722735735851 6.694904655297011 6.452311482590488
Cu 12.035560544683273 7.54770651481865 7.596904346557215
Cu 9.822481538097431 6.08499481404059 7.739335253933483
Cu 7.761484809198688 6.865893870426908 9.006614639255169
Cu 3.6535433228532055 7.583243459766875 5.2514757832943975
Cu 9.888735589007688 6.174157607426094 10.382521835559668
Cu 7.639737029845108 10.799296016740723 3.7349370561765247
Cu 3.735616965463286 7.849596920438821 10.248357874373326
Cu 9.76834467214781 10.259805316310004 4.958784667744963
Cu 7.717242337953517 11.041218510065514 6.2070517412138715
Cu 5.788667319605809 8.572919461633104 11.45723919835135
Cu 9.844092686675314 10.531271163971354 7.444010807238744
Cu 7.786704389704203 11.208808030776721 8.704353040714064
Cu 7.907375110050056 9.237469562486481 12.582988448500487
Cu 5.629751293369393 3.9640872122178425 6.647624070697658
Cu 11.784523781928828 5.321298018969347 6.5078632851264135
Cu 11.869962390353963 7.696207021287821 10.074542994621021
Cu 5.668147845909028 4.116508105678657 9.20932178741558
Cu 11.831140186147056 5.489071375707223 8.982351780367255
Cu 9.922186697171645 8.463983349728304 11.38290284413723
Cu 5.655084514368275 8.10704553446886 3.8744840247201084
Cu 11.799288131429133 9.611554937144906 6.2163516231942815
Cu 3.7093761158109677 9.915921573981816 8.868811251739086
Cu 5.641497925848927 8.250037367931588 6.4071355465440885
Cu 3.659415642885005 3.5296852874729927 7.973018489496165
Cu 5.7393384946190995 10.665085061846863 10.018739772343956
Cu 5.687189070723134 8.41103987787111 8.95384095506288
Cu 3.450848242483133 7.6984056373672 7.763309871892702
Cu 7.838675251628553 11.301227037500288 11.184585808318266
Cu 9.760473832553055 3.8942081609730503 6.635613741140696
Cu 7.689529601158863 4.470473144759863 5.379793687731021
Cu 9.891283278920085 10.578510573209448 9.95230173622361
Cu 9.799951123625352 4.056380492632877 9.113830923146763
Cu 7.715861997325728 4.485277569803821 7.874206098439839
Cu 11.855315726481347 9.77815792846632 8.687477937312625
Cu 9.78439414081133 7.97595533139621 3.8275752497706903
