55
Energy = -170.25860807 eV
Cu 8.099125341115391 8.099125341115391 8.099125341115391
Cu 8.099125341115391 9.386275313753774 10.174496490581436
Cu 8.099125341115391 9.386275313753774 6.023754191648996
Cu 8.099125341115391 6.811975368476657 10.174496490581436
Cu 8.099125341115391 6.811975368476657 6.023754191648996
Cu 9.386275313753774 10.174496490581436 8.099125341115391
Cu 6.811975368476657 10.174496490581436 8.099125341115391
Cu 9.386275313753774 6.023754191648996 8.099125341115391
Cu 6.811975368476657 6.023754191648996 8.099125341115391
Cu 10.174496490581436 8.099125341115391 9.386275313753774
Cu 10.174496490581436 8.099125341115391 6.811975368476657
Cu 6.023754191648996 8.099125341115391 9.386275313753774
Cu 6.023754191648996 8.099125341115391 6.811975368476657
Cu 4.006705580128364 8.099125341115391 5.57099925322684
Cu 8.099125341115391 10.627250704905995 12.19154510210207
Cu 8.099125341115391 10.627250704905995 4.006705580128364
Cu 8.099125341115391 5.57099925322684 12.19154510210207
Cu 8.099125341115391 5.57099925322684 4.006705580128364
Cu 10.627250704905995 12.19154510210207 8.099125341115391
Cu 5.57099925322684 12.19154510210207 8.099125341115391
Cu 10.627250704905995 4.006705580128364 8.099125341115391
Cu 5.57099925322684 4.006705580128364 8.099125341115391
Cu 12.19154510210207 8.099125341115391 10.627250704905995
Cu 12.19154510210207 8.099125341115391 5.57099925322684
Cu 4.006705580128364 8.099125341115391 10.627250704905995
Cu 8.099125341115391 12.303672230109221 8.099125341115391
Cu 8.099125341115391 3.894577728023961 8.099125341115391
Cu 3.894577728023961 8.099125341115391 8.099125341115391
Cu 12.303672230109221 8.099125341115391 8.099125341115391
Cu 8.099125341115391 8.099125341115391 3.894577728023961
Cu 8.099125341115391 8.099125341115391 12.303672230109221
Cu 9.400732916974775 4.689792419370919 10.20491388773964
Cu 6.7975170411582315 4.689792419370919 10.20491388773964
Cu 9.400732916974775 4.689792419370919 5.993336794490794
Cu 6.7975170411582315 4.689792419370919 5.993336794490794
Cu 11.508458262859515 5.993336794490794 6.7975170411582315
Cu 11.508458262859515 5.993336794490794 9.400732916974775
Cu 4.689792419370919 5.993336794490794 6.7975170411582315
Cu 4.689792419370919 5.993336794490794 9.400732916974775
Cu 9.400732916974775 11.508458262859515 5.993336794490794
Cu 9.400732916974775 11.508458262859515 10.20491388773964
Cu 6.7975170411582315 11.508458262859515 5.993336794490794
Cu 6.7975170411582315 11.508458262859515 10.20491388773964
Cu 5.993336794490794 9.400732916974775 4.689792419370919
Cu 10.20491388773964 9.400732916974775 4.689792419370919
Cu 5.993336794490794 6.7975170411582315 4.689792419370919
Cu 10.20491388773964 6.7975170411582315 4.689792419370919
Cu 4.689792419370919 10.20491388773964 9.400732916974775
Cu 4.689792419370919 10.20491388773964 6.7975170411582315
Cu 5.993336794490794 6.7975170411582315 11.508458262859515
Cu 10.20491388773964 6.7975170411582315 11.508458262859515
Cu 10.20491388773964 9.400732916974775 11.508458262859515
Cu 5.993336794490794 9.400732916974775 11.508458262859515
Cu 11.508458262859515 10.20491388773964 6.7975170411582315
Cu 11.508458262859515 10.20491388773964 9.400732916974775
