55
Energy = -168.54908843 eV
Cu 4.324631833257688 6.800677979514796 6.11093175021719
Cu 12.682378339460744 8.936557167501828 8.282097596311083
Cu 9.922877511952022 6.41133857532685 9.564525020722948
Cu 6.810504536335685 4.167038325934486 8.138736133026304
Cu 10.436242036108174 9.059894624278558 9.44949431826113
Cu 6.963688076723782 6.593837234577178 11.925609233503886
Cu 8.555686690849187 8.118945104013429 5.874174568532513
Cu 8.105182852318807 10.60024155017504 11.864954910381554
Cu 10.907860475189233 5.1044507558462895 7.600587971765355
Cu 6.395325991114751 7.441581396308731 7.187258651164239
Cu 6.250298934726059 7.578360475015317 4.698761894710788
Cu 7.2632057807842045 6.3378211690713 9.385184436831537
Cu 4.173498477215593 9.378300452746373 10.31241712843241
Cu 4.1218338416990346 8.096595557332863 8.206774798172182
Cu 4.997748837514926 7.025932332937029 10.425808209946535
Cu 8.185254131028996 11.865727223892396 6.121882162285089
Cu 5.720303395843007 11.546261980900695 6.079008819120748
Cu 11.759829291787147 9.752448360779733 6.194035215485973
Cu 6.8400258414945485 12.176680777239028 8.254752306688127
Cu 9.074679935444442 4.143199393122699 8.792195830015816
Cu 9.605327397519263 10.074919845890548 7.251297729144691
Cu 8.42288085580027 4.863956830575643 10.992522182784459
Cu 5.963794098274556 4.700421241591964 10.460462959952094
Cu 8.23586326771868 10.433931109927359 9.377477719314623
Cu 12.343680860102797 6.576631996499118 8.865033463054283
Cu 10.770714656563934 7.627834946702415 7.209602386659
Cu 6.046215963477227 11.086637095387562 10.411147229102566
Cu 8.351542804542165 8.291191045595685 10.743049284192207
Cu 8.48749303318212 8.181778309755467 8.317996620292131
Cu 9.620742201492478 6.721624191443536 12.070622658406254
Cu 6.127392985031747 8.959777833648182 11.811956158794349
Cu 6.292682998713718 8.788447983060577 9.334113115698578
Cu 13.839829925250225 8.027748288691411 10.161129785051163
Cu 11.557861714766226 11.121940337395678 8.417398305911478
Cu 10.657542151769665 12.002770334116873 6.23777084365454
Cu 10.260468716751992 9.29412007221787 11.989734860926728
Cu 10.217780127979308 11.376201840759755 10.545112904780225
Cu 9.374146782433389 12.399721365195347 8.324534699347584
Cu 7.0785369763036075 9.923391133855969 4.74827926081221
Cu 8.551642653694218 6.026229940122974 7.2563678007044
Cu 8.019075486996034 12.602764233545798 10.40018946905331
Cu 8.05487143365796 5.952528642322939 4.600310691788203
Cu 4.943859988491643 5.733515425225754 8.30561499516742
Cu 11.67459075806007 7.530131971945894 11.03075297189784
Cu 10.244342501861174 5.891337695067773 5.443568993147916
Cu 9.553049918054267 10.242376346282166 4.77785460537365
Cu 8.166589217553925 8.468654028235134 13.134369964025797
Cu 8.487811671601847 8.211741484407208 3.5392338750107752
Cu 7.076909448225166 9.885062257549718 7.180611739077051
Cu 12.322254053333792 9.968967353498213 10.588987353650626
Cu 10.74175320758801 8.11743631675737 4.683529631630564
Cu 4.861921727958195 10.518575197704072 8.192345078303077
Cu 6.265221532817698 5.255728850156594 6.0551832272278405
Cu 8.573765639590244 3.98032828349032 6.220100483320106
Cu 4.901518246647863 9.210417549516373 6.037277811819877
