54
Energy = -161.17563983 eV
Cu 6.530447132591551 3.8293893507253878 10.0439676586171
Cu 7.329738362868706 13.391204262051673 6.415391531517578
Cu 8.478898224790036 4.082600446163123 6.576022619845563
Cu 10.967769087029609 10.587735535973117 8.055561700524343
Cu 8.044797887953647 5.222172513910401 8.731983662833946
Cu 8.673033023638155 9.615715296828833 4.814248708157836
Cu 12.320908960310124 8.569403441125209 4.271659838472839
Cu 8.848595159703374 5.575126204220607 4.580905325684375
Cu 8.379305693786984 2.7896043434516886 8.74314885543079
Cu 4.67125836133749 11.405616902681693 8.954078278243383
Cu 4.552075714782878 4.258580699139687 6.1562966509712185
Cu 10.169033675305709 7.652326737821847 4.848736265647491
Cu 9.778730921395812 6.1598903756937435 6.877575681014542
Cu 10.975289177618075 10.021961117308267 5.612031722542104
Cu 5.499222343431696 7.941555851841752 10.950630808634317
Cu 4.575606804397618 4.412491829512867 8.634977042954242
Cu 4.822765705722045 5.416194842606996 10.992305744464577
Cu 4.56300109648538 8.248512415825324 3.3843891610567876
Cu 11.99108977279851 7.360936707242404 10.776789773309108
Cu 7.499862314453643 9.542479208080964 6.933610476993869
Cu 5.000813511478296 6.420360292147032 5.0117747822771435
Cu 10.27915470606835 8.734296917855515 9.718030286686636
Cu 4.3364354884659795 3.0513716129627597 10.583242324177617
Cu 4.132100272747767 8.549027330902154 8.76182832978427
Cu 5.719173941399491 6.5473784986997945 9.091411477022868
Cu 5.013362095898579 10.140421715455911 6.969858510745031
Cu 7.912292490164947 7.360654633963419 5.8605169643671085
Cu 5.598114311353576 13.648466311214722 8.25080567764032
Cu 9.817117694469053 8.64454263853414 7.227850132953175
Cu 9.564880014603974 6.5424978787708294 10.376690036476546
Cu 6.643643702016903 4.560540311149051 4.789450073172457
Cu 5.806839975074578 7.868182274127613 7.090091992577562
Cu 6.279873185115625 9.545526401616689 9.235368226007404
Cu 9.011020678419335 4.18595719515881 10.707645422251813
Cu 7.236315105664539 6.10730049929259 10.978563768957079
Cu 7.952160017222256 8.499065097926142 10.73536674970078
Cu 6.2575314642012865 8.919163492116658 4.838141561041481
Cu 3.9145307622310495 6.405237191545106 7.272960639987478
Cu 6.864331968407024 11.291586674366762 5.281062124908113
Cu 3.8124136074305928 8.418164304304387 5.739587925368497
Cu 11.430211976201406 6.529384491174318 8.61439264598599
Cu 8.031250924674028 7.602265179703747 8.48885582614653
Cu 4.510429241639629 10.588123245969093 4.618123946031489
Cu 12.436497697122103 8.738767552233526 8.720213339936095
Cu 9.06976671142448 11.395259904241364 6.606618142318857
Cu 11.391896938368067 4.987023049619847 10.556682894182444
Cu 6.89143692250038 11.673785618013174 7.982695678188781
Cu 10.291047007677067 4.332557943925478 8.479164026936148
Cu 6.420083836165079 5.545492766719611 6.977984696580221
Cu 8.634302751213045 10.244896010715225 8.95669132650916
Cu 6.921544540225498 6.8416288830713174 3.61980767432182
Cu 6.338270892761779 3.150153899458131 7.476106547874684
Cu 11.971460116681898 7.710839162337593 6.510703301295357
Cu 4.984064412480478 12.446290123103438 6.2886956557287315
