55
Energy = -166.58181927 eV
Cu 8.49502216955858 8.787255198800391 8.424762302520516
Cu 4.449863663874698 5.047353346551765 7.477504431941893
Cu 8.307196659039601 4.929880729178499 10.622912407247108
Cu 4.329910188471863 8.780628049330808 9.601660968012759
Cu 8.603064400528634 7.522449464211472 6.24381953136648
Cu 8.381319526624006 7.502212216948967 10.597628597871568
Cu 8.483185117425782 11.283992029775657 8.405759544718592
Cu 8.633865493292635 10.11160657245902 6.204230762437018
Cu 10.405646787442207 11.171811229290793 9.960623035164444
Cu 8.486351850966447 6.235813956918249 8.412589685582574
Cu 8.615701737244535 4.930031345694873 6.184087004442396
Cu 6.287756567512901 8.780414099305004 11.193520113476431
Cu 4.312240623814174 6.279126163148881 9.596887362280015
Cu 10.678449932185242 8.77617271368078 5.6620831444685065
Cu 4.254558869865534 7.522469251720394 11.700958667545674
Cu 8.448656215735424 3.7431386451146476 8.384036352746227
Cu 10.669709058052323 6.255148604391788 5.6541779873896205
Cu 10.537295750081151 6.259340655625929 9.969002264466917
Cu 6.404949312904451 7.5175209641742535 8.977737299703152
Cu 4.483837774930317 8.791079490461037 5.284351434043881
Cu 10.367488009633616 3.8248031204307966 9.944020632235214
Cu 6.39452084685899 10.103142826399576 9.05879121641209
Cu 4.476867915247611 6.300625264774595 5.271608041944614
Cu 8.32707372876737 10.090459674122087 10.638562818055618
Cu 6.375448161002686 4.94377834852366 9.044482179018223
Cu 6.633631273239995 7.542870764261228 4.653678082226296
Cu 10.541889425687563 8.743799699740613 9.979751071233395
Cu 10.622985569391586 7.501755607979384 7.807099697003944
Cu 10.690470536559172 7.52351084518625 3.5332573982414064
Cu 4.652410220144935 7.5454152236116805 3.068370810377214
Cu 10.560786583816208 10.010725210513062 7.788620762206187
Cu 6.664450449419441 10.117798524387037 4.639321953569837
Cu 4.688450065162092 9.9963490946354 3.174822183178438
Cu 10.541864122675074 4.988779841347898 7.7719103345814835
Cu 4.616451241521314 11.232485163446581 5.3264415479796
Cu 4.669885583143325 5.089368370199151 3.160454856007623
Cu 6.533363263645424 8.808453608915041 6.837851133566958
Cu 6.644733452027239 4.954555170004925 4.620483679763147
Cu 6.725813300535144 8.800144629530017 2.504081683615965
Cu 6.542526710147602 11.306197575598727 6.874165483893974
Cu 4.589944914912227 3.8697614558305107 5.315279965460874
Cu 6.717302533377004 6.278945779562361 2.4974789056610076
Cu 6.525951714430383 6.25313937169483 6.824385682421412
Cu 8.733741479662893 8.897726570973125 4.0434586759855
Cu 8.765886706384231 7.536876166333321 2.0117282215050656
Cu 6.5140893666452495 3.756338605462199 6.857339330111671
Cu 8.722319797361688 6.161823474388611 4.034554700411598
Cu 10.355610849820197 7.500146620371288 12.183510312177539
Cu 4.386522288446407 7.543485486847673 7.4421925576024845
Cu 6.277028221279328 6.2513994382022355 11.19021651024228
Cu 10.324223921696287 9.95091809397384 12.10174581481849
Cu 4.465147116782884 10.043806885068571 7.488539462004501
Cu 8.275871803084165 8.752876064257169 12.719640287058532
Cu 10.307004103314974 5.056669209249709 12.085107079241535
Cu 8.268270631370452 6.262231094137589 12.717321639505046
