53
Energy = -160.42883648 eV
Cu 2.460498203238247 6.20107940212855 1.758405393143386
Cu 4.554490864301224 6.243832307213569 2.765675003577478
Cu 4.914161727474966 0.9347918726660635 6.537005016429273
Cu 4.55569493629736 7.4100111291962065 5.267332216921805
Cu 3.8730954166796994 2.3277569202144766 4.799521567245092
Cu 6.421073445361895 10.477458112263957 4.386273504168762
Cu 5.356915840323169 8.70420517463995 3.2444792462512777
Cu 2.9776295240042323 2.337651572842566 7.595836640961092
Cu 5.809963776139937 5.834656735463974 9.851234428888949
Cu 6.693672180254097 4.014593398337187 8.319003397615276
Cu 4.117662528419627 8.1246579300831 1.1855764799653457
Cu 2.4527310324514606 4.054092247853468 5.835150030547493
Cu 6.5915896359662245 6.430103319742345 4.0486837953879835
Cu 7.787511319061608 8.956897156415545 7.894690874660334
Cu 5.187891918129719 1.9055795061621166 8.803991455310815
Cu 5.662786072924045 7.8741877485314005 8.523128372544202
Cu 6.555550631558726 5.028454388522464 1.7083790247490909
Cu 6.439242535739534 2.2663198858818507 4.943229148126667
Cu 8.682178461977216 3.1540821880185117 5.761591360427798
Cu 5.091792601000883 5.770805070934489 7.325498645013778
Cu 4.949996931518921 3.3223777372302816 6.741799612217931
Cu 3.9879523209096934 9.811114446397877 4.985693815926199
Cu 7.8374016474734285 6.705237341282398 8.805314185046315
Cu 7.007789093570286 7.098496776013607 6.423678068174823
Cu 2.6774311985205856 6.340787312173007 6.72083470693189
Cu 2.927180153509035 8.282637202636513 3.2600730854425657
Cu 7.14215503639188 1.761498204218246 7.211182987729572
Cu 8.885217899752014 5.697229282631812 5.035928896652011
Cu 2.370574240447913 6.19469107164743 4.315152841506267
Cu 6.818798540145931 4.666267253528076 5.887138171928167
Cu 4.537397393348057 4.9989950018951745 4.956015827038573
Cu 8.289355800284612 4.555549653119724 9.939658148950846
Cu 7.484955827413958 1.9940199785191972 9.668343054551912
Cu 9.401145275577726 7.4283591434044345 6.754498281285253
Cu 8.895945653234932 5.094991491809477 7.397326307827932
Cu 6.558462966985966 7.4388763601356915 1.5573790042061855
Cu 4.149136551268226 4.113888230990561 9.081387944999495
Cu 9.101120504185511 2.8830733221725837 8.175897793718992
Cu 5.955063579863437 3.554015886300654 10.640741161672892
Cu 5.339015460566352 3.464053546196458 3.1390886071333934
Cu 3.530592009499685 6.554145019746506 9.006272886644908
Cu 2.031714307296349 8.36167955359627 5.491112071169298
Cu 8.188453798766783 9.245075114823324 5.512832312480172
Cu 5.859333115862592 9.324952664407112 6.436462416487686
Cu 2.0006968268611574 4.571717113456998 8.195113371048814
Cu 3.6621678976395913 8.522822374539006 7.3000212240529585
Cu 8.532227950887618 6.3686897910049405 2.6450007822384327
Cu 7.6968882881585134 4.0590828952183875 3.6174907243668066
Cu 9.744490886913859 7.818683331696929 4.297267640952105
Cu 7.815523783906063 8.757453906073627 3.175416354390435
Cu 5.017579918480522 6.183101811182071 0.14464164574008442
Cu 4.113980502315081 4.302398528345943 1.232131120866925
Cu 2.9201936860783606 4.088894285433159 3.310491043623921
