54
Energy = -159.47955947 eV
Cu 11.885718223949446 5.099283990271265 7.103579153666613
Cu 11.403036810939804 6.563275977160163 2.4309185654610044
Cu 7.988270952542033 3.724847526289689 4.405390010634781
Cu 2.232203412146346 10.901589948482213 9.713547358096667
Cu 6.301246851461169 7.6735879727106635 5.8060040944523195
Cu 7.333898735858054 9.478599996784252 7.610862384706649
Cu 4.869034583890262 9.29467562567231 7.070762535780032
Cu 5.983819426302148 11.413744538480184 6.880428166989942
Cu 7.664866486462553 4.514074527935302 2.0122674004480623
Cu 7.528465402464098 8.123696611169393 9.994361669822139
Cu 5.111926523004314 5.456633164229865 2.6493297704779417
Cu 4.520297734698851 5.192040573093978 9.020417815264402
Cu 9.75784264768319 9.927787247823753 4.135838066876476
Cu 1.7964442612861258 6.8678730221983235 5.99576142358695
Cu 9.734107004477542 7.015113780525179 9.330010101803781
Cu 5.585565986755182 7.618339369057694 8.762562664893585
Cu 4.067735437157804 4.540805956405318 6.604414654263831
Cu 9.612347840623615 4.888961956837214 8.144725233684552
Cu 3.532871745301653 8.471893002036945 5.25862875638776
Cu 7.355336133606238 6.5253064485407375 3.21728100803946
Cu 9.682366687649509 5.090544656941265 3.3857691890208215
Cu 5.881288365570976 6.352285172117412 10.950674538358369
Cu 3.935247511313828 3.798031839567841 4.25763118774861
Cu 7.556118798745617 8.868674301369964 3.7934769756257096
Cu 8.018888802746977 3.169927947212196 9.105763406267652
Cu 5.733769283137855 10.245228758734088 9.2244555089645
Cu 9.695071209766379 7.507209161345178 3.8448277613817394
Cu 10.019937719261465 4.351786621768303 5.744858236164703
Cu 5.546690971548246 9.91044975718955 4.854594347053461
Cu 11.50574375153697 6.023684117856449 4.806736686928921
Cu 7.821407581559008 10.69794730953537 5.45384005911482
Cu 3.808011099258044 11.257260221381024 8.010908258653442
Cu 5.838367660988122 2.8866164078073737 5.6423636442537335
Cu 3.687837372341089 6.1624125570458235 4.713497718146727
Cu 9.121432661096208 6.5075388632556015 1.5339432972196123
Cu 5.97994946911345 3.2036349964354893 3.1647778537897615
Cu 7.634971984363981 5.566186215094895 9.471931097537205
Cu 8.236980125935426 6.052872789912208 5.515972900246122
Cu 4.021274990537566 4.83824558633803 11.387014135615386
Cu 6.094710300644441 3.9336681065995087 10.47227447149816
Cu 8.854560345405508 8.550614479300219 5.882521537154352
Cu 7.8023985319706055 3.950660861116755 6.798689062953437
Cu 7.318617678014226 1.6587299706852117 7.217862281896226
Cu 6.124157153429531 5.713095146072071 7.250470384516972
Cu 3.5235474909534767 9.034365921914972 9.101766700249865
Cu 5.289387840652385 7.754734830741386 3.6185638758189187
Cu 3.7664527511911494 6.975092054475745 7.310984498863209
Cu 5.20990424237051 8.681232891063067 10.968213444118165
Cu 5.7651922471260395 3.3222572495465963 8.092736368069945
Cu 2.061716092056463 5.998510762580724 11.9161118913866
Cu 3.5057714865185217 6.983304509264954 10.304673665360346
Cu 5.9381222653251955 5.209757649166346 4.8695002300916075
Cu 10.297755637400757 6.833314312852961 6.79384160951508
Cu 8.009287313206796 7.180915842223706 7.719371435622822
