50
Energy = -149.84168535 eV
Cu 10.302507702657444 4.525249409545753 7.40855327436794
Cu 10.734965794230687 6.974376418299309 6.852794195945053
Cu 9.276950682785179 5.986536761247922 9.028421550744277
Cu 10.433967252415993 4.879667912791482 5.044547571220633
Cu 8.428381320681973 3.6304377262307095 5.768464947604654
Cu 8.001555672852042 4.092578640285864 8.106944001999354
Cu 7.215372909311943 5.154395548367767 10.138558172207233
Cu 8.652987562649521 6.066117729746095 6.3380542787839
Cu 6.272421161294606 2.7483093364826257 9.362349628236547
Cu 7.294033796359883 8.040261287910349 10.006440205165818
Cu 6.25885355346571 2.807518453250628 6.776246872203456
Cu 9.250188087624403 8.27143503134906 8.426139884649539
Cu 8.200737827070903 5.231590970131643 3.911054909130902
Cu 9.852234126645014 7.08364574761347 4.368192997996502
Cu 6.306560014821748 3.5184870568251974 4.472889224897197
Cu 7.031426918238115 6.721413139803562 8.119100617545898
Cu 5.636953350361037 4.689109522705265 8.252676612907566
Cu 4.089546169132703 4.308299045445815 9.91982038277614
Cu 5.255555563669377 6.548908568661528 10.018659430425796
Cu 6.375892517992567 5.431854062213264 6.029171973483995
Cu 8.802402177880863 8.531713775880851 6.0754691670342265
Cu 4.1558288442797595 2.6094072882848143 7.929921818426377
Cu 7.503167434196433 6.518944361307856 1.9253193279373755
Cu 7.251595399666477 9.437356241258785 7.757214732810256
Cu 5.161434375418958 8.520585618307104 8.597639667555738
Cu 4.083402765123169 6.429828264972806 7.829744997690703
Cu 4.200186337951818 4.41719370088302 6.232809365841103
Cu 2.5293027847974536 4.425470041752275 8.01643880060473
Cu 7.597594712401787 7.795545780294264 4.0886320630769815
Cu 4.099182450328977 2.2962564511829364 5.206792172776291
Cu 5.093284844585699 10.156864578147754 6.730125126120889
Cu 4.878618081032555 2.2789219874802873 2.9189885774989044
Cu 6.4447128252081 4.217834716203113 2.153995608855349
Cu 6.049849512692727 7.878099116935994 6.189400702422891
Cu 6.89623028497721 9.865506220014899 5.132228924663689
Cu 4.086450634220407 6.602253043935824 5.225362483549176
Cu 5.901231493203985 6.161851563135819 3.7133077493739246
Cu 1.9980279966271761 3.71200534675857 5.603965506568506
Cu 3.386625310852822 8.452672902675568 6.738975103403572
Cu 4.165892011254413 4.560582063529605 3.6058659330032796
Cu 2.0256825188211836 6.153671640566393 6.418652351157804
Cu 2.410769172213406 3.128093110460438 3.1577241074265596
Cu 5.753903454821222 8.260626488696122 2.5106965856533505
Cu 4.5507867919267735 8.977863627722462 4.53903569795214
Cu 4.2068798879610085 3.741747001650464 1.192974252223959
Cu 5.031087921304656 6.080002306285782 1.3662541424471861
Cu 1.8968354949703519 5.600315387390828 4.033463910482732
Cu 3.5348429870472216 7.25583844852588 2.88634267594328
Cu 2.116010339360691 7.992460239643592 4.690776178503362
Cu 2.568435468696589 5.3443053708921235 1.7504168993545912
