52
Energy = -156.85331644 eV
Cu 1.7213548767601494 5.475140556238466 7.1772206812118196
Cu 5.586275664360779 4.5964507139583075 6.495370404776709
Cu 0.5632777721382599 7.405431046453288 2.939843686063985
Cu 5.475796407769906 8.126565491576748 1.6899487344951925
Cu 4.405394444115207 5.083570686580025 4.380947099200829
Cu 2.6289341252333616 1.7313046957896048 3.149256855189338
Cu 4.85177480413535 0.5907726142768308 3.3955103229364387
Cu 5.953647779804605 6.846198586085386 7.733456192098622
Cu 8.330897516548244 6.378352216811689 4.253300469795375
Cu 4.096455880086958 6.121299534898385 2.0459465936034125
Cu 6.950367358569664 4.097144638687178 4.427300948418831
Cu 6.70772002515762 2.1574327231478083 2.53295619644285
Cu 3.676600429477979 6.62821022445984 6.191693249089323
Cu 7.9349040663939405 7.275464161932215 1.804604963001496
Cu 6.752720263584653 1.5048513985307173 4.845883836916285
Cu 6.1591831341618155 5.90674874135633 0.5437075822669153
Cu 1.8687805292935016 6.051659673176418 1.1468952341398926
Cu 2.8076425771628135 8.173017041460936 2.1436218247874628
Cu 4.377284551385492 7.759352589102519 3.9798214993794723
Cu 3.007539860440241 1.6081231490728558 7.897292216051784
Cu 0.5323435033269367 6.08090685050286 5.163012569838043
Cu 3.9216951618874223 7.049329802705868 9.125944252207569
Cu 2.28591888525261 3.7547804266979106 8.819968400815702
Cu 5.066436190299379 0.4934482774778709 8.465155353716202
Cu 3.3387695137888547 3.7904344834085424 6.522461508191162
Cu 7.609059834184312 3.05367941203296 6.697232081774989
Cu 6.863188248090439 2.1648335433359 8.86022769667565
Cu 6.282917183394655 6.200857667495197 3.031727424268306
Cu 4.606169944211079 2.7073149523633044 4.434977760490246
Cu 2.37835884625829 6.102573630475627 3.7299895423587417
Cu 7.0783231659278 0.5347874531130944 7.02949189061691
Cu 6.842183467513281 8.434898267493127 3.861397111446287
Cu 6.095759999752341 6.605005782506177 5.347208543395083
Cu 7.765234110044378 4.585229749065776 2.026763233106616
Cu 2.7545084169547693 1.4960089734973714 5.517934503944218
Cu 4.376977793518698 2.1355545769866047 1.4642944102352857
Cu 4.047896264806973 4.494057290229571 0.2316420820136164
Cu 2.8141442668108723 3.998777916443104 2.3626991998192763
Cu 5.285247844697959 8.686806312897058 6.085893623832211
Cu 7.749196925974411 8.001947063366426 6.228091473803662
Cu 2.0732155038193993 8.156862744915678 4.843892328095517
Cu 4.078319567154044 5.382001571321212 8.401097051188463
Cu 1.1165830111805652 2.9111610448229275 6.828009677974743
Cu 4.609470275506868 3.0644469367705667 9.125944252207569
Cu 0.48068371679828265 4.892360682568048 2.8869915955248238
Cu 4.8183882160750855 0.14414905791632057 5.860168139341165
Cu 5.362357318247482 4.080225520901278 2.367020872202526
Cu 5.283035299705051 2.2286452838278246 6.856200436232025
Cu 7.889200831861138 5.495938491912666 6.5955409044382405
Cu 6.319127481282233 3.372786677415806 0.3199368568244225
Cu 6.53716521333074 4.589317386784938 8.662895066029774
Cu 1.8074371821512532 3.719646935541494 4.597022891369696
