5
Energy = -9.84240884 eV
Cu 6.104132999999896 8.170393999999877 6.499999999999937
Cu 8.154918000000045 6.958749999999955 6.499999999999937
Cu 4.0745419999999175 6.9790619999999075 6.499999999999937
Cu 6.077715999999924 5.785683999999853 6.499999999999937
Cu 8.08869100000003 4.6061099999999735 6.499999999999937
