52
Energy = -156.80859528 eV
Cu 8.159100174833872 9.25372539407766 8.965398209028752
Cu 9.588324378963103 8.515820379685234 7.07399559689696
Cu 6.047222430134086 10.493778017239856 8.621172590620317
Cu 6.723233126003504 9.882042718219934 10.849811306578893
Cu 6.650495932948739 10.269757557762262 4.373467105532433
Cu 5.443199986233368 11.089111538727595 6.3152756121851485
Cu 9.727889249442349 6.001926504259305 6.51896196662342
Cu 10.74762421096805 7.658074201103482 5.071780367815542
Cu 7.519487098491724 9.860327540371298 6.675854498830161
Cu 8.800225828672069 9.072373416603343 4.698829678591908
Cu 8.337087503221996 6.81815699360578 8.428103535384105
Cu 8.853428803793836 6.508825640316153 4.087588131435031
Cu 10.940281395497387 5.295856830977256 4.53426668585466
Cu 6.041494875728795 8.008291902536923 8.015990696427323
Cu 9.954043381222174 3.545209996974217 5.960020543588783
Cu 7.630911966756098 7.382412063999523 6.100374412310625
Cu 7.009025695683154 7.986004797078549 3.414645908876139
Cu 4.960307544407569 9.218369229106154 2.9277858580767337
Cu 4.768435398627426 8.722028175532692 9.933704147587159
Cu 6.9695047137765425 7.532944871480363 10.380472367720888
Cu 4.042944914138687 9.542991042431073 7.529523712678363
Cu 3.7032378185655115 9.993818848403162 4.96546853670342
Cu 8.53461347473765 4.36101454084543 7.919558904935135
Cu 9.067591644640663 4.060110907710254 3.531257526854219
Cu 5.469600813156233 8.521612236461674 5.624317732489655
Cu 7.738996782572427 4.511020486642383 5.555796480289167
Cu 2.4832542157686883 8.172423360472093 6.221378730913008
Cu 7.69735254589106 2.709414387159413 9.54086055902706
Cu 6.32912262624645 5.640744670617381 7.386330949439313
Cu 3.6495261062471385 7.628095596090314 4.101137060082734
Cu 7.282389406740101 5.133159921497439 9.856986362600127
Cu 8.501649535494087 2.023889118796111 4.723509468763489
Cu 7.186913955699656 5.417346954498519 2.678520327928906
Cu 6.042219061519566 6.18203527845017 4.70167985796757
Cu 5.0782039323926496 6.166836323613619 9.687753962139315
Cu 5.265476348706077 4.103087606412281 5.739627255675651
Cu 3.48133604957712 7.328754692681945 8.384687500583485
Cu 4.104443383166875 6.308905069538205 6.194763615611191
Cu 5.146963188234779 6.724139108349535 2.365181137725149
Cu 8.277010565341971 2.063487732059331 7.136884068742298
Cu 6.173497330147456 3.0856396047477963 7.779146406788727
Cu 1.8687598617689176 6.16253832012765 4.872983383486149
Cu 6.6835691091987695 3.202774331444023 3.617363018081326
Cu 4.045919799230977 4.55793579109306 7.989353789149806
Cu 1.9615997503771658 5.838082544830768 7.273044282507593
Cu 5.345488307669353 3.730778160896172 9.946168659176205
Cu 3.8761425043485738 5.137854342956089 3.8407420401688874
Cu 6.254950732112688 1.8451313901194568 5.623254627597407
Cu 5.138254493805861 4.18638119651425 2.057086112116236
Cu 4.293297852110744 2.6976230262320815 4.070671061226125
Cu 2.7926909150378525 4.051538184341584 5.768127538718903
Cu 4.110370384990521 2.2639868647847434 6.758979317011893
