51
Energy = -153.2339493 eV
Cu 3.7567472838895943 4.607729225009263 3.6229550969203523
Cu 2.128644389666886 5.103398467651552 5.5413074250319845
Cu 2.500229678657377 2.865374121030154 4.837284173201228
Cu 4.345983925058413 6.056397507335756 1.7137548990512195
Cu 4.119296918634306 3.4665086936561162 1.5611817809524993
Cu 2.005749415919039 7.5276346759755075 5.87328600195827
Cu 3.7559945236258985 1.4273571472439812 6.247461389116613
Cu 2.957317273667784 6.994586480149483 3.546210406641456
Cu 4.6194422713772125 2.120077058905826 3.815417982732625
Cu 2.875394115384465 3.48964445131354 7.420833925603223
Cu 3.039677546926537 5.9243675924724455 7.686834480754202
Cu 4.630028163032317 3.8453565782412933 5.770485962528485
Cu 6.719213189641067 6.984362075193545 1.5943469978877336
Cu 3.7309108555423363 9.018500437694534 4.783919304801949
Cu 6.3027891636726485 4.547421563478534 1.7489657097139415
Cu 4.466347532976861 4.580208056840453 9.160625908820508
Cu 7.011032809889249 1.0334806478979897 3.7227504196081442
Cu 1.9863421403938006 7.991278900799942 8.352512563650583
Cu 6.083674962610167 1.6109673413805037 5.81705933785584
Cu 6.152876518035311 2.210467361158575 1.8858606086987855
Cu 2.295708683430346 9.845233108981954 6.592962747165746
Cu 5.166804689749086 2.590615504051968 7.907802310594128
Cu 7.540375431082636 5.893747925772297 5.472789087586971
Cu 6.0158506098740405 9.970456446254854 4.4429338570617505
Cu 4.103131571940972 8.212625023019273 7.157099757074647
Cu 10.064415998480477 5.8459422183000695 6.573813371307205
Cu 8.573959408643594 7.893204713558899 6.403672998730384
Cu 8.099558867778224 5.742454278669987 7.943074943221647
Cu 9.63226484626138 6.794383444881705 4.419947939925096
Cu 9.345599876055012 4.276102327225309 4.79985285131629
Cu 7.093577237986205 9.860598514303854 6.723885637341013
Cu 6.966226917856165 3.837052876585534 9.012267193245563
Cu 6.054328695005679 7.902566197345909 5.699329467712936
Cu 9.280953327303768 3.6049000076752296 7.225641684916284
Cu 6.396627492839115 6.054669613232908 9.778678353571923
Cu 6.823014974482746 7.830004306581753 8.146801503290195
Cu 5.633726071997837 5.8111778443582605 7.376895803862714
Cu 7.506689015381043 7.9082380929014295 3.765709227597099
Cu 4.733819570088316 10.502810775395073 6.532060347878922
Cu 8.135497004412443 5.474331768685654 3.0252099776482626
Cu 4.415748682466961 7.385068067126575 9.330306316378177
Cu 8.470911581113405 2.1113910440399333 5.348123374398287
Cu 5.701544448673494 9.780567156849779 8.734841764682548
Cu 7.628917303282212 1.7818495351677148 7.707092415319864
Cu 8.415205321161713 2.9568427228441805 2.834007794783616
Cu 3.372316676713807 9.895705425191144 8.764044111407143
Cu 6.9707805116635955 3.8202913329184978 6.597885122850029
Cu 6.5977987639175195 3.691757348051603 4.160954393818151
Cu 5.093622265011246 8.246416655468716 2.927910406361265
Cu 4.191646450363211 6.348890119857897 5.492463275707228
Cu 5.80885275625923 6.04215495115103 3.716055317591977
