50
Energy = -149.77136507 eV
Cu 6.944748277780878 3.4511860031174266 8.720007797117882
Cu 1.7909768268758208 3.385401086289642 0.18203121681455364
Cu 4.471098477281072 3.1428851177085892 0.4528632192134261
Cu 6.293214736747265 1.2813940076179324 0.6871819886464776
Cu 8.598581857772643 2.264475979133371 1.2824007772811605
Cu 5.795494136716981 5.382537556900914 0.710564283540931
Cu 8.20890995458033 4.98665299614381 1.419266564026884
Cu 2.7421852482081555 1.2104510735495828 1.1206526316443193
Cu 3.258144347963244 5.415576125568759 0.9879322164795622
Cu 4.712117574240008 7.61699151766263 0.7051841798198472
Cu 6.638876304907686 3.2786680784793036 1.9836511340141703
Cu 2.6006793912922017 3.2070771447672644 2.3230401216077095
Cu 6.963736111686947 7.221639788320791 1.9604359014217922
Cu 7.134252875067057 1.186996460293111 3.1595450338816624
Cu 0.6035405683068779 2.125281948108421 2.71263973137049
Cu 4.674409975371722 4.2313029669572355 2.718440852776971
Cu 0.8421127491014986 4.826245332852518 2.019498942999244
Cu 2.697329281769961 7.636687691958058 2.3921370849325463
Cu 4.727891753145667 1.714613007808363 2.555557167832303
Cu 8.441716342985591 3.264783907547308 3.622683559731643
Cu 4.83389677937039 6.570232813490506 2.7936953080092195
Cu 7.019955583536999 5.327580480071008 3.546963851551969
Cu 2.7346548290520207 0.9544283886986852 3.6855138711870934
Cu 4.893864104989454 8.867787425686986 2.9727427435282157
Cu 2.685864856782222 5.451888926970776 3.399378890447687
Cu 1.089036772698598 6.756816414855859 4.657206411604631
Cu 1.9032959726808023 3.326034627436228 6.600953896161419
Cu 6.043548475248836 3.1273326807946606 4.428054820923308
Cu 6.122115186714961 7.418197346616619 4.707426962094574
Cu 0.9237936170223234 1.6419868670089077 5.147148814863275
Cu 3.393024633824701 3.1482725249776196 4.569562837015482
Cu 4.993816696212966 5.30983409590963 4.870998855668634
Cu 3.601539788635556 7.518643311652715 4.792404186826954
Cu 0.8162238773660363 4.103071180851736 4.4577956801338
Cu 5.196926514740131 0.913267351766672 4.8439586886427
Cu 2.7215037039859262 5.410305154173503 5.777260429749856
Cu 3.267594242079202 1.303576370348206 6.2850666471264045
Cu 8.598581857772643 3.141282747458315 6.575141529884783
Cu 6.701331664030841 4.348766249509525 6.417437780846737
Cu 1.116862940875377 1.392143046303207 7.6846375314909166
Cu 4.315798832800031 3.790774133077175 6.641012602411332
Cu 2.2127531699578014 7.306858302606499 7.035153946764169
Cu 7.609651335909662 1.8330685337123664 5.568922402384853
Cu 4.716593965085703 6.336683512445288 7.007126441223713
Cu 0.5503288021559486 5.420323197433482 6.8250935719788295
Cu 5.723109585778931 1.9995324728701924 7.1125381783208015
Cu 0.893306145098129 3.6438982340576556 8.707268585750013
Cu 3.278850963002534 2.595831543439101 8.513240620956637
Cu 5.295782622180653 4.239872225896131 8.649447754760237
Cu 2.8304514021846154 5.146277129896978 8.235207466115236
