53
Energy = -159.31296517 eV
Cu 8.371733729278626 8.169614880741157 9.956625440044892
Cu 6.232673452792201 6.87606145493322 9.824176893608152
Cu 8.368527023963319 5.721374363909959 10.107198115193517
Cu 8.404043827039388 3.323391998483518 10.440755011652247
Cu 4.050891146376244 5.574089955548051 9.458463588173784
Cu 6.506440977330329 8.943224536856771 8.592080835406342
Cu 6.235339771333254 4.452543705851771 10.153723150324984
Cu 4.404651726626294 7.735091899449885 8.428317770257548
Cu 8.740562337689418 9.352844452152723 7.75291673335839
Cu 8.07505833872024 6.915137258746672 7.941578982861342
Cu 8.100917797250332 4.154171266776908 8.176878938388723
Cu 6.691324894668622 10.259583069702364 6.5883731443627465
Cu 6.671698023466573 2.2798884685914698 9.13714367545973
Cu 5.902219077864558 5.418033917006591 7.82085117026132
Cu 2.151323184429307 6.783322738144997 8.20952637701081
Cu 4.509783909649225 10.007241285424678 7.62864567340802
Cu 2.524633904083096 4.389972460146329 7.913186536879958
Cu 3.0526610246552837 8.364800871252795 6.4427425370533875
Cu 6.044357698391298 7.577982603679182 6.397136360902025
Cu 8.542620636291783 8.056522591677618 5.683350040523342
Cu 9.9327839675456 5.988185197980558 5.770861288829112
Cu 4.422472747043689 3.1980070012184982 9.059010134699124
Cu 8.833193256305712 10.462260127853193 5.550726944346654
Cu 3.8108757184810336 6.0611608592460104 6.675245946672324
Cu 9.262037175915484 3.5928592643467567 6.0468619458285655
Cu 5.100953020306029 1.1014617225644159 7.691290917203196
Cu 2.665779176748895 8.99268236891807 4.117915582584914
Cu 9.077795860835689 9.371621958242727 3.4277377146060117
Cu 7.651286013547372 5.461857126514612 6.076483865357858
Cu 7.591196784415482 2.0277434960589877 6.9648310718495425
Cu 6.829848941841496 9.427478849372015 4.323143153261009
Cu 9.562449270793403 7.05457875980067 3.598837488188291
Cu 5.264441252020776 3.267670781393055 6.673952560377633
Cu 4.643680198650644 9.854672496404476 5.23151932339959
Cu 4.519024223030645 7.412750637565281 4.491965449724719
Cu 7.006310546578953 6.87574422660493 4.069411530523229
Cu 2.283399178330647 6.494256295106597 4.792154222451799
Cu 8.69426092155962 4.8346285289769115 3.8999125497836635
Cu 2.765746997462526 2.035974094940983 7.785657867687312
Cu 9.505911344464236 8.094252411483899 1.404872330870063
Cu 5.4403932819330265 5.186815520264221 5.158102519370951
Cu 3.082692447573538 4.044358036931311 5.469515761414443
Cu 5.993211874072915 1.1705391734608885 5.355417820543129
Cu 7.154380700998077 3.225620181358147 4.8644457852131175
Cu 3.106732702541122 7.315975574617169 2.4538226107289596
Cu 7.193765267238193 8.527730125452717 2.056193522974108
Cu 4.873660298807262 9.119094269907766 2.804280914902853
Cu 7.961954176519448 6.199766875990231 1.8927494739334951
Cu 3.648852287756229 1.6208074498176888 5.65366410409185
Cu 3.8624412842318563 5.143625657963041 3.2888959213594178
Cu 6.388482010037343 4.60978540737471 2.9223896081761604
Cu 5.468925653825935 6.758438809677582 2.1300751175057346
Cu 4.860972943792061 2.999634935722629 4.0424317507092224
