53
Energy = -158.94198857 eV
Cu 6.322949065798468 0.5643114724634041 5.939266403902112
Cu 4.235569414189382 0.8960615606506149 4.7795107160694075
Cu 4.256868881827526 0.7026573282388082 7.208610851147206
Cu 6.270673317637311 2.318127032371756 4.054295096040815
Cu 7.747977903547355 2.4319523751590824 6.130176507070485
Cu 6.292507518033091 1.9203597988342158 8.100364484607358
Cu 7.990486450009186 3.7761138343829903 8.072130006220657
Cu 5.079530212753839 2.8351873646651113 6.179713788989217
Cu 9.174676982173763 4.518267225357378 5.846431995840429
Cu 7.441346788962277 2.9692046884858003 2.011759928104444
Cu 8.73672295064112 2.8338038539258608 4.030924006793205
Cu 3.7232189367194217 3.0586938644158885 3.9885904311210507
Cu 2.6974984713259724 2.429635027098842 6.1904055912889095
Cu 9.878094084436611 5.148726341822161 8.383235593070763
Cu 7.046957821147354 5.272065388223827 1.257286192410039
Cu 7.473056672902167 4.893336719615336 3.64040012375268
Cu 8.915364960370976 6.738809788625572 4.682791935664913
Cu 3.859711631834291 2.7012957632713763 8.433295164301226
Cu 10.483579311997273 6.5279313694710925 6.534551532245349
Cu 6.683191165345715 4.656657943150363 6.01832583189661
Cu 5.692100734734695 4.37237838785267 8.412710227037774
Cu 5.300774107641483 4.002074013733655 2.4680010581291376
Cu 7.679622900720198 5.821173274217589 9.405528708985136
Cu 8.000075051027899 6.454122805301758 7.0344615167817
Cu 3.125305837742396 5.231469841970749 2.874065396665696
Cu 2.071628449488437 4.536517194321903 5.01820259371608
Cu 3.5532160598490665 4.826751983232009 9.525780057926177
Cu 4.627809214386777 5.2226667737548285 4.828591042761986
Cu 9.458549378419173 7.526307464342226 8.664334514199401
Cu 5.31363246779711 6.401206182305206 2.5839992387713244
Cu 6.455735586882639 6.94459075985535 4.871430041360449
Cu 3.479144474106433 4.698997159766836 7.065162701243699
Cu 5.310853476800077 6.557967314505001 9.510227598702262
Cu 7.073261659613026 8.196180913447419 9.080281135137128
Cu 9.2987151817629 8.61874496343856 6.303477757469464
Cu 5.354729085211652 6.545350478632215 7.018552441053814
Cu 7.586541473629895 7.233803424831823 2.6685980332841335
Cu 1.2787080939539535 6.501262298208216 3.841687495663479
Cu 6.795379557525036 8.711572071795379 6.673950246920699
Cu 3.146307354655236 6.8543942738768155 8.257494040529648
Cu 3.451337813237053 7.548442151668146 3.611354426041717
Cu 2.7087348983899404 6.774769258783371 5.832552930942971
Cu 7.828853358046262 9.046999028700931 4.3844812183820805
Cu 4.5261265049120345 8.546312375302263 5.562729115128416
Cu 8.732846664242254 9.817141288304704 8.319712068953205
Cu 4.7861794178825585 8.70700384230159 8.307850713499285
Cu 5.6053658973709135 8.725691257664373 3.3448882150410557
Cu 2.6781689514834714 8.918597194709072 7.072213663009186
Cu 5.94345824469508 10.55060732106442 4.946305359670174
Cu 6.438412346709579 10.570329829903653 8.273470502766155
Cu 8.036506881711972 10.801303148813428 6.192192612948511
Cu 4.431201965911236 10.635080794477831 6.861094081177329
Cu 6.152733538430297 12.335824373400662 6.619075328362587
