50
Energy = -149.85528644 eV
Cu 5.052498415468579 6.419142078526536 10.796041793787385
Cu 5.000511704761005 4.6946061474631735 9.136261193038193
Cu 7.1612678367512554 4.1039024475173775 8.132966192344755
Cu 5.104284337062704 2.7431027921380178 7.5295026026966685
Cu 3.932274219366063 8.374741045898928 10.103518743672256
Cu 6.427211451240717 8.462876810302602 9.958412892966559
Cu 5.22621443234551 0.8401008637860129 5.915604390905904
Cu 7.088964995796027 6.105028113810583 9.581112448407014
Cu 5.126997830281144 7.337846600401046 8.146576848680466
Cu 3.1577459982059377 2.2633424744134185 6.031437987169494
Cu 7.285176125771324 2.2160735245063257 6.4287578305653374
Cu 4.943699729780959 10.034169348470675 8.715381474057377
Cu 3.134576409523997 6.287222808619136 9.079002757124876
Cu 8.560419090210727 7.95611490803145 8.808451814923302
Cu 3.067919520070353 4.204681959685891 7.572366334748332
Cu 9.264318462237584 3.6106637383006714 7.01814202942076
Cu 5.214912404005575 5.105756901649289 6.673426520846123
Cu 5.355979137753166 3.0748450211582226 5.032739137875666
Cu 9.183495718543657 5.60478275852936 8.390745374004835
Cu 2.955629790426846 8.625882016071804 7.896893238638767
Cu 3.3000470253314775 0.3538525880932978 4.491643329166296
Cu 7.4221787930187775 2.3029019467112097 3.929933201217552
Cu 6.868188648119429 9.101870743460106 7.523604357313378
Cu 5.366435426961175 1.066281225132713 3.436567808106688
Cu 7.297314831654273 6.5391966901373575 7.106330548204137
Cu 9.399830968059797 3.6692840211923756 4.590034986302617
Cu 8.85244378200471 8.204766739518087 6.316689233820323
Cu 3.1176135420411732 6.547806450871434 6.616444251438603
Cu 7.369767216536625 4.491575252980968 5.5638013193664815
Cu 3.425773000183182 2.594760581991861 3.5248956252137447
Cu 7.732752506410839 4.540938032527623 2.9656661253011576
Cu 9.596401881326898 5.805611010844997 5.945272838773692
Cu 4.703465711563107 9.488664317344105 6.384211354580721
Cu 5.607647180567936 3.309965991240166 2.4916838734893485
Cu 3.265766060734427 4.536725642739023 5.091186856371898
Cu 2.5477827920008247 8.699130468088372 5.473842963891572
Cu 5.4374702893026114 7.258868816439435 5.576687901176125
Cu 5.539836343771339 5.3647078591977975 4.061748686412267
Cu 6.849670898490002 9.075847907774762 5.046823656775134
Cu 9.766782624340804 5.828301374109227 3.4577279386213284
Cu 7.816489576781972 6.776417038589612 4.539488350010571
Cu 3.310850856685239 6.765404192990527 4.1528324955180445
Cu 4.489639928738703 9.003412944688712 3.9657323121476566
Cu 3.6787437836496055 4.879461066745603 2.581833595922223
Cu 5.895113752534738 5.589662769545176 1.5895900564136491
Cu 4.151105391381616 7.335342503498149 1.9383888572780743
Cu 8.11592668606861 6.640972071127252 1.8441773591307191
Cu 6.280115582956091 7.7462084162027685 2.9987815911781386
Cu 2.3174866963390817 8.611399468019913 3.0127297486389226
Cu 6.2605523167160495 7.73762913193109 0.5988737051062997
