5
Energy = -9.55020565 eV
Cu 8.147000040414925 5.182404738725716 6.345806753740451
Cu 8.147000040414925 7.509208768755193 6.345806753740451
Cu 5.822788510403753 7.5078655003899435 6.345806753740451
Cu 3.7894566678958257 6.345806753740451 6.345806753740451
Cu 5.822788510403753 5.183748007090961 6.345806753740451
