51
Energy = -153.79167094 eV
Cu 3.0717132033775973 5.017303298670727 2.191783824407964
Cu 4.491115427560838 6.7311552173601745 1.142699715321242
Cu 5.547976101195527 4.663342679034542 1.978673592336517
Cu 2.65566577534576 7.428801540412036 2.7046301645805424
Cu 2.4166401222462093 5.449089365299361 4.5095841641681265
Cu 4.343469269621833 3.9001746050762103 3.9932987024102635
Cu 5.025462659788216 8.632322544226746 2.576940936261784
Cu 4.592974587161401 6.36663553131575 3.6404981475098586
Cu 1.447418530266473 7.634675101517727 4.8347885860492665
Cu 6.708388043807708 6.903000838112639 2.249309217714359
Cu 3.3826615754645935 9.120499925122868 4.354207294915688
Cu 6.797269896283862 2.8606774784639715 3.423827762247759
Cu 5.644662937892028 2.7768054582191946 5.618425647794183
Cu 8.042869258670386 1.976210502007417 5.434799826350024
Cu 5.22453316187766 5.330992069549415 5.990238896199257
Cu 7.983260110830368 4.781883096872366 2.11808625292809
Cu 2.271273887578334 9.176687587290127 6.538143689724285
Cu 3.2558026273929497 3.9966763960902 6.325790124104796
Cu 5.945344355868487 7.947348925885318 4.977609452407905
Cu 5.440391143483636 10.331770870327096 4.216827753788584
Cu 6.696110581849479 5.142465179418388 4.157699155084226
Cu 7.500573445823665 8.943269995950654 3.4021166789059314
Cu 1.773124176885835 6.120780808631213 6.819213076533308
Cu 8.589895492357066 6.617453579896845 3.8070659778009555
Cu 3.6775809418110503 7.248261552254611 5.919407452871619
Cu 8.896982522643093 4.043457755338456 4.259096496886344
Cu 4.833249937650575 9.474497814015367 6.560601571189061
Cu 7.453964051973866 6.44110912796333 6.193098277000707
Cu 3.3110121829575485 7.899360939277397 8.299320420794372
Cu 7.377384083679917 10.23144816957652 5.510405273267274
Cu 8.867845881135283 8.312449251680468 5.522290178219322
Cu 3.6822666694703297 5.497904135505107 8.239348174061682
Cu 7.613940562392258 4.041901975574553 6.528347970412283
Cu 5.332861343974879 3.752411925711772 7.862554408967504
Cu 5.561740963213874 7.118536677497423 7.6221811067993555
Cu 9.745191792498145 5.804137537194817 5.864178050500885
Cu 6.735435284894905 1.7747051250691481 7.547231340037005
Cu 5.340769587600048 9.136404033305645 8.977525485331853
Cu 10.033245736870725 3.335539258731165 6.270800418626265
Cu 7.237548905420334 8.832377532455796 7.389313247297885
Cu 9.101669923094645 7.277739031260232 7.829347660450552
Cu 4.94313872775789 6.83767340157989 9.981022510884483
Cu 4.823754945828282 4.43008583309197 10.143181808271255
Cu 7.33132002382952 5.43031454790462 8.533656391073038
Cu 8.826567681372163 2.678139473723988 8.272401245072212
Cu 7.237591024560184 7.692846657376054 9.58664812750619
Cu 6.811277059579905 3.130094884654967 9.669232781623439
Cu 9.837788994877533 4.935148427787136 8.161680460857191
Cu 9.194487004655116 6.4119513901777365 10.077336814404779
Cu 6.922522367807168 5.491666741357481 10.890509700323884
Cu 8.919798063381144 4.060320699848298 10.273005016446346
