54
Energy = -163.35043558 eV
Cu 8.424613940161942 8.67056994450482 1.8765371882772544
Cu 6.04489210252804 8.690329825912961 1.5175054495596727
Cu 6.778462630119675 9.868777961412292 3.59829922323883
Cu 8.994799643576513 8.773841939032167 4.233404446217182
Cu 7.3018369104544085 6.444355481218837 1.281730496991596
Cu 7.745488834768802 10.335739187235996 5.8051832676189035
Cu 9.266278680683913 6.574843969384441 2.9015541008989216
Cu 4.474134167318104 8.812696243599094 3.43939527133493
Cu 5.347442234390139 9.618786761345063 5.68448888275867
Cu 6.935554988147576 7.449821783478027 3.4367869802173354
Cu 4.857856141642156 6.669916034026323 2.107488942216868
Cu 9.53172156390401 8.856285824087065 6.636704343702643
Cu 7.3525871305037 7.86161470707431 5.910939022984252
Cu 8.102615189154509 5.636848595972572 4.739910753192684
Cu 10.062426584675418 6.863880583727409 5.3692694339157185
Cu 7.820449734478881 4.390286341586833 2.691594653509996
Cu 6.629851841827329 9.442333313677603 7.789435478114532
Cu 3.1081720412696425 8.429671367734919 5.618618693892668
Cu 4.064392468917584 9.166372708939033 7.80516722668267
Cu 5.755624096240815 4.5296827907202335 1.3709888117444589
Cu 3.066952841324621 6.642540212081851 3.776251663279768
Cu 5.124048960364242 7.193640833545465 5.0248315523597125
Cu 8.710251215194505 8.651899412800269 8.849204547679012
Cu 3.6944481114652348 4.470451186186023 2.7384873881937564
Cu 5.78746717352476 5.116467326033261 3.8440650934223095
Cu 10.196094759329332 6.809375595263912 7.942323802818586
Cu 6.289514023615781 5.414625644682675 6.261330571227987
Cu 6.578834300580802 7.730575136003781 9.649156724005183
Cu 8.695556145489324 6.645914616980444 10.191510998981704
Cu 2.936315704796677 6.923930705605312 7.643482023486468
Cu 5.446690832478801 7.292755910118617 7.5315561499154295
Cu 5.696362431322452 2.7971154556686426 3.075445182310561
Cu 3.8654688072896333 5.167690836589149 5.664457494131107
Cu 7.831751099848267 6.423991722880665 7.888024220231474
Cu 7.1202400305491915 3.2940095869269617 5.072584435048809
Cu 9.359478284129061 4.868153723121183 6.606632438219595
Cu 7.44960695193525 3.7456942977256955 7.615553558787611
Cu 4.363746152996917 6.7642215376683295 9.727662579229737
Cu 6.648682884122769 5.11197561874944 9.644508064127093
Cu 3.3459411587108923 2.303303841957578 3.7033950747406963
Cu 1.9828110844449256 4.224167604065875 4.533888679348987
Cu 5.161852315572319 3.2334870641865487 6.585614974648205
Cu 1.6212512788402418 6.428551570664401 5.682188918018138
Cu 4.58832179809789 5.014092844117266 8.097617622424838
Cu 5.188804884470959 1.4253114774757216 5.032433710144938
Cu 9.162430812507763 4.613177364493733 9.025808783834345
Cu 6.806669946499172 1.5159298028971941 6.9226395797548514
Cu 4.466143493513922 4.2667054005199505 10.412975792631528
Cu 2.8782926955412207 2.458298402905968 6.0666560505627825
Cu 2.4707662396151235 5.196763653213576 9.382030026139594
Cu 2.0052416228149204 4.507073717708948 7.100337924011893
Cu 5.735830187047565 2.705001520373276 8.979635695583147
Cu 4.439467661080559 1.0860866497249817 7.452878111670609
Cu 3.2806370615013476 2.9558277171523386 8.533130757388486
