55
Energy = -163.68782383 eV
Cu 6.65949344790451 8.266260018817308 3.935307766656175
Cu 7.808638878719619 7.208886998513957 5.933118519811292
Cu 6.125578586113911 6.027970924038329 4.696972658670661
Cu 4.560757383629953 4.649931279265094 3.5439294321929835
Cu 5.1906883358274865 8.443198620483306 5.80440604551407
Cu 7.093117451854977 10.086226318789938 5.756184499195773
Cu 9.900177188712691 6.7926384970333675 4.804979046976938
Cu 9.417925772564207 5.485680484596193 6.853171953763448
Cu 11.065537848505976 8.917704192503361 5.292781223927351
Cu 8.852376509358796 9.001437687914446 4.397057358448052
Cu 11.844230797787954 10.956617848092096 6.365291305594428
Cu 13.400506639016767 10.379216090334307 8.247873754030913
Cu 13.253893826918745 8.720682626241643 6.3709622193837765
Cu 6.860755748330208 8.418992032275657 7.757276276783684
Cu 3.760696045125283 6.28590178358257 5.120720590922182
Cu 4.863541899140907 4.2734441058099115 5.934211876772471
Cu 7.085588061411018 4.824966567877027 6.650924164138264
Cu 9.611485022613568 11.165930171199491 5.296452058480258
Cu 7.978987546640129 12.393284300915631 6.745079547026198
Cu 4.432988105723846 9.178323137538769 8.081296025551719
Cu 9.167979005928133 9.409008123620051 6.853373406578533
Cu 11.487923586702294 6.876986710956046 6.666788803643454
Cu 3.2486723463443443 5.261790400540767 7.454920023953624
Cu 2.9987096989541757 7.707728571306549 6.833363339141133
Cu 9.367826763163345 7.496328288732452 8.268392800512686
Cu 5.274021552578056 6.504870525430956 7.2298871334979635
Cu 11.431842123273285 8.99647763795076 7.890498074386318
Cu 7.354728269516607 6.153795643310044 8.695285753724438
Cu 10.375045077743355 12.842292618134143 6.90587570187135
Cu 6.633807079336049 12.613785885775163 9.068191344991035
Cu 11.322640506255153 11.489430018006512 8.693780643758076
Cu 3.264753123164766 7.027808248645905 9.127856254260047
Cu 7.456591497573253 10.612493001575134 8.223647754858327
Cu 9.57207960312933 9.81753414810715 9.311083222229733
Cu 9.72406409876776 5.229706242240116 9.309559345758991
Cu 8.505862875667013 3.523025082769751 8.106939829978543
Cu 5.74852250706526 10.237258401659707 9.89765166504396
Cu 9.080845625535012 12.446788856785691 8.956373088789313
Cu 13.54772764481567 8.031696657999104 8.730043139020669
Cu 9.391592323651619 3.1231775241335638 10.380942085472565
Cu 11.606074110977286 6.751779335159672 9.129923556123442
Cu 5.092828904057297 5.163555826415081 9.273302965676326
Cu 7.896716477635987 11.070518923963725 10.675099967812207
Cu 8.767317178097173 5.249998320446755 11.547678967310969
Cu 7.193371375069614 4.087949051996266 10.062340535910744
Cu 5.463122690092844 7.639869459561981 9.638200810336507
Cu 7.728332683358334 8.459126992093225 10.149543206950474
Cu 11.728958535500766 9.267105841503883 10.290416167332001
Cu 10.35697799772108 11.505500432426397 10.896515505812646
Cu 5.938652191892804 8.634997211418218 11.798359203699537
Cu 3.730381531864946 9.068388122246446 10.506762933921811
Cu 9.900844791202955 7.331942321535188 10.730688089706984
Cu 6.533757661238634 6.157899509421338 11.152444054854492
Cu 9.477659148264584 9.46408812919624 11.788090209404356
Cu 8.10184834073497 7.50704827188765 12.407228112610646
