54
Energy = -161.79296208 eV
Cu 11.24596847142692 7.174374219301472 3.580656453811275
Cu 10.429772602884581 7.878663242202123 5.704890196776193
Cu 11.605244044759921 5.799020051667573 5.659788676754228
Cu 8.798307343373741 7.421660630759352 3.767799480766098
Cu 10.353676765643552 6.237219359335226 7.764398273522834
Cu 8.983728803702947 8.469849085801012 7.517051827771806
Cu 8.601732529210707 9.463382171066506 5.209588502751865
Cu 9.927311270834364 5.212551199268322 4.030153435689127
Cu 8.184216953762506 6.6734919289467065 8.903063492070414
Cu 10.034469674145592 4.023249111085237 6.300400984052202
Cu 7.434752407104199 9.347235258668501 3.0476711754731616
Cu 8.71967152973119 6.109745545480652 6.079003308394121
Cu 7.202246401981296 10.208865895164267 7.110063272250618
Cu 8.552419104815975 4.376915307354475 8.207853965130058
Cu 7.051326691449946 8.851612268075538 9.047049746880042
Cu 6.1159929356585625 9.95315336148955 4.984602676838567
Cu 6.776675640583092 5.945095840856139 4.449964301180749
Cu 6.375136968607434 7.119863033475366 10.58984920100363
Cu 7.966715946465621 5.030831245682189 2.5709879535488915
Cu 7.074829022700234 7.184328496395691 2.053463703194649
Cu 5.791133871751401 6.843564505198338 8.148019372490634
Cu 6.667644390589681 4.957397034870332 6.711424834932612
Cu 5.497349153024436 10.68551205186666 8.786149175698169
Cu 6.976083471990386 7.85176399147603 6.121518997910217
Cu 8.096156724151605 3.8118721132474875 4.738779278924737
Cu 6.479382632298235 4.943364432516615 9.526673793789197
Cu 7.9736198665395595 2.5182329161406716 6.705638099199983
Cu 4.609070742275806 8.506378448132555 9.510340369479156
Cu 6.967067336801885 1.605841151157442 4.538491711983988
Cu 6.135885592974984 3.5386275212089693 3.3154867819725453
Cu 4.867880277644334 9.049808467305775 7.063105456666838
Cu 6.244610678952195 2.906435115516651 8.3726853442181
Cu 5.19300891072529 5.6980019472913845 2.590424137540719
Cu 4.442798090289545 4.6443114020136145 7.487763376735805
Cu 4.722036470706625 6.860271672613983 5.933900495437961
Cu 5.492124737317205 7.937056188483586 3.6980892489403967
Cu 3.8162099256717057 9.247719680856036 4.733392590752991
Cu 4.537678444864063 4.712027124697593 4.855541742540976
Cu 5.53476809836878 2.7497653767273933 6.078778805906682
Cu 4.250352379358809 6.005403965833988 9.979501830413088
Cu 3.268304738950994 6.9629572589882205 8.016275586096487
Cu 4.414497349944906 3.61460484300727 9.873927255214111
Cu 4.49601436896854 1.8693333995839854 4.092268596113885
Cu 3.70146027892095 3.7770590668953643 2.743923200889957
Cu 3.815763805769242 2.36039887750474 7.930261449124652
Cu 3.207764933526901 6.6319217375106305 3.9098025303582373
Cu 1.7324037264701984 8.567973109564633 3.72678375208702
Cu 2.3390708004943264 7.906931354494905 6.022023046971443
Cu 2.434327809366865 4.639166423490165 8.701599807881642
Cu 2.404894137380502 5.458180925853738 6.274280357039467
Cu 2.9693374302417483 3.022958127556959 5.778471593133485
Cu 2.118127628194049 2.1399129823349403 3.666325781427476
Cu 1.8398047603940395 4.488191162248697 4.094385220440786
Cu 0.8252070319694376 6.556726271737952 4.720141168027361
