55
Energy = -165.60210605 eV
Cu 6.7324026043477305 10.260581468116616 3.689599676842296
Cu 9.720182888311031 6.9357030914149815 4.345187676400265
Cu 7.4107752755766105 7.955953472963976 3.6829801791095624
Cu 11.861760725947928 8.271067219802035 5.185576739044281
Cu 7.603507408600927 5.459670798057465 3.853479188169782
Cu 5.508853489534339 6.645240353034994 4.536153085267379
Cu 6.13998844578116 11.436321712820433 5.701425208303771
Cu 8.397336343241662 11.79412923091486 4.660929017198175
Cu 7.680641202035452 3.084367153816011 5.091424293333472
Cu 5.698129339784912 8.867854818030908 5.507335602030749
Cu 11.234279752686687 5.94758155314802 6.1393004572256356
Cu 10.309551443504203 10.490736757564155 5.515810538372795
Cu 8.014753057523766 9.594381456706417 5.676055783678084
Cu 9.937959322623316 8.16413731338572 6.465676157252788
Cu 11.734311611028248 9.772061018613865 7.349973071207854
Cu 9.146939108632022 4.845342980236155 5.58682605502916
Cu 4.212251327102386 8.792049168854346 7.611481678891542
Cu 5.33720456342273 4.6045067068835674 8.181354757522609
Cu 6.289943619427325 4.825544176073872 5.909565995505528
Cu 12.424785322204482 7.485044031627177 7.520126761247457
Cu 6.350437581010264 10.046794850372775 7.614516019228807
Cu 5.572175081623943 6.862949505922256 7.034849595435299
Cu 8.08811172650779 12.011776849594042 7.051340231837334
Cu 7.7194593084292595 6.951071248682627 5.833836632392637
Cu 10.2926089753075 3.799189999397197 7.4904808135975145
Cu 9.31659074589463 10.085162195215538 7.885230667838982
Cu 10.594462350102905 12.03989950599089 7.478386579116222
Cu 5.930956353708987 8.159314699697271 9.305754998301738
Cu 7.917688944956817 8.154845784108733 7.9041182482121535
Cu 8.845167047383281 2.2612028146536747 8.943787888616392
Cu 9.328796297620741 6.114155671788004 7.7268995567711105
Cu 7.791783182237423 3.824237701280219 7.5067104909449425
Cu 6.485217327504069 12.11957355671687 8.95272978707546
Cu 5.467928390172385 5.71657305071526 10.527056775267273
Cu 4.672121307157737 10.360561686567069 9.415514201410081
Cu 10.538972829044642 8.099738113029971 8.957238276862931
Cu 11.444126203358737 5.621589639075952 8.739552369172806
Cu 3.9917265167873293 6.62464308295257 8.839667300278435
Cu 9.357851324144704 4.47402979745659 9.650237594490543
Cu 8.978547375898772 12.121907227687753 9.374579403032689
Cu 10.990340834384345 10.555789093113038 9.589548626638916
Cu 7.1883731540855385 5.987059489182684 8.82243713795731
Cu 7.646906132722664 10.015644897618118 9.73941833585908
Cu 5.0094749296665055 12.222120047015583 10.914928058590514
Cu 4.115690256029217 8.187533209711038 10.777716233061119
Cu 6.990816020914846 3.735849555716926 9.860425571484816
Cu 8.356945024642595 7.737476110844486 10.287399918566358
Cu 10.322629031168207 8.855624122744741 11.282809591552645
Cu 10.290018484538509 6.3890782113845965 10.775067667625795
Cu 7.359176308421311 11.842809802550432 11.331175503044802
Cu 9.690789524724616 11.180654382774668 11.524507908238183
Cu 6.388030926541596 7.628566402582605 11.755303671591927
Cu 7.856221337615272 5.586326180077178 11.287744458277379
Cu 8.053507488477129 9.48144862611652 12.114515824306405
Cu 5.718298969476799 9.970032549174514 11.55175628526391
