51
Energy = -152.62938191 eV
Cu 8.840057936868746 3.421537928127946 4.287951178031321
Cu 11.129971773268123 2.9265176348251103 4.984754540436278
Cu 7.700726800921513 7.584495700472565 2.848976856543098
Cu 7.557313576897417 4.9204642287642075 2.691003294820966
Cu 10.723198093464548 5.185508708434883 4.2230852453829515
Cu 5.830797240151966 3.769902446795056 1.3290844849926338
Cu 10.160054713958559 7.457932900155554 3.5488998302683736
Cu 5.727636983479079 6.25099001836313 1.729830557320975
Cu 6.655404662226013 2.7139881090525937 3.414913694899636
Cu 9.403427594622267 2.0920239305435255 6.422434052802308
Cu 8.522857081743087 6.036352733226707 4.585724990407738
Cu 5.231664690746779 8.488410553718506 2.7027668402701464
Cu 9.744300064872219 4.463653640623434 6.345706481288778
Cu 4.148604010286488 2.5631673210226387 2.8365061850299185
Cu 5.94908563343834 6.723168414436554 4.243190813131638
Cu 10.163975924586506 6.883564758301484 6.126133490692803
Cu 3.5471611945612356 4.700899870398082 1.6878979772160907
Cu 5.106388040507574 4.618799884470299 3.5116372856976668
Cu 7.096958484755828 2.164104990848182 5.779465526249187
Cu 8.66058398541999 8.524699594274535 5.093294925576886
Cu 3.7011063314003247 6.635635446418885 3.148917215405862
Cu 4.826900640203138 2.8995021619085373 5.220435730170796
Cu 6.768865183994615 4.577208214611056 5.379330317167136
Cu 6.393508963156456 9.091554784073724 4.71811333577088
Cu 7.005010245619633 7.027042780956417 6.349811547496336
Cu 2.7844527497604847 4.2799303304237855 4.239894797980853
Cu 5.539159055308593 2.7746949788668895 7.6386084666514975
Cu 4.016226912654474 5.858365160464172 5.607095647221583
Cu 7.829812590989592 3.5671781419955173 7.6749240441740385
Cu 5.543065149465898 5.217533649840314 7.464309314547721
Cu 8.656951014314972 8.331666839323297 7.532982785451383
Cu 6.341573228434787 9.364595780214845 7.150218199525922
Cu 8.532885216301946 5.868067868114848 7.907836470803506
Cu 3.338695565584418 3.6607429427521683 6.909408846627296
Cu 1.8319073102807193 6.680594448239435 4.581836631647009
Cu 3.9073093290845655 8.381269862274207 5.002292462418988
Cu 4.7911265665785825 10.61659330965046 5.560335964937085
Cu 4.71612367013144 7.538564971808274 7.350648558140662
Cu 4.232877920537142 4.07234926598863 9.344892533579372
Cu 1.4451801022158608 5.194923468819109 6.414142615974473
Cu 3.161303122893228 5.807374143668728 8.035529308713276
Cu 6.703674011486308 4.830768783081388 9.461355428407058
Cu 6.7940790030276 7.323857598607588 8.800179232666958
Cu 2.165248530767684 7.673329612997699 6.731340600924213
Cu 4.778066074496609 6.48661250979399 9.822357431023818
Cu 5.021209712209112 8.981872334797801 9.31623832386683
Cu 3.5681440052390854 9.62443338717395 7.342722103583531
Cu 1.690075530723847 4.05467718063915 8.715252757054023
Cu 2.815103893644591 7.98992123654123 9.140576797854362
Cu 2.4881614979729396 5.784380106263106 10.353407305885495
Cu 0.9050430059976695 6.437764832334764 8.511618571274884
