50
Energy = -149.02726244 eV
Cu 1.8324354913158067 6.375971162014646 2.6665344789930763
Cu 4.120316024042625 4.067362490681324 7.084141168429892
Cu 9.034022010095859 2.6519055930174167 5.841120274802189
Cu 9.484929726482049 2.705621965149159 3.315297724909305
Cu 4.8884454794549885 5.637901003806095 9.001223820210528
Cu 2.846924878222271 5.970519078138822 6.1218692044486485
Cu 6.861507380661912 1.7181558403832198 6.714620247644721
Cu 8.11618691161531 8.429487755887319 4.436121327495645
Cu 7.258148283721394 2.1996896022747845 4.261445672013893
Cu 6.012942755331086 3.469895702320944 8.567467561579571
Cu 3.3340964024686035 2.616628743496941 3.4487060299564107
Cu 9.038952389469582 5.006430566808343 6.644257567125857
Cu 2.430590878940641 8.378302748905726 6.098460105437832
Cu 8.114316821793825 6.59925666539257 2.6918645914433723
Cu 5.618174428212101 3.305666794374066 2.8976499536835902
Cu 5.004891893576306 2.303324102527765 5.22630516152193
Cu 4.142542033697229 7.09965522794892 4.329471814771901
Cu 2.3814625657427095 5.261155865612122 8.457057173169765
Cu 10.644091554941717 4.2499496215849994 4.910239124580431
Cu 1.9635245980675333 8.354509150659439 1.2930228504951156
Cu 3.5356279015965595 7.419799143086093 8.051265284966416
Cu 2.054648201107874 8.548805159661892 3.7244924747174015
Cu 0.957356396559334 4.552149726407898 6.489611220577148
Cu 7.216345746576052 5.5576738709701585 8.204301475669343
Cu 7.990153435304069 7.253889115911997 6.6342032800071165
Cu 4.379487887807815 9.486813296096553 7.205360323944994
Cu 8.31640256246435 3.178502526153734 8.111331803919716
Cu 1.9681834340824182 4.532031635686039 4.227900048386262
Cu 3.5957899075859334 4.735107023899154 2.3260088099577914
Cu 3.798056768674005 3.447469088639887 9.48690644692579
Cu 4.006763804484989 7.084786916308474 1.7668193628139603
Cu 4.455749206253585 1.7449632225895508 7.636687046511391
Cu 6.057093146784394 8.532209998122859 5.762509347036887
Cu 5.977870120964397 8.206695949561931 3.192938954567094
Cu 9.557549980596367 6.508489137209292 4.757403780914267
Cu 6.575768517839973 1.2547146906108873 9.022785831802755
Cu 8.228974092806656 4.49168755073303 4.256268903388572
Cu 4.55029807773276 4.693668923098723 4.675571876913875
Cu 5.2800357039935495 6.206787039122734 6.61671787133539
Cu 4.109255550049557 9.579268996283393 4.7692000151757945
Cu 10.039599629940925 5.061426465730804 2.6838650912370277
Cu 0.9132747829629559 6.676444370735193 4.937831894971578
Cu 1.983419949564749 2.899041056320512 8.024373486600485
Cu 6.041026702374036 7.854988571528614 8.206241191926319
Cu 3.909588284737417 9.375449852545108 2.411541055279838
Cu 6.653827073201774 4.121209952291057 6.111943743144406
Cu 5.844553722305106 5.6949742583210545 2.526316853399996
Cu 2.6312314643283474 2.6982027283575105 5.738572103950657
Cu 6.745575902443923 6.347704761457536 4.7163006027199845
Cu 7.761058039297764 4.116723793849743 1.980922466799941
