52
Energy = -156.11069861 eV
Cu 4.674537188593214 9.359014291420063 3.1196009456997063
Cu 6.405238115452563 8.072066232666113 2.0535691856455793
Cu 8.1799761377487 6.844226054851678 1.0382900370197437
Cu 4.0263291723178325 6.902462155972269 2.4988865025680114
Cu 2.566992866299086 5.776714927809324 4.218097700501901
Cu 6.121272155382527 5.578985961608205 1.898599238114613
Cu 8.796036525226217 8.358472327997886 2.941011526620046
Cu 1.5123148493739567 7.293835262960507 5.8669547608534565
Cu 3.444236884294235 8.065090138417327 4.688848301717362
Cu 10.094164795378365 6.2065182002513755 2.388941620360823
Cu 4.711018448057157 4.727463189495688 3.740542693303583
Cu 5.67869507578772 7.035675845816917 4.166873992170229
Cu 6.8562260007715725 9.381397326330147 4.14658768098251
Cu 7.879463635128472 6.121219829479517 3.4462952161186107
Cu 8.449881060174251 4.487935160755636 1.6875520980514538
Cu 4.078551040358333 6.0581515120503315 6.189701414676643
Cu 3.303652282362778 8.495940365467035 7.093121006330698
Cu 3.2697610804112243 3.703672724210659 5.475381355620222
Cu 1.254675738863482 4.925757348130043 6.183028308351286
Cu 9.978046719002228 6.945549848051634 4.664886376050113
Cu 6.990439118605826 3.669078770421792 3.420542496931031
Cu 4.756982067073084 10.069111248402695 5.505075468105045
Cu 9.153921351376622 9.396091232539773 5.169336962994748
Cu 1.4746008237205377 2.487132944314543 6.516424817605565
Cu 5.504111381073258 2.7598085757667157 5.187579964444841
Cu 7.748059692946463 7.411052557410571 5.542192516159445
Cu 2.6490466628335594 4.010997151200707 7.920600654920979
Cu 9.38218716123042 4.359917376958418 4.070232362477428
Cu 6.560517696660614 5.067859101801157 5.413280056348856
Cu 5.578018147265728 8.020717343479758 6.379945299533609
Cu 3.9059715490628966 1.9529576721117368 7.111513836425824
Cu 2.2197303428641035 6.4189006055907605 8.005783414101636
Cu 9.281349921677469 10.113226725745996 7.495991695866003
Cu 7.976470538561915 3.0631562516560904 5.651600572196186
Cu 5.155185406256204 4.085856969060078 7.291091578649304
Cu 5.402818330297205 9.44597342808631 8.209378476896456
Cu 9.764002180479467 7.747753400030354 6.978960268459904
Cu 3.250561176027865 5.275428376475174 9.886341902246826
Cu 6.4116042149696595 1.8992839630148102 7.282909546362394
Cu 8.946474903256588 5.375899355406335 6.308126874677531
Cu 7.091472779435409 10.122051564825675 6.443050294103263
Cu 6.586355443638705 6.157971124044884 7.5592130802293935
Cu 4.1375696908404525 2.9338515923942228 9.43794451220928
Cu 7.674291859125525 3.9968352507499736 7.924503171113705
Cu 5.1121879262212335 0.7750853618392667 8.976658735947824
Cu 4.534739035510028 7.036082529978205 8.678788370375527
Cu 5.5654691955281725 4.916471919394845 9.62654265697279
Cu 7.643429277535441 8.380815127422782 8.046616277625468
Cu 6.554573238275546 2.639937671406091 9.664981975067759
Cu 8.804974596111713 6.212895485002795 8.639187164505445
Cu 6.749891889281997 7.000225095507843 9.858352082651393
Cu 7.8466202808751895 4.694711091375587 10.256879843672081
