5
Energy = -8.09215636 eV
Cu 7.385754020051689 5.123565391805684 5.22503493502096
Cu 8.465970126822526 7.189619129698025 5.544800123976062
Cu 5.131618642808904 5.573418832275629 5.569345287093438
Cu 9.699656224112212 5.266529196022165 5.183210051867837
Cu 4.230540225703609 5.82721141423906 7.362355717365138
