53
Energy = -160.92699385 eV
Cu 4.8591374477060025 2.747354527203694 0.06983268843353847
Cu 3.768227627755719 4.925307806629218 0.038629136573710324
Cu 5.089318444457613 6.643509675654691 0.9984925673292121
Cu 2.536103157716013 2.9356375528394363 0.8574541304283033
Cu 6.4898265547782055 4.582872789645354 0.29578063493477
Cu 6.4925701985837385 2.038595676628379 1.7454063584154722
Cu 2.7122775726731247 7.231799559017829 1.2285896168631962
Cu 4.449928481817434 8.575511219759418 2.517988687957202
Cu 1.3945383607766322 5.174670619629183 0.6370045582772821
Cu 7.141223137075028 6.12945245625441 2.161831582440058
Cu 5.126213715864316 4.183266245972863 2.1591457038130426
Cu 0.7639669481556353 3.5901039192150694 2.4582055581901376
Cu 8.873489250389232 5.668682018416314 3.9009718677502363
Cu 1.631877780555875 1.1929186572965642 2.52979486428605
Cu 8.023036513625991 3.8559842658363626 2.2761892201884413
Cu 4.116568563114376 1.2337962307964256 1.8665596602975707
Cu 5.899184259906086 0.21683051548324989 3.3926116779919746
Cu 2.949949334441421 5.236344637192343 2.4854161192979998
Cu 4.945287182196651 6.482448013409614 3.4471413132632573
Cu 6.722351347254355 4.658666065270503 4.130996065601437
Cu 2.965176849186424 2.9206603603432835 3.307430115090868
Cu 5.258401965942211 2.4129760809769807 3.895771494370111
Cu 2.56349879494227 7.604401183749132 3.7717384986123546
Cu 7.074420336512946 7.387710841630702 4.3344370061174144
Cu 0.7431886407579014 6.2198795857697835 2.7991872604536803
Cu 4.297320074996673 4.492455674483934 4.602330967125399
Cu 1.6253609480483748 4.645449469177784 4.4870966225758595
Cu 1.3220704870768478 2.1822095906075396 4.957372241604102
Cu 3.593091626969339 2.5280918289157452 5.8044868799324165
Cu 4.687276167065025 8.300370520441142 5.117159812761959
Cu 7.565519998366581 2.0843744935364823 4.103201415701822
Cu 3.4789720053470647 0.6512742817352996 4.21322641440156
Cu 0.84190999960777 6.731187038717263 5.4127508857097855
Cu 3.1626712867222975 6.254508891625739 5.6876345479251045
Cu 6.689612345616605 8.131537251079603 6.687533158146928
Cu 6.1133233673683085 3.4142656798834268 6.162878888966504
Cu 8.55624120865302 3.7768033875180316 5.5377798026452965
Cu 5.689289460238614 6.1003715038658255 5.873384592126689
Cu 2.4435287943716464 8.37562031341543 6.382710163550958
Cu 8.118820404109009 6.1036333094177095 6.251088376735757
Cu 5.616679091092439 0.9635779055431268 5.830676468172316
Cu 4.249545860826148 4.685257354835123 7.22736874000803
Cu 1.8274187222606126 4.1239588206981574 6.798391234048983
Cu 2.0851067075241203 1.8233082388635793 7.477193827604473
Cu 4.447071141855232 7.486771525609023 7.573683366043289
Cu 2.32663857564468 6.251145989634702 7.9613909414354005
Cu 7.041754207936059 1.9219647222287664 7.733755803824532
Cu 7.913720753611911 4.211054465290416 7.821587552620416
Cu 4.591074593142382 1.9939509163344864 7.922162070679837
Cu 6.469613175355401 6.140933386675646 8.227476051216192
Cu 4.3115947689763345 5.77622230431722 9.394362749784204
Cu 3.040941473991129 3.6600483972338873 8.967261669686993
Cu 5.7845290203072155 3.8207309669599288 8.957907101255834
