54
Energy = -163.26314008 eV
Cu 10.70135187207718 8.828725710435933 5.109831191246597
Cu 10.26021610818016 6.877559404598183 6.557522554732964
Cu 9.799851939259012 9.077097046619883 7.561610424230546
Cu 9.786982455828038 7.046200523943749 9.030191038631735
Cu 9.326840025874624 4.85928589768476 7.984735813579189
Cu 9.32711360548903 10.753883452891547 5.652065752023977
Cu 9.463082358768077 6.9758951758545455 4.110357542312378
Cu 9.06744969196407 5.029489692605028 5.534626789752521
Cu 8.515942334030143 2.8426318953508174 6.570898822525963
Cu 8.672673442069142 9.341575940624463 3.470252118455658
Cu 8.351971557743319 8.556525726137103 5.640007960227096
Cu 7.565441904956846 2.681475051082706 2.783274765283333
Cu 7.953336418522406 6.899909243287745 7.399209744448133
Cu 7.596650293614022 3.3440220803821923 9.018036966691763
Cu 7.676674837747386 10.418507383212559 7.497696547406154
Cu 7.96260222785781 8.65732752995475 9.16197916574236
Cu 7.549513668395596 5.779541993308202 9.601249660232503
Cu 6.921137874307317 1.6389579848178615 5.020531086640167
Cu 7.461836605183948 7.014973494312852 2.699636296382455
Cu 8.632352251848381 4.8781314977885675 3.0764239642288302
Cu 7.007226117918735 4.647269664580907 7.089316986024297
Cu 6.941865349118356 10.645521155854619 5.178290873067295
Cu 6.908795675988575 6.561493781279386 5.1307532487337655
Cu 6.337779740495497 2.0488719077028237 7.371012918898545
Cu 7.039404496324318 3.9917613812273647 4.734057054217979
Cu 6.459821244249139 8.0197657747164 10.914352002681563
Cu 6.195768692752001 8.6060669508834 6.687939308558911
Cu 6.247812935868546 8.774119382842088 3.888034709391513
Cu 4.514329914189316 7.619215189240692 5.167941917200854
Cu 4.877109460258338 5.272082877635056 4.501295330720052
Cu 6.226169776556673 4.784414047276461 2.418759804811591
Cu 4.027086714746461 2.1728529566537453 8.070743391421038
Cu 5.227359404119487 4.250446033442803 8.788935356858522
Cu 5.2221883091847205 5.8975270457844315 10.642766954464207
Cu 5.8342031741681915 7.245958446135555 8.731631417552494
Cu 5.246471726155864 2.7508411834601896 3.5528949696182512
Cu 4.852529539630152 3.5377729118416434 6.1640172818425265
Cu 5.710385771322531 9.689310587139705 8.897361938762304
Cu 3.7937701514086006 9.007362560900741 3.365120952882963
Cu 4.563172413526783 1.258826551161873 5.562491930162518
Cu 2.9409792341051655 4.332035947180873 7.530673985464567
Cu 4.958438927187239 6.887485582116783 2.707340623686005
Cu 4.564763197645041 10.03443386056556 5.573532757609341
Cu 4.127318501254367 8.251076257714104 10.136865164400502
Cu 5.007793315486201 5.971410315690373 6.857892870857752
Cu 3.6342087316798932 4.521789879941654 2.6614826972860732
Cu 3.5373926163458123 6.25058205851088 8.83811680473417
Cu 2.449484294878632 2.358723411497064 6.236019197031835
Cu 2.955015623896625 2.3965266813648682 3.871503794022778
Cu 3.8806015650820447 8.434603103453064 7.5416186816781785
Cu 2.527016954555712 4.485075038309866 5.011498838639076
Cu 2.4141412419068993 8.739818194076811 5.436490564401658
Cu 2.7309160614763806 6.664299727977739 3.838490072091867
Cu 2.6324964945503546 6.490222300682302 6.422003333541661
