51
Energy = -152.98355534 eV
Cu 10.408232094725845 6.903996896887424 3.1370734498149813
Cu 10.619249874840675 6.381716797719745 5.549630403645719
Cu 10.380335723727832 8.849185072766144 4.750052368700305
Cu 10.01630711558978 3.968187437436609 6.0391102833766395
Cu 8.91550164005738 4.951505877739812 4.132844590761493
Cu 8.555031759079935 2.5261688779375615 4.414955833302451
Cu 8.663851927833365 8.787891851527196 2.7575051199732608
Cu 9.154834992879048 8.274300257511886 6.915014793636421
Cu 8.228013822034175 6.3021496389218665 2.2220518410872523
Cu 8.608715635904549 7.352977813344928 4.648449995456804
Cu 8.572196875729626 5.915378470142367 6.83951810347278
Cu 8.738435280999271 1.8949551199197607 6.733682940996691
Cu 8.879349581388112 3.876951315489213 8.211982866151748
Cu 7.975805783944233 9.696638470625048 5.315269722480228
Cu 6.430194284073447 3.7188833116015227 3.8221275530800547
Cu 6.399510639133376 8.676876627082637 3.793300947012838
Cu 6.6482235841748185 4.89932323877566 8.227745399317486
Cu 7.48818929320869 3.9130418534536346 6.093082820365204
Cu 6.641111985909181 6.124869752721036 4.126379088105389
Cu 7.330944253632221 7.226852281228238 8.578107620787526
Cu 6.6679968890913734 7.9158622122952025 1.4898479984299662
Cu 6.378611652504687 1.8763117368603188 5.6855220782915055
Cu 6.794384214272822 7.60415358558481 6.187889010805153
Cu 5.849041810581847 5.412878809371145 1.8879800811489578
Cu 6.894733318836548 2.426123314774722 8.226429700041914
Cu 5.411134642091521 5.262189714701659 6.112264623100837
Cu 7.092249495474955 9.510950028335785 7.715428461231639
Cu 4.364082451478869 5.29282822935165 3.900811561185642
Cu 4.554815043061605 7.4437616884782605 2.534450083858921
Cu 5.481871593780352 8.621505619884083 9.399356280800117
Cu 4.733510850353026 2.827292771385979 7.33520497645973
Cu 5.204159666398946 3.5523586805112393 9.69894255159226
Cu 5.227853221524208 9.54042929727927 6.113221066198106
Cu 4.307017296698489 3.386091936017499 2.517659540432917
Cu 4.287064476106319 3.0828611077019663 4.990306097182385
Cu 4.655006214367864 7.437874583088586 4.970816406186339
Cu 5.438892516950894 6.174325179925673 9.902717518774887
Cu 4.677516984651809 7.339565199362947 7.476103474798332
Cu 4.022259372581003 5.0852057964751465 8.151152398781216
Cu 3.1223266325812964 5.478270469424303 1.9047138870585767
Cu 2.8351041549002676 5.945375366898675 6.05615616061198
Cu 3.543672676463561 9.390291410934314 8.032783284212982
Cu 2.490040884358007 3.5976924301555995 6.574374160016464
Cu 2.488576071439556 6.938057616279876 3.855200093924234
Cu 2.868321719975435 3.0591803367283474 8.938918148557619
Cu 2.2257687062565834 4.321658311028242 4.183493585016014
Cu 2.8380939892707784 8.638746670053331 5.787484258900304
Cu 3.2584392400274447 4.979734597630698 10.431312236923032
Cu 3.3090958436489193 7.281826844780728 9.578534194303321
Cu 1.9093870231140058 7.51056603602801 7.687663498566034
Cu 1.6624045350363652 5.20606180820016 8.37118242014538
