54
Energy = -159.69487354 eV
Cu 3.365072738819632 9.044734148181202 5.510854627453775
Cu 7.257822138884082 3.5482568817776574 9.044968105752666
Cu 11.351565966971028 4.418281912824008 9.810556177258567
Cu 5.697220850013577 3.165770707459657 7.134093722845921
Cu 6.584408530693815 7.465695378980829 10.607853491543816
Cu 3.4546430675863706 4.933222308546732 8.85383044134552
Cu 10.68120656553317 9.089052857882137 10.075273751669695
Cu 7.950046906741999 5.314041591882357 4.3873257839622966
Cu 5.708825835844185 4.730940727397728 5.211823598369721
Cu 9.660654837129432 10.472408583337645 8.280301234744433
Cu 6.399644855903536 11.923557389139281 4.966996470292628
Cu 3.623396776085782 5.515189447728033 3.95666547616932
Cu 4.1978570179062045 9.208695125882961 7.805387082073704
Cu 7.817101834393505 10.035052220398768 4.515295283007765
Cu 5.873556163005424 5.923293910619862 3.0429517904966192
Cu 5.85305109686744 9.143035675565558 5.860696175913363
Cu 9.111908173381755 6.715105143733833 7.1271227183349595
Cu 3.098817702061041 7.0163575556347 7.40395025251009
Cu 5.0599449146383755 10.185111173049119 3.89131364814571
Cu 4.625785172837006 6.972604717351776 5.577101113271307
Cu 8.159886904783772 6.76073333757493 2.48003893158309
Cu 8.463572627464801 8.586954859038473 9.278318735865696
Cu 4.182586687819336 7.925968940261235 3.3657408973054443
Cu 4.469744957317849 7.247089258419747 9.413402307233465
Cu 5.642300285995823 9.559823711372529 9.862773936725272
Cu 7.602987395662186 4.703119247007249 6.769846116840515
Cu 6.988109081542268 6.961570364166892 6.021481198299154
Cu 6.270663707709414 12.876375108501394 7.176819415160488
Cu 8.926804501130405 7.771904255213255 4.614201163657199
Cu 3.8731737687143326 6.261543195281918 1.6942850740946618
Cu 10.193904714671001 5.859796427803149 3.691316495818518
Cu 6.60839323153949 8.115317817983735 3.753520952278683
Cu 3.552806633817819 4.795233510337267 6.319045276541618
Cu 11.016590215203736 7.025122067046204 5.663449137558692
Cu 10.737676050835002 8.312993597720766 7.796445519269156
Cu 8.372447780175685 9.052683712354883 6.701568220556453
Cu 10.096532421738576 6.6964876041877295 9.643750489521954
Cu 9.64639759361167 2.530515210548344 9.500088143696292
Cu 6.417669136239788 8.11321674340015 8.093651120794771
Cu 8.770418595339782 2.641435417350566 7.187077134137541
Cu 11.166600567906517 3.2759283278065836 7.5971985836718074
Cu 9.399699946287571 4.628932360254592 8.489390588255311
Cu 6.334718915918181 10.55775067910164 7.782127559986857
Cu 8.257994531014337 11.528440674808678 6.510843954145764
Cu 4.471666366966666 11.171997781734456 6.23252885054093
Cu 9.964272229583326 4.652870294024199 5.876144230355968
Cu 5.653013773634 5.185427237075473 10.148655787662808
Cu 3.3279454484305817 2.764843654755603 7.592337888967115
Cu 4.935414736271959 2.9792535758438823 9.447622800536351
Cu 2.575395425637263 2.867500167992739 9.827238381562577
Cu 7.839585511351772 11.961079062547206 8.880779219177498
Cu 7.612345418145933 6.106794296870399 8.957910718405133
Cu 5.456952368610638 5.737341971898339 7.666336628004354
Cu 11.429260212694627 5.766919605271382 7.712594947110915
