55
Energy = -163.67251483 eV
Cu 9.543934483805415 6.931578970684651 4.4255395574671255
Cu 7.763442849895644 5.245495037797033 3.6634044148078555
Cu 7.231535691271793 7.721301249446052 3.8800639788288165
Cu 10.2545827466551 4.770166033009877 3.767325738468977
Cu 5.377507539546602 6.127618767479096 3.450387149286182
Cu 6.422287386812279 6.002933796663197 5.577158336476808
Cu 8.02464640106996 11.238391756312398 6.014505586168013
Cu 11.321799092924577 8.500746809891915 4.445312913819821
Cu 7.245179491800549 10.332238798849719 3.744153844640923
Cu 10.94492467374844 3.340324318584466 5.577595282433172
Cu 6.81391953785438 3.5253113669317737 5.92027600664024
Cu 4.549619791255111 7.529545617731549 5.46262073619293
Cu 4.0987595070826135 9.944379061644593 6.117581573256432
Cu 9.03422751646905 9.248114869630932 5.010703788791468
Cu 8.156176288749343 7.363728534901122 6.422167457165798
Cu 8.868115299162602 4.92395151155516 5.875322905173648
Cu 5.110538870072215 3.6761030059849498 7.646433061461318
Cu 4.522397684663707 4.646276935168937 5.355394031643637
Cu 8.716798087051584 2.999600754029952 4.377250790130125
Cu 10.540263760539439 8.109515602963118 6.659071510314204
Cu 11.190411588567143 5.781556648559442 6.0032736342517605
Cu 6.926948908980912 13.33722325961443 6.53429832332878
Cu 5.748986980066301 11.530496336186932 5.342812373197098
Cu 3.691434723952583 8.26391702869837 7.816370734126326
Cu 7.118865719770221 5.333669439077368 7.804934566166462
Cu 6.508163321285731 9.18184033069955 5.664811085205156
Cu 6.081607901021778 7.737324412573755 7.601510423119673
Cu 8.352442311670336 9.43082174287617 7.671889774727858
Cu 4.900973617975186 12.39784726752164 7.480592993770165
Cu 9.01005385655846 2.547758081118646 6.752673265853774
Cu 4.445645643054578 5.963310169982496 7.399041785829808
Cu 7.253207237207479 2.7308306408493035 8.34050293972672
Cu 7.50242967171821 11.83017745075333 8.366251852192013
Cu 10.267465913765887 8.383313727878472 9.03162903000865
Cu 6.141368328185381 4.263257432444343 9.860564158317175
Cu 3.421525944301993 12.963284015794109 9.266073659388505
Cu 3.4671702581870107 10.646806926604318 8.491048928880403
Cu 9.405498168447622 10.608100609748751 9.567065501308447
Cu 5.817871066792766 10.14218220132868 7.820053793871794
Cu 7.837415963706365 7.416075936463333 9.240318020422265
Cu 9.51919363934055 6.163983816056552 7.940198507079665
Cu 10.736137200964075 4.097150027778376 7.917462665375727
Cu 8.69845305630851 4.365694598816761 9.49485212535672
Cu 9.593691363314264 2.1952388457042677 9.04576184345796
Cu 11.782130535007743 6.481941264453861 8.360564301883988
Cu 3.7941014030185105 4.8012489447731195 9.399868712194847
Cu 8.96540367448351 8.584789614574504 11.106621049540907
Cu 5.450393002227815 6.597846308101686 9.73047683382948
Cu 7.15189809965841 9.926156579927206 9.898261276038529
Cu 5.336688895703043 11.559490451537506 9.824123248280209
Cu 4.872309251148897 9.036982137228867 9.823786086192886
Cu 9.924390546662845 6.372912252976 10.335055670757244
Cu 7.535642159746177 5.901989599138477 11.069293506367844
Cu 6.548596995321519 8.085373149887948 11.411589366410906
Cu 7.481078864798281 10.182338464363507 12.214351813724756
