6
Energy = -11.82671706 eV
Cu 6.62882213331442 7.956494397522176 7.9528210561076325
Cu 7.971709838594568 6.038320227295027 7.769741314012372
Cu 5.636641225618634 5.827170373539353 7.8790033086541165
Cu 7.857121340459365 6.216488921854495 5.396949327100029
Cu 5.527676674592018 5.944853381293793 5.503542082879456
Cu 6.465388787614317 8.095502665781414 5.583121554805452
