6
Energy = -11.29316681 eV
Cu 8.3506770900263 10.527032772570774 7.877289947311116
Cu 7.443013728200985 8.617143281132881 7.122978879178035
Cu 7.778842502645066 6.749101832400577 5.64606335988476
Cu 7.684783582014657 4.5444609635813 9.181696512147525
Cu 7.074760270422734 6.240917336747157 7.843482300307407
Cu 5.620613930900675 7.338136753299556 6.231829059438564
