6
Energy = -11.1983792 eV
Cu 7.430996910795455 3.979480140856665 9.921864992474172
Cu 7.588509355703381 5.487708519095337 8.26410403238715
Cu 8.32927869541477 6.818151752060764 6.412133800937048
Cu 6.419415893402141 7.3988290140188955 7.589145553175959
Cu 7.260681731275604 8.94477355687266 6.052803415149938
Cu 6.651041076707607 11.039241212034932 5.50050386350976
