6
Energy = -11.84162353 eV
Cu 9.529989984738883 9.048077265124885 7.793077756363275
Cu 7.607417744852523 7.699434093268427 8.109178165390116
Cu 5.6967954003792896 6.383837256877757 8.478201969748053
Cu 10.435133635745979 10.287106362284923 9.588360482722763
Cu 8.529439172735533 8.962044769494693 9.953099955747518
Cu 6.603396775113627 7.623820741265026 10.270254073952337
