6
Energy = -11.63679659 eV
Cu 7.053134234898355 5.800084108835556 8.319184032104273
Cu 7.214404343506267 7.34811384726903 6.560787726260296
Cu 5.2905757372809505 6.821422111981626 5.3613233929415305
Cu 3.438170976616698 5.457997453912252 4.864525137686926
Cu 5.578304023092155 4.798210927161204 4.09646436667957
Cu 6.731150976457549 5.061152395260749 6.135882150444236
