6
Energy = -12.67520128 eV
Cu 8.099801167590522 6.948122300308472 7.394091361778705
Cu 6.948122300308472 4.9175276006169435 7.885100127799015
Cu 6.948122300308472 5.764726678722847 5.565175411347695
Cu 5.796443433026423 6.948122300308472 7.394091361778705
Cu 6.948122300308472 8.131517921894098 5.565175411347695
Cu 6.948122300308472 8.978716999999998 7.885100127799015
