6
Energy = -12.80182864 eV
Cu 7.096241877567662 5.741473468495023 7.6484877606313635
Cu 7.921993654607324 5.688013141017129 5.354287061174817
Cu 5.74470021240243 5.032461137949594 5.876424131036418
Cu 6.040550277257438 6.299570665210014 3.935538967850362
Cu 4.729818112043234 6.319571881007515 7.5465578255732835
Cu 3.9927639050186308 6.434549359632973 5.2246276229122754
