6
Energy = -12.95259561
Cu 7.043066500000097 8.095618500000002 8.181372500000013
Cu 10.135274499999957 8.095618500000002 7.309151500000033
Cu 6.803817500000111 6.288137499999958 7.364895499999998
Cu 8.159050500000037 7.492914500000017 7.309061500000082
Cu 7.359200500000122 9.2591735 9.62581449999998
Cu 8.442033499999956 8.710982500000016 8.152149500000004
