6
Energy = -12.39636312 eV
Cu 4.864085686493757 3.595280581543022 6.154162944455499
Cu 6.861119770881071 4.77159594911578 6.745276870308142
Cu 7.069033332767371 6.358253405809782 4.932017937753306
Cu 6.809468653867973 7.140125113997458 7.054541217338225
Cu 5.348426049098711 8.036251065558378 5.077630076795916
Cu 4.875353916397355 5.884116492713758 5.83321814826749
