6
Energy = -10.85180452 eV
Cu 6.828446978570099 4.975481235980538 7.033875555350649
Cu 10.434448722943626 10.801649221001028 7.039429240854844
Cu 8.83418443420044 9.17753324152114 7.081995476379904
Cu 4.750744062807966 4.25335602269212 7.9473461720501835
Cu 7.230820637188955 7.332247022082274 6.982588153970806
Cu 5.027518920101615 6.400706656805015 6.972798331667364
