7
Energy = -15.1487738 eV
Cu 6.975440967399323 7.1360234227279555 3.734835087813824
Cu 7.128965770868241 5.452554461180392 5.383041270555986
Cu 5.167606483479517 6.871593117022939 5.162763349056993
Cu 4.901158393648525 4.467410025953169 5.389760851524873
Cu 7.952250364474873 5.442311324772187 7.6019228663548235
Cu 5.670415903166722 5.742555020231248 7.3074613094315195
Cu 3.4368439806033146 6.023937696203123 6.551400443875814
