7
Energy = -14.6410964 eV
Cu 5.466462429809106 7.827346092218589 7.17528301071383
Cu 7.353657464027112 6.371742690408618 7.356022415433371
Cu 7.099342355128427 8.228902258740973 8.822344701487197
Cu 5.720870418505079 6.02736499982768 5.683839294766013
Cu 7.6185582627914 4.577363743138346 5.790247811184001
Cu 4.002994263595402 5.744237108109534 4.1410404963331295
Cu 5.835120628058703 4.255797524579331 4.154404061445898
