7
Energy = -15.16181043 eV
Cu 7.671685648287016 6.505160288912112 7.0714866956985825
Cu 6.071505349005081 4.722004254178304 7.315930929791049
Cu 5.3831437669990025 7.138664061510452 6.794281101105233
Cu 6.504104491544063 5.752946710683547 5.17134540842483
Cu 4.719214432271573 4.168470624879293 5.457293494490023
Cu 4.255388064953827 6.582015492690973 4.800942241337133
Cu 5.2911664653744355 5.0269467855805825 3.2849283475880373
