7
Energy = -14.48525294 eV
Cu 5.5845500353257735 6.690013609962424 4.100181331394594
Cu 4.2691191683782295 6.677947801290848 6.080689803616594
Cu 6.6730148060081635 7.76261650986176 5.911576861958889
Cu 7.537584072815331 5.70728320680583 5.004168184528087
Cu 6.2223375507719165 5.685413206255321 7.009015434814147
Cu 5.122178417203331 4.620621244781811 5.184570825331506
Cu 6.870457355231878 5.233784276644174 9.115008059881623
