7
Energy = -15.01578134 eV
Cu 4.419120725806189 4.902072110462734 5.229919789190286
Cu 5.335419369594284 5.979501729088793 7.129345831094488
Cu 6.759722350026899 4.724745320680944 5.701914355498782
Cu 7.577429106701575 6.708943624241686 6.812438643761129
Cu 9.068132275956753 5.200147909054583 5.775712825481925
Cu 5.7945141722137725 8.303731382622136 7.029146969763859
Cu 4.234926555523706 7.292632975432456 5.484979174057627
