7
Energy = -14.94202368 eV
Cu 4.1064156546431745 7.245133576304104 7.720055468052758
Cu 6.25230828698677 6.575448123228803 7.111442344185556
Cu 8.22691420950075 6.757101754325237 5.799432307066759
Cu 7.743143973381358 4.703768572947071 7.013861398884884
Cu 4.388087996769796 6.217566582952282 5.637810773398476
Cu 6.508810787286974 5.260252332931452 5.059224943829101
Cu 4.7220037709254346 5.169656382507449 3.570986013439137
