7
Energy = -14.95463966 eV
Cu 6.903563173371334 6.903563173371334 6.903563173371334
Cu 6.903563173371334 6.903563173371334 4.541767346742668
Cu 6.903563173371334 8.970602529973167 8.137682584130262
Cu 6.903563173371334 6.903563173371334 9.265359000000002
Cu 6.903563173371334 4.836523816769501 5.669443762612408
Cu 6.903563173371334 4.836523816769501 8.137682584130262
Cu 6.903563173371334 8.970602529973167 5.669443762612408
