7
Energy = -13.76514896 eV
Cu 8.022138057329121 6.092785161051837 8.694501300000002
Cu 6.844753901094317 8.30054501884318 8.621877797341352
Cu 5.667369744859513 6.092785161051837 8.694501300000002
Cu 5.667369744859513 7.596722641136796 4.995006502188632
Cu 6.844753901094317 6.844753901094317 6.844753901094317
Cu 8.022138057329121 7.596722641136796 4.995006502188632
Cu 6.844753901094317 5.388962783345453 5.067630004847283
