7
Energy = -14.89959697 eV
Cu 4.215176027419234 4.8475684516528785 6.783734459180206
Cu 6.555101174670954 5.001406330625601 6.783734459180206
Cu 8.886303109058824 5.153794171904439 6.783734459180206
Cu 5.200634350801832 6.989558420576994 6.783734459180206
Cu 7.6592022564776965 7.135682246371102 6.783734459180206
Cu 6.315124841725059 9.078461519053768 6.783734459180206
Cu 8.654599323917653 9.279669943886473 6.783734459180206
