7
Energy = -15.59712138 eV
Cu 8.343384407942084 6.301176606111278 6.811810985500832
Cu 6.559519621744458 7.720225889403029 5.62457359912321
Cu 6.519756849240222 5.308007268171111 5.629076740828511
Cu 4.778407631947173 6.649236816470459 6.811810985500832
Cu 6.519756849240222 5.308007268171111 7.994545230173153
Cu 6.559519621744458 7.720225889403029 7.9990483718784535
Cu 8.402331660945508 8.675797288626717 6.811810985500832
