7
Energy = -15.46203482 eV
Cu 6.54002284100079 3.7139340303724304 4.98365026415467
Cu 7.500221300840686 5.469327340186689 6.200305598776227
Cu 8.065028035199733 7.447209499097234 7.339416232251479
Cu 6.443182746446468 7.592301045860449 5.561588603030101
Cu 5.874016851741309 6.5257169470383145 7.716090309086793
Cu 5.156441799829931 5.4996130998482435 5.596455676599032
Cu 4.159692295085077 7.497927461290682 6.334638212643395
