7
Energy = -15.74281416 eV
Cu 8.17809336149812 7.1225024303622995 6.627948127720544
Cu 6.17767796638713 6.547819352357463 7.779883958761459
Cu 6.839702014002326 5.336043555714456 5.7162931783352215
Cu 5.623708480465161 4.248754996159947 7.492568673650555
Cu 6.076672048251914 7.6730381946151605 5.622379470225924
Cu 5.3730107021530875 6.125631573421057 3.951221253341151
Cu 4.486479092537051 5.870439346282829 6.151600827229049
