7
Energy = -15.37934988 eV
Cu 5.763197865232579 8.707187095100114 6.072613483129452
Cu 6.234107296891706 6.7379059788733615 7.290775634260181
Cu 7.7465622574592095 7.457257392641886 5.568662661390672
Cu 5.240995720450169 6.596659142166587 5.06680005198988
Cu 7.050176353030883 4.6306355203418725 7.906829315954102
Cu 7.139545571727241 5.165488171119837 5.590691903644335
Cu 4.936173506571804 4.8156252711202026 6.6143855209952465
