8
Energy = -18.1978129 eV
Cu 4.50104410539809 6.207544065108377 5.564959133242581
Cu 6.454462971541149 7.850177969927881 5.84679843555653
Cu 5.541665396775571 7.269586034420616 3.7329397482232105
Cu 5.440030159489236 6.737889045570841 7.672262159393803
Cu 7.776430988577318 6.155480727820849 6.844217130644547
Cu 5.858561695441121 4.450497609517627 6.3661544584555445
Cu 6.984083692218015 5.653887850696182 4.673778986383565
Cu 6.667876108292581 4.89909181467099 8.523045065833303
