8
Energy = -19.07685591
Cu 8.539613499999929 9.300428499999965 7.608749499999859
Cu 8.931492499999884 7.8648494999999885 7.758201499999812
Cu 6.198187500000137 7.782437500000043 7.734465499999938
Cu 7.43760950000003 8.516083499999944 7.529618500000177
Cu 8.046966500000025 7.110695500000203 7.275249500000009
Cu 8.141362500000044 6.513307500000034 8.671616499999962
Cu 7.988849500000129 7.9701894999998935 8.897786499999896
Cu 8.582353499999845 7.864849499999987 6.503566500000143
