8
Energy = -19.01583512 eV
Cu 7.611529667788898 7.611529667788898 7.611529667788898
Cu 5.863086555998599 5.863086555998599 7.611529667788898
Cu 7.611529667788898 5.863086555998599 5.863086555998599
Cu 5.863086555998599 7.611529667788898 5.863086555998599
Cu 8.142379 5.332237223787498 8.142379
Cu 8.142379 8.142379 5.332237223787498
Cu 5.332237223787498 8.142379 8.142379
Cu 5.332237223787498 5.332237223787498 5.332237223787498
