8
Energy = -17.62797626 eV
Cu 5.472642058156899 5.9286860545568505 6.895101638805236
Cu 7.842782778984202 5.502862602848008 6.952557015492123
Cu 10.035568374106093 6.28772470875164 6.896222962006001
Cu 5.949627610822242 8.290084723263154 6.840127074587968
Cu 8.320292148745551 7.864091895402994 6.897638665160426
Cu 7.487225083044489 10.039791575398072 6.898211577919112
Cu 3.760593658882211 7.499063996069981 6.722494936839149
Cu 6.301716332652677 3.758142619294283 7.068094434965164
