8
Energy = -16.87371062 eV
Cu 7.833729585963103 6.067880362479346 4.541781016786109
Cu 4.458416650923278 7.837449911712935 6.53888289776102
Cu 4.233051894087148 5.642138672025821 5.657805057688376
Cu 6.394107964449707 6.515498934306213 6.427520724216772
Cu 4.194108777817465 3.674328835337764 4.353656596045713
Cu 6.291368867498245 8.326752811292929 7.927164520770315
Cu 6.234406397580375 4.411058044028535 5.200855255874768
Cu 8.084090028126278 4.8790426087116066 6.647526984012933
