8
Energy = -17.25225564 eV
Cu 7.8230452933013925 6.802064232799867 5.751945536467812
Cu 8.016364195644291 5.9917682811458075 8.003000265985463
Cu 3.7766014313592278 6.860572453969 7.701405975723761
Cu 5.858365041314736 6.126114674970835 6.978589797031552
Cu 4.008312301855368 6.20073189051691 5.463618563373082
Cu 6.1463544379525334 5.530712782153329 4.570480217883256
Cu 7.41031242622654 4.41756772533934 6.298750619385134
Cu 4.205163747817136 5.5456835029298 3.2308323133279813
