8
Energy = -18.19828327 eV
Cu 6.812411260046307 8.976406305750636 10.59943407666808
Cu 9.526367926504593 7.938335953406245 8.06445563227649
Cu 10.789177131889081 9.862444667596879 8.297768330486665
Cu 8.28791237031812 7.2160514843419135 9.993774047527856
Cu 8.59015502139312 10.059635194273053 7.422177636625547
Cu 7.870662633668433 8.101291396953158 6.198319142593836
Cu 7.9457206530060756 6.223562191272872 7.799059550548099
Cu 7.038270638721273 8.469733417457634 8.358833037995911
