8
Energy = -18.62774638 eV
Cu 8.20867223 7.303121125234139 5.6284123132636195
Cu 5.113649286492978 6.019200391258839 5.6284123132636195
Cu 7.303121125234139 5.113649286492978 5.6284123132636195
Cu 6.019200391258839 8.20867223 5.6284123132636195
Cu 8.20867223 6.019200391258839 7.69390920322936
Cu 5.113649286492978 7.303121125234139 7.69390920322936
Cu 6.019200391258839 5.113649286492978 7.69390920322936
Cu 7.303121125234139 8.20867223 7.69390920322936
