8
Energy = -17.43340635 eV
Cu 6.278263414503735 9.912832616737505 7.063955863611941
Cu 6.275203524354539 7.634732203714484 7.603176647745112
Cu 8.050763499334943 8.614856598519918 6.282068745245027
Cu 8.713960882983333 7.3642432461752145 8.280070343848621
Cu 10.001879043076505 7.278978012034905 6.247237698103203
Cu 7.8398843258510045 6.1719166215324135 6.334531600893055
Cu 4.760248722009212 6.148965893880022 8.646547658812478
Cu 7.05305423363378 5.626428829421316 8.573880526713486
