8
Energy = -18.69879352 eV
Cu 7.652567985205599 6.846938198084035 4.871403180736446
Cu 8.495214846471168 4.9102598658895165 6.1838430850929065
Cu 6.948919388616579 6.389810101832391 7.170395504727007
Cu 6.289159585201152 4.878950173631791 5.350739312866202
Cu 5.3552917916256995 7.1826924751592225 5.380588304735873
Cu 5.121164657166898 7.744338026147156 7.7241734481679085
Cu 4.7085085453450395 5.442715094279919 7.110689749318734
Cu 4.0376079010934305 5.2127307657016715 4.816602115080642
