8
Energy = -18.21618835 eV
Cu 6.70691984627567 8.15097105256166 7.958825394449286
Cu 6.019645625173634 6.004748015902532 7.321139970381461
Cu 6.471651956509398 3.7243085327651104 6.808327733286898
Cu 6.692226789540807 7.650893677402643 5.681429486918898
Cu 4.148551033338821 4.604263328699231 6.79002394672338
Cu 6.364077528101253 6.695747254964761 3.513474162753431
Cu 4.776119734206395 6.212419511292827 5.2185321589333045
Cu 7.206193354743846 5.310846083327219 5.2657772518011825
