9
Energy = -20.26877105 eV
Cu 5.239661893158291 5.635800893523815 6.894565080963519
Cu 4.146816957392744 7.776220905068889 6.898169963808414
Cu 5.497024267672245 9.756492297207293 6.881111764738785
Cu 6.526373267800951 7.639074511362984 6.89630654099828
Cu 7.6436740701156864 5.3525675310889484 6.89091975549663
Cu 9.989834935828776 5.35467571156787 6.885353648760667
Cu 8.899360102046888 7.417488408954917 6.893247612757455
Cu 7.887341682782244 9.591158227792972 6.899472520613823
Cu 6.196764011770048 3.5033730925715285 6.887704430620983
