9
Energy = -20.83056049 eV
Cu 5.163276543417765 6.586961098151274 6.582877601836167
Cu 7.301498658778648 7.159305301279243 7.687113366992709
Cu 5.8999002521080435 5.409181226963778 8.582836035173955
Cu 5.910938903462101 7.819872263591661 4.613800727517811
Cu 7.286729199432755 6.025816144458815 5.484316211625178
Cu 8.003677173856467 8.335870831884751 5.694453514427752
Cu 8.001729412057353 4.868783791988554 7.491512031366592
Cu 5.901753344480473 8.889100122527932 6.777702534370298
Cu 5.903398409188248 4.278011307614329 6.458289745685307
