9
Energy = -20.5410249 eV
Cu 7.843484312438927 3.237492155874485 7.952260937982544
Cu 7.503733960602726 5.4667376494576905 7.608693311576898
Cu 5.98147568565484 6.9279791377703175 6.344024294293993
Cu 8.375733707944176 7.221620001883485 6.178703420831051
Cu 8.153760109841707 7.633456209921919 8.561869886620636
Cu 5.854375637515996 6.876024236262126 8.764622872157135
Cu 8.591554071239303 9.459672084430844 7.057399739245057
Cu 6.318385892708134 8.932864884023052 7.655193954742631
Cu 6.883136975391046 8.914435336719754 5.315123616388252
