9
Energy = -19.01069493 eV
Cu 7.193879831608481 4.967713413008351 8.775775039731272
Cu 6.989760814258264 3.986725375767981 6.6919551035444025
Cu 6.1362064998983215 6.898588539641563 8.06813048496162
Cu 6.871458040604344 3.1192456464613305 4.552677236916169
Cu 5.940541639249705 5.9456625322016805 5.927596269581626
Cu 4.988731409862101 8.755907525656058 7.307201872058664
Cu 5.8148652639607254 5.023294091425946 3.7686600950120046
Cu 4.839420773514328 7.8832101073201075 5.170923802612108
Cu 4.717238086907208 6.931857649514644 3.0621841209198104
