9
Energy = -19.29947011 eV
Cu 5.5388784701310385 4.391388129357238 6.688482918929478
Cu 9.042493201687995 6.340947917367902 7.3093911232633415
Cu 7.124419956391603 5.221419609132856 8.206770962044905
Cu 7.658233334978854 7.407326984477838 8.97635683826184
Cu 7.374275055714984 5.547390330195781 5.766516096044623
Cu 7.649309665139345 7.875041611710318 6.13682278800811
Cu 9.235755607266306 8.720321742389434 7.706961456355642
Cu 6.988996937200803 9.478101368416565 7.8544610659532905
Cu 5.626920796773022 11.285391549088619 8.053070199578935
