9
Energy = -20.64875414 eV
Cu 8.637051502386072 6.744876662429468 7.312570392083666
Cu 7.678841942214733 4.911698558971459 8.58873117493348
Cu 7.0214559922843245 7.657581658953462 5.835224681193917
Cu 7.289960510093015 5.175501508948892 6.183057684269196
Cu 5.790926583699845 4.057572737192436 4.800200623698088
Cu 6.122897894467664 6.538392284565544 7.858688091176546
Cu 5.1103978773144565 6.133926706978271 5.602805717536057
Cu 5.206240421439691 8.295009653569316 4.4465793769212425
Cu 4.7010896672067 8.111260019195129 6.810826768050127
