9
Energy = -21.15339059 eV
Cu 4.977351397749632 7.21504880518648 7.251020123190679
Cu 6.989594309648085 8.523027221894901 6.659525800591772
Cu 8.395047710267823 6.756174335948873 7.52046079771301
Cu 6.355958474827981 5.448050413258044 8.111242649867254
Cu 6.6876259907840625 7.721205127886592 8.895445835382036
Cu 8.457046178771304 7.317388684597796 5.110756659690947
Cu 7.437204656709452 5.257931270873316 5.906065383091308
Cu 6.023878531582116 7.030533871676775 5.033294246735483
Cu 5.055107710093538 5.083223199654238 6.063936710665281
