9
Energy = -21.03755325 eV
Cu 5.427831501191413 6.661685963882799 2.8638596610375067
Cu 6.310409670129283 5.322931854984742 4.592616555877188
Cu 8.346077824675932 4.811726444020738 5.806256319732294
Cu 6.196419309556431 4.084830026055713 6.701425403653159
Cu 4.507210277355514 5.72046709965136 6.2021087226767175
Cu 6.927899224360397 6.43628982428745 6.745407442527535
Cu 5.558927447474468 7.594982457801099 5.037251627113155
Cu 5.132105163058946 7.792150915458215 7.411245494174161
Cu 5.390719662806629 5.552247780172345 8.44918806710401
