9
Energy = -20.14796925 eV
Cu 5.834409549041017 7.423663227597924 10.00540670183965
Cu 8.426980281572893 7.406643574536916 4.90044713077583
Cu 8.227116085045841 7.287067139877027 9.638025309067267
Cu 4.7107706086289465 7.204522279104134 7.871243488847221
Cu 6.41425452896057 7.018194725619921 6.135690298157453
Cu 9.52318156047656 7.3870106812931455 2.9294596612458093
Cu 6.808352043807104 8.442071910914468 8.046832083439801
Cu 8.612977584214592 7.040441520835697 7.24461735558963
Cu 6.721237104791846 5.929216629407638 8.301115581801248
