18
Energy = -118.72955101 eV
Fe 5.7828865160277285 4.441623830678236 7.738329738590657
Fe 6.702798564484521 6.267878813111836 9.05831029891671
Fe 7.66148288478527 8.489930949191063 5.765528245097108
Fe 4.679240544899618 5.356054216065008 9.663818097154817
Fe 9.176084654396 6.669232132483197 5.629583437490218
Fe 6.258400777126115 8.327205432480032 7.7362994027360825
Fe 5.29602958989547 7.723059527598542 5.663237312250863
Fe 7.1107678149036415 6.9511761058093695 4.089866887336368
Fe 6.9201130389047245 6.23332150449441 6.567298512249708
Fe 5.920089434259203 9.204350217953557 4.044822705042918
Fe 8.099761084752695 4.926836961890787 4.589941812468836
Fe 4.702560066496609 7.343898870162653 3.548789581930601
Fe 8.601535638250633 7.4032243126526 7.909641127315482
Fe 8.497485012516117 4.817374871968652 7.252384353781268
Fe 6.952292605078134 3.588861166550918 5.930641201292105
Fe 4.506506113925831 6.399888738538566 7.413660053788725
Fe 5.471034989249107 5.341671920840912 5.076793255491915
Fe 4.741281276060371 7.594761033541867 9.401404583077552
