13
Energy = -84.01972498 eV
Fe 5.433351080375085 6.652386945952036 5.586612989484298
Fe 4.675010750693033 5.761792662655312 3.454829223469343
Fe 6.95083595864288 6.533192018238776 3.672993922299547
Fe 6.251883640026332 7.661913500381955 7.679506317062213
Fe 5.08527756805692 4.432421513140344 6.808494398470501
Fe 4.289668005726806 3.861623287492023 4.639340725552872
Fe 6.574630401119876 4.498929305919518 4.8275305242977025
Fe 7.376396887192444 5.546920064314517 7.020858679736441
Fe 3.1995211625298148 5.69468129319689 5.416982009999893
Fe 4.019591071035 6.4052401218276 7.566936234167817
Fe 8.643756135285937 5.81261908583919 5.060991891070421
Fe 7.635206181180247 7.728156797874099 5.830155103226418
Fe 5.836270331905052 5.6873163970865654 8.79172969026741
