16
Energy = -101.96509804 eV
Fe 8.535058025012495 6.0764976423049974 7.0487081726116525
Fe 7.00414553889078 6.305235817321263 4.7561817630620835
Fe 5.954623028985984 6.635783024063685 6.9705229874564925
Fe 7.600578901115127 8.34741438817931 6.158275536765242
Fe 5.419131807972326 8.939769282864322 7.481850454974599
Fe 3.6177635874742013 7.029383720173086 7.125500516337655
Fe 9.46097024232323 7.081933699797245 5.058993072033319
Fe 7.494144196291673 7.881637703357122 8.582792378282248
Fe 5.123418322409637 7.150441317933184 9.219724746983452
Fe 6.8643033961736055 4.331307817138583 6.482844151723419
Fe 4.716334104326462 5.203211099890412 5.463695101075764
Fe 8.761543785759054 4.680147168891868 4.880999339640624
Fe 6.44766429485658 3.976256533863785 4.0894617433446
Fe 3.1194465413055736 9.366551485955647 6.9552831542279145
Fe 6.874512660337092 5.407759450434534 8.818377192042103
Fe 9.734398372697216 8.171086904819978 7.353304391604839
