12
Energy = -76.42427012 eV
Fe 8.836357419777642 7.506888065707318 7.936616230212999
Fe 4.902061766369639 6.231574862647538 5.801814302782212
Fe 5.474397881011283 8.574766774192348 6.437822612945135
Fe 5.793111412086915 4.931018610613606 7.563317377345116
Fe 6.863589043684384 5.153529427256601 5.4709272872487515
Fe 7.945344225900179 8.807417890157534 6.1751787689617075
Fe 8.264088741039458 5.1637180252662915 7.300657130033685
Fe 8.735315033463538 6.74644625758092 5.692786349530546
Fe 7.119343527493131 6.281966307968643 8.952698247226751
Fe 6.874903046142399 8.584897049258567 8.2675005118585
Fe 5.003120556011741 6.992033985397918 8.04572893399185
Fe 6.619154030109561 7.456529427041949 4.785738664840361
