17
Energy = -112.51836744 eV
Fe 8.327696479893472 5.983152812291752 7.118310523695742
Fe 8.209120172732767 6.359904808842893 4.647289102715623
Fe 6.8601870828423746 3.9327402806324123 7.3241862069091
Fe 7.805229275539025 4.229254711764899 5.395118412782803
Fe 6.3150497326168855 5.725977289822717 8.626297870384636
Fe 6.581374321559814 5.129565237492866 3.6774408427534553
Fe 7.699019561118323 8.063744929415433 5.875791790168865
Fe 4.681656780422154 4.490707059279547 7.645606313383346
Fe 6.032391303213382 6.061446114205401 6.042313296504602
Fe 6.729365479878184 7.736456750764657 7.953637314665857
Fe 5.328186904796485 3.723814648395534 5.341506133075802
Fe 3.512997004264318 5.325206815125543 6.022269192094234
Fe 4.5090828846112565 5.665851325989658 3.965819960364169
Fe 4.3310002591066805 6.986719129641634 7.713028950574042
Fe 6.134087033029211 7.586282622977687 3.9809130639186447
Fe 5.529841053805146 8.617118733263672 6.199904878074332
Fe 3.9677151264045456 7.443491639705573 5.254823430364894
