12
Energy = -77.1924766 eV
Fe 10.055482695671287 7.943320740381235 7.612554213176864
Fe 7.803269476398652 9.549414421580892 11.037452923399304
Fe 7.370079229654358 10.652364851566372 8.032433677993923
Fe 8.551912449631272 7.373353437263516 9.424677667659582
Fe 8.994046248772598 9.68954316858787 9.180241463438435
Fe 9.556539995083407 8.189837581920582 11.458845719344463
Fe 9.396949141372486 10.115217234474121 6.857803165785084
Fe 6.609421553487517 8.729077341541824 9.165717974184926
Fe 11.149710938862526 10.078152772197157 8.48801948013854
Fe 7.763822976844636 8.408406140883857 7.2355425427322295
Fe 11.047860649774258 8.11934468485837 9.686829817913553
Fe 10.361157553122151 10.264132056841923 10.826701833067585
