15
Energy = -97.74765907 eV
Fe 4.5610618778758205 8.28484660469195 5.849489865908375
Fe 5.604604030126292 6.692956854375337 8.121582023937659
Fe 3.6295374988887974 4.7279605892451455 4.696618817609132
Fe 3.857699794874185 4.555183651656931 7.000895270658536
Fe 6.416257913808896 7.479811333580192 4.28862440142052
Fe 8.910321440143024 6.896978881152182 6.025756388755724
Fe 6.84302787113405 7.964793888513473 6.550761590975497
Fe 7.237711475740496 5.575484191403601 5.525879880114263
Fe 6.172319598610154 4.436372586275306 7.64291340739442
Fe 5.015521326577997 6.147179940558517 6.029635478498883
Fe 5.809675179550058 5.27982911843576 3.682104973493182
Fe 5.712450262554445 3.7081846597103567 5.450764876277165
Fe 7.921777880163724 6.2134052628773455 8.010131659403976
Fe 4.038843678405481 6.962303707155516 4.011697547709088
Fe 8.410186118711605 4.269434683427893 6.838040981180641
