18
Energy = -118.60931695 eV
Fe 9.196825422257138 5.7989030173261416 7.090284292387418
Fe 5.353364382001387 6.745777441581494 7.069632504827728
Fe 8.521907623447287 5.75406750590955 9.503101455324256
Fe 5.748563492067038 8.694550225888923 8.538306317077266
Fe 8.557045618150545 7.669355893168044 4.095869572824787
Fe 7.056214398782854 4.947531979872142 7.901092082701397
Fe 6.540176535881532 8.567358871590201 6.332628545858264
Fe 5.553431337038638 4.624198839416837 6.0489592135321235
Fe 7.721575622136723 7.436166311354807 8.099009750922693
Fe 8.035720997785344 9.826370811125061 7.295250581205255
Fe 6.111229520227114 6.426222546362879 9.638784051826221
Fe 4.745746049077544 4.835363055309285 8.38981461891773
Fe 6.332227437653038 8.146390519795734 4.169794569536861
Fe 4.0093845335479275 7.124022671357456 8.891162146999998
Fe 7.3700384403202825 6.432041513052518 5.7504430056971225
Fe 7.835602756736733 4.205754076167162 5.753833045625321
Fe 9.259413040070761 8.20953831196802 6.267875305258536
Fe 7.935961217173171 9.797774455322669 4.813405945689476
