13
Energy = -82.33609323 eV
Fe 8.028392458140793 4.832077075613743 4.96584471624657
Fe 9.653946044271063 6.448532182257376 5.5430207586784945
Fe 5.919919057550521 6.350110972840021 5.335962806822626
Fe 5.881231816240385 3.9905306856000684 4.381032163499503
Fe 5.6988826723970005 8.872034945071414 5.418595303739542
Fe 7.903676351568853 8.028084209550295 5.625050413410405
Fe 4.133365447876501 4.509670199764474 5.900573346114747
Fe 6.462627414248143 4.012538469780636 6.759341564156303
Fe 7.701132149155199 6.049687586583304 7.122886773583653
Fe 6.319199614489827 7.95688827398366 7.612765967646207
Fe 5.223306724775252 5.824040683005154 7.732829736194003
Fe 2.7265906016974286 5.81966790923514 7.272428703469878
Fe 4.012027684734514 7.662662410631685 6.556534453424202
