18
Energy = -116.58550931 eV
Fe 8.938629684864852 7.173698082745599 8.122283627415023
Fe 9.37823195366977 5.580863719975049 6.546931954786482
Fe 6.655975437397735 7.6031368430196125 3.503631423234693
Fe 8.42605145407404 7.718175891361101 5.776380842057322
Fe 7.8021971514525905 5.708843279527482 4.730412882920412
Fe 7.169150889375388 8.628987343011097 7.504916716020613
Fe 6.755301395967682 7.206869200218417 9.560366952984051
Fe 7.0535583410549885 5.921380422281598 7.453646596175912
Fe 7.873554214285923 3.812633753163205 6.4441634543749124
Fe 5.194313340160317 5.738515311933094 9.217880485334783
Fe 5.813079181383731 9.255945294106787 5.7035791644630995
Fe 5.013748582640371 7.722150837607803 7.74874566757112
Fe 5.822481378554092 3.9006846681313196 7.645953534193966
Fe 6.026922148863695 7.044679975977748 5.599223496129122
Fe 5.926296717857889 4.467573724450207 5.341251469640349
Fe 4.424040997946105 5.612019493927518 6.78964856733732
Fe 3.8818343778511486 7.784824143191923 5.700401434071718
Fe 4.988735605207662 6.263120867977745 3.754684583896942
