17
Energy = -111.55668887 eV
Fe 6.653843917394622 6.258540658259885 4.7366618244649485
Fe 8.144802101205523 7.849519958887114 5.623465448004587
Fe 5.9091524886578055 8.523946146236337 5.084490896595606
Fe 8.797617229111305 5.439724956506908 5.58730531023438
Fe 4.771836470783567 6.696136714345179 6.184277782965663
Fe 7.19468710718877 10.027660906366304 6.348592225360236
Fe 6.732547029452026 5.587960742281568 6.993773204649824
Fe 10.092173899807747 7.009676245501662 6.750384842943961
Fe 8.801684350215966 8.744669612528021 7.793449948501132
Fe 6.385180080700766 8.050749060619522 7.433616501838935
Fe 8.897387841042264 5.100951773086308 7.9063040867478405
Fe 7.033225824590363 10.015978306643921 8.714197203020575
Fe 4.962635141930263 6.4580119191044005 8.51284796044132
Fe 9.8563223152168 6.892729098478334 9.086699974516062
Fe 7.391302507195117 6.48947209061349 9.157480979346527
Fe 8.28822467904959 8.463943229886487 10.080130604026193
Fe 5.897936359118069 8.200887923314857 9.81688054900227
