12
Energy = -75.25023965 eV
Fe 7.586375429816037 8.623593341241138 5.243199979536709
Fe 5.896076110706377 9.02689629755002 6.4049834001246
Fe 7.155341902351283 7.198503859340397 7.157496278623515
Fe 8.303806300660211 6.572147629352302 4.979608911674661
Fe 5.97309590621311 6.919956513849894 5.061936507781656
Fe 4.628707572433963 7.045082967800745 7.128979305073965
Fe 5.840383342458897 5.180567731492 7.733644058129964
Fe 7.3478057695677 4.8661929206857 6.1711640920671895
Fe 3.7260677778130513 4.600160095201186 7.337090019673951
Fe 4.615253594310097 5.21447638133995 5.390412401500037
Fe 6.6426169865022295 4.614894210093042 4.1739073125213615
Fe 5.461898553822081 3.3377872163834788 6.206823862665875
