11
Energy = -69.6510936 eV
Fe 6.129677214337565 7.261448221662493 7.391086249387643
Fe 10.781854382985996 7.191144088688639 9.213727430179897
Fe 7.423141474353137 9.210345529442614 7.741286512388272
Fe 9.070378438179562 10.769186132183233 8.567013299529123
Fe 7.185993929482921 10.080486863836715 9.883978828181792
Fe 9.8015466080007 8.683398081442574 7.484712826530843
Fe 8.49781839652916 6.878504955462101 8.312823209708366
Fe 10.973682683452767 9.693986096108377 9.270236834614332
Fe 8.021287345360639 7.526537231046412 6.1527798465065855
Fe 8.970101681316484 8.68509071602417 9.910217385374759
Fe 6.714641654822926 7.714244994535442 9.577082213896205
