15
Energy = -96.82178706 eV
Fe 6.088502571781801 6.767887377422355 8.197214950978003
Fe 8.632367769143972 7.076549480572709 8.707776699386734
Fe 5.0112561952044405 4.383979059124757 8.448182902291801
Fe 7.511206351775303 4.8208178548511444 8.442438956760224
Fe 3.958421787003787 6.137360565891327 7.029013835160382
Fe 6.088939498058436 4.8668994540702455 6.316488133683355
Fe 8.066768515077605 6.336695792456816 6.4596290622808725
Fe 5.624921195596143 7.600478779090147 5.8738797767566755
Fe 9.657743039330125 8.115881404483773 6.583459192503686
Fe 7.387217382620572 8.691374551539623 7.277028143199561
Fe 7.775414762685791 8.292065815161333 4.832964837353342
Fe 5.593113159338681 7.887255443924507 3.4577984063868037
Fe 4.455127449632007 5.820754371330294 4.592362597785463
Fe 6.902542041117608 6.035270200158363 4.299748951031993
Fe 3.932016852036848 3.8522884452229205 6.167572124844222
