19
Energy = -125.41268674 eV
Fe 9.425469787175661 7.468925570964181 7.928027106240803
Fe 7.635528321921926 6.1260518225014255 3.3507766102985617
Fe 7.616898005413324 8.358524281384605 9.408251779134185
Fe 7.840655220485106 5.881313532984657 8.742067290948903
Fe 7.425711728910483 4.857007848724584 6.500535458403395
Fe 5.801204214453746 6.863235335621471 9.577248607380714
Fe 7.151229052784778 7.738605170708171 7.280588138424565
Fe 3.4704294071593047 6.992796232094763 7.566071905620606
Fe 8.643949346085048 4.415604596683651 4.477934518598218
Fe 4.928924848840752 8.125571168924536 5.8860487648827275
Fe 5.131840035456427 8.591117483254234 8.2202429513913
Fe 6.330861210733055 4.459281425518564 4.291518481473831
Fe 9.620717569766 5.2180765904411155 7.413512544713226
Fe 4.840489488693425 6.666361183753252 3.748687807461077
Fe 5.514023675834011 5.9824400055257785 7.467646319300915
Fe 6.458655435427024 6.548038525139093 5.2762416549038935
Fe 8.675387591058891 6.5748076722247335 5.65273539090968
Fe 2.914615558722365 7.2947222069312465 5.231332404194403
Fe 4.156520163779116 5.420630009319813 5.563642928418734
