11
Energy = -69.2945583 eV
Fe 6.980826680029035 8.518341987541074 5.4902500474919815
Fe 4.812314037681004 5.60217698046263 5.056785018370844
Fe 3.812683927523599 5.212401025461538 7.076516620613282
Fe 6.2169878055254975 3.9791026487448082 4.298061296620595
Fe 5.119515290876366 3.4454951495637323 6.303064254015731
Fe 5.197825184710919 7.263480028665217 6.764238727433584
Fe 7.367024376886543 4.711879542141608 6.0716059986877555
Fe 7.0130479991940105 6.4369572046669665 4.460897027185624
Fe 5.05685100908434 7.808654943292886 4.458140133088011
Fe 5.895628403164159 5.033023777985952 7.888256809573882
Fe 7.426001355461758 6.877076003349376 7.00861877696977
