10
Energy = -63.18636204 eV
Fe 6.515211311951284 4.042364995947724 6.90735916535159
Fe 7.7345172061545036 6.2410126840441915 7.057232689725128
Fe 6.490205743159167 5.672867816907042 5.099560518373373
Fe 8.246779843847051 7.38755562572798 4.996172403599878
Fe 4.643223901136678 3.8870985060532455 8.115461934043529
Fe 4.442093378029467 4.471421884233109 5.866684237134822
Fe 5.287839362924477 6.129496073598793 7.330071457500188
Fe 6.313168437897362 7.776539940155267 3.836225775025278
Fe 4.44021155289312 6.879808144973265 5.124569095522734
Fe 6.322705407610383 7.953581245993856 6.145309208973613
