19
Energy = -128.55695303 eV
Fe 4.849110528866429 5.255344685215355 3.811486617120145
Fe 6.7940919856537665 6.753311699982545 3.8100966034877257
Fe 7.118757988214352 4.522434470321102 4.619887647081099
Fe 4.4871340658818 7.468329181331237 4.269747299188059
Fe 8.908858479337496 6.02735524889547 4.961583006673796
Fe 6.2130768422615255 8.524386422453668 5.393881969137684
Fe 4.926448944918214 3.5640436666304045 5.314716020935983
Fe 8.404229565386846 8.261905417746915 4.5057317525047536
Fe 3.560321510314213 5.672533454993323 5.803821392767374
Fe 5.983290902154664 6.016082553975224 6.255321454383994
Fe 4.024657047382734 7.868123446889653 6.5567905473866475
Fe 8.061087446767345 7.620967797791127 6.704249304368229
Fe 6.745425356456842 3.4179009243686824 6.714232611858059
Fe 8.211817222221685 5.264820313983168 7.093966377394473
Fe 4.407202548735053 4.254944835051785 7.484864259715433
Fe 5.986547999923475 8.492324708253857 7.699739242480158
Fe 7.001508410661943 6.742633693138586 8.751213563114645
Fe 6.3885663657375495 4.572261589966813 8.660466304275205
Fe 4.665156119895157 6.437585219782852 8.325493356897761
