10
Energy = -62.3902492 eV
Fe 5.589373695060326 2.767147642627567 3.1629732070277954
Fe 6.451501405324733 5.605174168407712 6.313931550755803
Fe 4.523280502461366 3.94713757657406 6.274342710904499
Fe 6.134514209930552 7.672873204046966 5.102937508214004
Fe 4.519662536969851 6.007170506064764 7.6458050708985
Fe 4.187891540353928 6.262845003979415 5.2799999728926945
Fe 6.535917211795174 3.631290627316433 5.120329657475077
Fe 4.092126540275349 4.381247074952039 4.011999431028702
Fe 5.301142073043425 8.045107878383744 7.164065625661597
Fe 6.109454093671882 5.549416113534952 3.8522773613693437
