17
Energy = -109.74911307 eV
Fe 4.538388826049955 5.228382254059868 2.113135894495594
Fe 3.505857028472844 3.5156332422414476 3.3921137132738943
Fe 5.948841941090113 6.6570082065873715 3.385001354208899
Fe 3.71795684878176 7.326694666061093 2.8128185587399943
Fe 5.199403129548183 4.735108100457992 4.38106064392522
Fe 2.288095415283792 5.447520850951713 2.910411981000788
Fe 2.8110701864674126 4.883304122639459 5.173765735244559
Fe 4.427007208653775 7.0135451163800715 5.086518695199912
Fe 6.652513493600299 5.6799576890208305 6.458572160242854
Fe 7.4969335589648445 3.966796851310164 5.028779864561433
Fe 5.608763040868475 3.385836436957778 6.330614240786633
Fe 8.989312728162263 5.26669869722829 6.426860195607156
Fe 5.888865878153967 4.515114522157053 8.470004026370267
Fe 2.185014704030097 7.043496182636112 4.620318779069963
Fe 4.320685525944146 5.448637142704291 6.825053394229029
Fe 7.724583121375242 3.5092831661872057 7.3798321625774825
Fe 7.949946198932135 5.630221586797451 8.458377434844522
