11
Energy = -67.416773 eV
Fe 3.5523622581281606 10.071647708377947 8.000354186322875
Fe 5.791849948185424 9.194602162473013 7.518251131293098
Fe 7.615860777667507 8.564934121032978 9.019270878277815
Fe 6.466918924144446 7.4982275475989155 5.886044863313759
Fe 7.237938458449336 5.473228857780852 6.842457333090393
Fe 8.791454375986643 7.125326700143622 5.700889057623545
Fe 8.06848171304466 6.245167728638827 9.101016432745562
Fe 8.090179135558213 9.162205061577001 6.676011472661605
Fe 9.626411575961955 7.901812188608683 7.96795699599472
Fe 9.5698864916144 5.588677250007162 7.357799815925471
Fe 5.952105938283464 6.877378155599067 8.250642271451028
