14
Energy = -91.93197553 eV
Fe 9.38856371720912 10.259664205132475 10.702570232332157
Fe 6.881411227180079 5.7851452090788005 7.876689930627401
Fe 10.50515539845048 7.906035012630269 7.7125887463327825
Fe 8.274916613060102 7.645450244431563 8.296909916520125
Fe 7.385854938612745 9.295644367425906 9.81972333392109
Fe 11.233070734291168 9.522043725930061 9.315975824737398
Fe 7.214405150712043 6.913683861450945 10.118816081310564
Fe 9.645541422481031 8.040421468394483 10.157011168842368
Fe 5.740650412025857 7.774926423666004 8.521910159532322
Fe 8.823500936300732 6.419609051701771 6.372220655687156
Fe 8.934849334593196 8.791426655164534 6.180424620234993
Fe 6.741341158151602 7.47781077249032 6.284201907949456
Fe 9.204039864797773 9.981236728727984 8.325547884036158
Fe 6.948241274379867 9.55779734348399 7.402183106997242
