12
Energy = -74.421331 eV
Fe 10.155344439343407 6.29814016568352 9.662091558592182
Fe 7.81645733791753 6.01539633325139 9.656085305141891
Fe 9.960833360275345 6.478332178759835 7.313541924673408
Fe 7.577959834038063 5.889939420993362 7.188996604504765
Fe 7.2301189692393155 9.766393039348259 7.643495709521666
Fe 9.272891459611708 4.54640662560315 8.510487282289034
Fe 8.317347420677493 7.996149218675976 6.302926963270741
Fe 8.713094955920885 8.09953798760248 8.663945818231035
Fe 5.958151202843008 7.313279502982634 6.011846161977401
Fe 6.512016253010277 9.532476326289443 5.402334305738324
Fe 4.995285954859893 9.202803244203674 7.080069992499911
Fe 6.394330131865077 7.575096714437259 8.422996899480038
