11
Energy = -70.07045915 eV
Fe 3.8431467806402093 4.618508568810692 6.285518181969073
Fe 6.0528752477572665 5.210797185014727 7.091999157005072
Fe 8.094161626869255 5.1006747345181065 6.124517842457734
Fe 6.562262704046537 5.58665206139167 4.398042881452461
Fe 4.071407645331025 5.176889124641205 4.06051250853846
Fe 5.910750353790516 7.294327345487652 8.063047853717995
Fe 8.040022872018204 6.645495893594635 7.853945770794118
Fe 4.561563969071902 6.8199321255429135 5.99237627272755
Fe 6.898958271249385 7.367377082369521 5.874936473543513
Fe 5.103101030913689 7.22208619054135 3.8320735056163207
Fe 5.585991063078607 3.6815012528550324 5.1472711169445695
