12
Energy = -76.71610907 eV
Fe 5.693539617370738 6.480740922501024 9.27329204326694
Fe 6.045217731053691 8.698424372148079 8.524904842110045
Fe 10.464737931496659 7.404264074756218 7.595506930916452
Fe 7.915134017187497 10.188015084769939 8.087914840172807
Fe 9.545829103867774 9.293567686392837 6.556950329662227
Fe 10.014318964056944 9.302366165320311 8.826574276961288
Fe 7.062635491821734 8.801932726286076 6.384580053965086
Fe 6.575957658267658 6.593907791234448 7.092642295783493
Fe 7.838494705747567 5.733738523921548 8.939463846517715
Fe 8.332225439982675 7.811836688665444 8.333383119688863
Fe 8.689347862317224 7.106651169517299 6.037683509430066
Fe 7.326570024637903 7.701839666372422 10.298727475308636
