14
Energy = -89.22851183 eV
Fe 6.1632375363595795 4.37919729754769 5.994373690298228
Fe 6.547932090460095 10.585529555298914 7.671840876594052
Fe 8.226291005500622 8.79052724473309 8.00669238208224
Fe 10.476588727563575 7.666529023973773 7.391246458822423
Fe 6.664555777609533 8.817311088709884 5.9545494371890735
Fe 6.284696069877498 6.775029798904722 7.12732015989749
Fe 8.35537428432529 4.961263495467903 6.1089741308270495
Fe 8.62964319192877 7.403451809454292 5.96470804755488
Fe 6.79229775447396 7.1561814717482815 9.411496556270603
Fe 6.807487654386392 6.436333402070033 4.854111006248518
Fe 6.609157146525826 9.571395810221158 9.7635077583144
Fe 8.658476898954225 6.321175047314684 8.082185451549947
Fe 5.214941611550447 8.768915401703413 8.131869496372241
Fe 6.912917734783977 4.771555549070318 8.204963484194003
