18
Energy = -120.33171867 eV
Fe 4.040386516665655 5.982073528308386 5.911515534871326
Fe 8.737947040599046 4.6413022722641815 6.607262824469825
Fe 5.6085160768292885 9.912436673843807 6.096145494728062
Fe 6.433217277391376 5.503272397500517 6.538864550824324
Fe 6.551766645486077 7.705640773154131 8.832699444815454
Fe 7.534804020453104 4.467069560022597 4.597320545482794
Fe 4.6027088849182665 4.010220045898883 7.343912335393481
Fe 4.446508412535541 8.215683189015985 4.743505774561065
Fe 5.799232013277526 7.726344660258406 6.601141165591654
Fe 6.806160099461193 3.222716034379056 6.832877428940308
Fe 6.76628959678598 5.020997230698439 8.700933047697585
Fe 5.896847033118374 6.352706923828095 4.328064984704096
Fe 4.669981966688718 6.203962204703185 8.204663106167068
Fe 5.244414265043358 3.9553884217011195 5.009843910300344
Fe 7.803695138932351 8.96983223745739 6.566609723204744
Fe 6.805749827428593 8.721692923503904 4.416652611712634
Fe 8.289622230202664 6.722360537438489 7.571951430070592
Fe 8.127100807860046 6.831248239700849 5.26098394014222
