19
Energy = -126.52374274 eV
Fe 5.494767232886175 8.925684949742294 4.895612004250109
Fe 4.108812770706261 6.936156777463918 4.9706543379471215
Fe 7.5637717384926875 9.797717940002483 9.203683106561643
Fe 8.69965063116928 5.602586929070351 8.320049432002621
Fe 6.331848549959671 5.781399891334075 8.400651006771813
Fe 5.6711204420631685 8.433617827975738 9.01989892130186
Fe 7.27236753934893 4.4348789633277175 4.594953956694844
Fe 7.747092321361692 7.8129527315152565 8.075322929667664
Fe 7.359278486434102 3.870488040895082 7.049089776598285
Fe 5.033902390511976 5.0174501855405556 3.8422559242005603
Fe 7.730778345852555 6.138697149614409 6.196085391580427
Fe 9.625073258708817 7.320499965690387 6.846991773031129
Fe 6.313371483484052 9.82229594541879 7.229074617955316
Fe 5.369050185547278 5.313034564998691 6.19283978478683
Fe 5.248128909541666 3.6542398888486676 7.879454631259848
Fe 6.479588910362199 6.865669954019857 4.301448001723756
Fe 5.541332488221766 3.1347426807059273 5.472087662398319
Fe 7.76112800969701 8.55336686092805 5.71609251400328
Fe 5.6343264687952095 7.569908916051828 6.77914439040921
