15
Energy = -97.00375762 eV
Fe 10.632692291997957 6.8751411301990775 7.129114892154287
Fe 9.795114716473691 7.5884038736131 9.324461995031257
Fe 9.978349311427964 9.069250960025448 7.351174319139452
Fe 9.284362727624508 7.802534261876241 5.399884742392553
Fe 8.381802087392053 7.007788123464447 7.510423455852363
Fe 8.220146369760528 8.398540165737906 10.831029920154993
Fe 8.152446652484082 9.315536640535937 8.761967733102203
Fe 7.614732677233286 9.083113169926474 6.3613597285141745
Fe 7.4158925785403165 6.720956169873854 9.597733044252346
Fe 7.0997042615272274 6.753122046721271 5.5594436234558495
Fe 6.155321090120851 5.802046911047604 7.56948628804448
Fe 6.220512947500922 8.08218757624428 8.167215382860935
Fe 5.221873228892447 7.962131146238153 6.016941332510772
Fe 4.164361557075996 6.8913675562372045 7.709082440344271
Fe 4.865379695888677 5.795346962917363 5.631060455669697
