16
Energy = -105.17651493 eV
Fe 8.117550534969563 5.002183011672726 6.503894573994298
Fe 7.771658891713254 4.790952706012099 8.718281999342466
Fe 9.109521432521836 7.005635857919496 5.891744864931057
Fe 6.695164832607595 6.537781011331412 9.815518535034686
Fe 5.430120597146053 8.806845491538743 6.6801742505995865
Fe 7.598479667137947 8.753233451014998 5.509435748857817
Fe 7.244464240847235 7.300079861200332 7.623201092817321
Fe 8.185990354412368 8.523806382497957 9.505107717881414
Fe 7.352900549684368 9.949071449747759 7.549092720769791
Fe 6.2954176077009825 6.611411697934275 5.671559330228537
Fe 5.905970975919016 5.12821947942025 7.509686556343183
Fe 5.909857389894044 8.808428565855872 9.147279167586357
Fe 4.784962967282531 7.0795218118674486 8.06939571916079
Fe 9.890973436724325 9.187984188673207 5.1841251195249205
Fe 9.381823176956997 8.818785438047817 7.411459592066083
Fe 9.271273231959384 6.531836495294406 8.39979140500933
