14
Energy = -90.97856225 eV
Fe 6.937225570614364 8.918042443298486 6.515251751992655
Fe 8.283781207989502 7.266020121187336 5.290008534619275
Fe 7.084736486519856 6.814475024345107 7.430451323679049
Fe 5.800761802891103 7.420113122377982 5.1879128968885215
Fe 4.862025339020003 7.944444424354175 7.428981962036016
Fe 8.828825479282203 5.4363034922248925 6.843774091380899
Fe 5.479362586521099 6.097564804775701 8.921160890438484
Fe 6.888193638184702 6.347612277146711 3.471672450479819
Fe 7.073239073201098 5.092786909601537 5.3971108145316045
Fe 6.814774079324067 4.365895607733136 7.771571209827755
Fe 4.847410210894553 5.533759394590587 6.786179806071861
Fe 3.568932264390223 7.000783962548735 5.559488184563268
Fe 4.835421433732162 5.292571321526847 4.31328044931554
Fe 5.481395080937269 3.508932195246363 5.897983665739539
