16
Energy = -102.98747658 eV
Fe 8.520157535120179 5.034370025306535 8.854072760205229
Fe 7.919020848144327 7.437362265582768 5.75492874537615
Fe 7.2284497248134265 9.638881410691 5.519219178217972
Fe 5.1360908879459295 7.135087948766188 4.418492650538885
Fe 5.125496202119605 9.414777050643615 4.761388949455165
Fe 4.347235284509752 4.609334499541681 7.001864337929655
Fe 5.032596480268778 6.469785086292383 8.528061663054478
Fe 6.292803446204667 3.8499685503035628 5.696736346237052
Fe 6.404045690158763 4.447352898479748 8.085245013549182
Fe 7.386497481265872 6.893360612245589 8.0517315315267
Fe 8.164077746749571 5.06449300672163 6.419577410234227
Fe 7.100760500242478 5.712865105082359 4.258018087957767
Fe 7.065306441109186 8.180284505588876 3.649722631812489
Fe 5.771492368922307 8.30676281820934 6.758576378835439
Fe 6.720701653385022 5.84084679423885 10.036720972195788
Fe 5.88366743776929 6.062867151034462 6.304043071602557
