11
Energy = -69.46706761 eV
Fe 5.705367291997319 8.235607935246712 9.614265011921743
Fe 8.978277683496552 5.890884256224234 5.715003450744825
Fe 7.263253426009165 7.323858498665934 5.123874960864231
Fe 7.6929472550954765 9.071956069604465 8.813446281253151
Fe 7.530174931233869 9.310538839383042 6.335421511322382
Fe 7.607816623893428 8.15541173851676 10.929305856631196
Fe 7.162642669583951 6.4125258194353965 9.142250754318495
Fe 6.166526221576962 7.639574715716844 7.3490014189268145
Fe 9.232225190940461 7.259031521242172 9.608382975684579
Fe 8.554717243365351 7.3887381452337975 7.366634927253783
Fe 9.395435465491953 8.149174773203658 5.277933140924633
