10
Energy = -62.5829164 eV
Fe 8.752215489570128 6.450555209988407 5.7580588394360745
Fe 7.739641619413648 7.7653244332474625 7.594657989986503
Fe 6.946180924790512 5.632007014520214 7.290133185468696
Fe 6.615578259834962 5.401092412842527 4.946411401922232
Fe 6.641769813186822 7.706537784665766 5.549738495723322
Fe 4.514792218390358 6.827185797236778 5.006163378390077
Fe 5.387113706734378 7.462878999630372 7.48395213865527
Fe 4.448194803773715 4.5443719138045005 4.535037739347566
Fe 5.775598699201926 3.6563425294712886 6.241032320094655
Fe 4.4718337115924305 5.409020513111778 6.823854566810614
