17
Energy = -105.9343361 eV
Fe 6.575014058956012 5.788674084362756 3.7229776314211596
Fe 6.659513803364827 3.679826157349286 5.033919029230633
Fe 3.9343833172648544 5.721861807999345 3.6029941511251975
Fe 5.416913660251189 3.823993436320849 2.9571144300621506
Fe 3.097538106574606 3.3547652451381693 3.1984331229377383
Fe 5.261925149795468 7.469269930699638 4.987147939678611
Fe 6.241945393091514 5.656430274919912 6.238173047735557
Fe 1.853536888884246 4.827422548768425 4.549713353504137
Fe 4.720751593538206 2.180095825591134 4.545997438550054
Fe 2.4415208351583404 2.619317217234884 5.344366567116527
Fe 8.471531549274054 5.254374487342548 5.19566563918386
Fe 2.204446016820878 4.376132503185641 6.812908085445214
Fe 6.454679818083427 7.817776206269399 7.046472774842296
Fe 7.670032699487018 7.4650854208691175 5.064226265685144
Fe 3.3684485239147395 6.212667389264349 5.891554919143863
Fe 8.29694545649309 6.4830041292092755 7.133065386397982
Fe 4.225998099101003 4.16442830552921 5.570395187993822
