17
Energy = -111.3791588 eV
Fe 4.554129982435487 5.107580174979489 8.762239163562132
Fe 5.7832217553060214 5.438993313700855 6.806161516829508
Fe 7.562474950932993 6.866034155940657 6.520565739037261
Fe 5.732868393573792 8.80899074662969 7.782927034761514
Fe 7.630548950563838 4.685766701204167 8.062007592593718
Fe 9.448198428581449 5.111181087278497 6.710764540104281
Fe 10.133432642807591 7.3097153388038905 6.836930912311415
Fe 3.5004332075847264 5.768494423386667 6.807702942520092
Fe 6.3777572004878085 6.705088972150561 8.644663599337465
Fe 6.8150822044430726 7.510781635625517 4.370419210099337
Fe 6.66468197500074 9.363320574521868 5.7253574540196315
Fe 8.90119769256696 8.754250853364024 5.434662902699964
Fe 3.955103012014015 7.289928980215224 8.396078949104327
Fe 8.975802432025416 6.468464358639287 4.772927428636784
Fe 4.97921167773389 7.578733183078301 5.992251160539155
Fe 8.883077527237157 6.545164566907748 8.681534804327951
Fe 8.148440430822154 8.733173397690965 7.738467513632292
