14
Energy = -92.32088158 eV
Fe 6.510450228497283 6.557296828464277 6.531004319469898
Fe 6.878671864266685 7.505661455816291 8.75162553795276
Fe 6.53405579577903 7.803424853384117 4.702649310096809
Fe 6.4808342276551985 5.192894171780371 8.519601029266147
Fe 6.742402471024241 5.179083048582594 4.527611570071567
Fe 8.229177478933403 8.292403269594029 6.6665093134576034
Fe 4.468547032267214 8.057266187221357 5.77764833465793
Fe 7.8022503194489365 4.397074789740368 6.543252422856663
Fe 5.392894628094869 4.3788769491384665 6.601251125468379
Fe 8.66273830695183 6.207556261099822 7.785631801898803
Fe 8.585104031727317 6.423882801778083 5.287382888993891
Fe 4.613323442486918 6.681708013575499 7.661228226061624
Fe 4.585085303905079 5.893549094714674 5.0375282817828095
Fe 6.056005583736868 8.970862989884933 7.1486165527398695
