13
Energy = -82.33047406 eV
Fe 9.348010648032231 6.775032731766146 6.920969738373868
Fe 9.385546479317421 5.457131605047044 5.232550179447041
Fe 7.846733461671583 7.165250729944809 5.235317533416234
Fe 6.916161600671007 7.437355100744697 7.4500397370021485
Fe 7.485235609817762 5.2693845554057965 6.718916330397078
Fe 6.9394136874440076 5.07091939133178 4.428677857442675
Fe 5.527766668167734 6.6840041750593056 5.634518077328825
Fe 5.443259196117508 4.154750719184977 6.04061557084158
Fe 5.447290774729279 5.713294011351898 7.985938544317149
Fe 4.178174658910563 7.619742833209324 7.3336380142061355
Fe 4.235187655546319 5.204615943383609 4.340717677642687
Fe 3.1837598349659997 7.193328648868021 5.3469934591236825
Fe 3.578396719250895 5.43589659667774 6.633734999226655
