15
Energy = -97.27368037 eV
Fe 4.695729386044446 6.765294361410064 6.865141222249845
Fe 4.972641748899582 9.003461712022597 6.8841909135126
Fe 4.862037733153582 7.5786182352466565 9.021717549377009
Fe 6.556221359837179 6.137358787235733 8.086264337167824
Fe 6.590459922214266 7.4792415837278785 5.712274231132754
Fe 5.778058685918142 9.683483055209447 9.02796886354246
Fe 7.0692323854272745 7.76741966027479 9.863556028630923
Fe 8.703780928950005 5.981261082149016 9.14537485328825
Fe 7.135229986320724 8.61037404683469 7.641074666632013
Fe 8.437581193546244 6.52890799572987 6.814105840959371
Fe 8.779895504797988 8.733940086527737 6.022333362467361
Fe 9.159429674174891 8.238542405443575 8.69766521136939
Fe 10.686566637555828 6.356493275364648 7.898115579653248
Fe 10.847683870902658 8.502336310663301 7.151832326852233
Fe 10.306799638240747 6.883677649620077 5.6089269284712975
