11
Energy = -70.47734276 eV
Fe 6.353973466372152 2.7904209326647225 6.849389803230668
Fe 5.303057800638266 3.8847469113774658 5.042245758253645
Fe 7.584087230894149 4.357663185642367 5.807523899690495
Fe 4.485256564985449 5.745231733733256 3.5705274759895826
Fe 5.662221137043793 4.972159144487034 7.287158387898818
Fe 3.8542013625984737 5.628764961374366 5.822787154229512
Fe 6.245852137060164 6.0893373633893475 4.959707051547594
Fe 7.413886754180613 6.526603022253114 6.99636286676137
Fe 4.560382464269491 7.806575811501063 4.734369559416209
Fe 6.792056613300022 8.250073916472893 5.417898018630444
Fe 5.173051449031971 7.376449997479328 6.94005700472606
