12
Energy = -75.8206613 eV
Fe 5.780765550635288 7.809091418766046 4.586762628095337
Fe 5.877152826771759 5.632385076479509 5.1276803172978305
Fe 7.011643263927566 4.992097191264665 6.987475608306467
Fe 8.094231624257139 6.528965399685367 5.139233889994067
Fe 7.803127758805651 8.82945970687412 4.8136970536728985
Fe 6.651769896718724 7.5689805434005235 6.631553980593078
Fe 8.781978328942696 8.558591083146451 6.849046926046199
Fe 8.833794996687704 6.403852770513059 7.487087734933998
Fe 5.192668087116355 6.300292234717517 7.659899886800203
Fe 7.236821408874273 5.790503932735391 9.2111774480392
Fe 7.154551702075535 8.01656614956574 8.756958967536779
Fe 5.318492192761144 6.91922114269143 9.783596363984044
