18
Energy = -116.94525405 eV
Fe 7.596883969565397 4.755997986057152 4.45888889744833
Fe 9.512529469273453 5.742724843493517 5.3641327363188385
Fe 5.470539018533924 3.859455404133258 5.560613135880943
Fe 9.375627961433434 5.938981885297469 7.610860099409317
Fe 7.681988990387707 7.010573370868268 5.979807483589843
Fe 5.733215412949474 6.096299143872911 4.888479134099475
Fe 7.4522911793457025 4.765768958621895 6.776991292850387
Fe 9.620171260154123 8.18499340745835 6.559322645490278
Fe 3.8266651250138293 4.974030281762095 4.107374328205022
Fe 9.353842202108074 8.123461429097299 8.707703962041322
Fe 3.484961827753442 4.962819366771426 6.348209005205103
Fe 5.397093990448042 6.001309603921958 7.24845000925828
Fe 7.329636255762962 6.909359779335535 8.377935711268226
Fe 3.642260227524176 7.162000268283625 5.210980673013139
Fe 7.385817093366007 9.042331554783003 7.51910763217311
Fe 5.57299309086358 8.237035298296316 6.330779951233221
Fe 3.4351234201631 7.237577355215984 7.497240764135961
Fe 5.316016836494882 8.18293739387098 8.64077986952052
