15
Energy = -97.49697728 eV
Fe 9.957527382780206 5.516459352820327 4.7275905275616585
Fe 9.839032480024864 7.9824876575059385 7.849244737435554
Fe 8.87319729599575 6.512599306695501 6.269431902270074
Fe 8.666101186306003 8.827136317036455 5.899020700102274
Fe 8.289629807917345 5.796497301171121 8.542206230088734
Fe 7.830478538644743 4.664747833251411 6.089427337471945
Fe 8.354055577583342 9.952437834969125 8.121408185397156
Fe 8.273359459158204 8.22204837156469 9.835154664234901
Fe 6.588181964628652 7.019734895770418 5.691888559961359
Fe 6.2535955245512564 6.886586075451208 9.650867583928186
Fe 6.406909083254766 9.609370945915389 6.70247426314816
Fe 6.1200397063551515 9.222769661345648 9.135312123281635
Fe 6.138136249985188 5.608873934940957 7.561279227389851
Fe 7.4248424520252945 7.737195753196377 7.700295856551763
Fe 5.020265798003673 7.810975841373893 7.50567405350514
