14
Energy = -91.01691258 eV
Fe 3.1680718030459487 7.871344177760739 6.292775143409115
Fe 5.169420993676852 5.313731374712625 3.716587247870072
Fe 3.9923322021696426 6.047458478977912 7.376514374219977
Fe 6.953148624907034 3.9003411790998856 4.389832614946108
Fe 5.236690176804695 7.161425120531393 5.497747477355026
Fe 3.33335237129883 5.838116102667253 5.118271556568002
Fe 7.171993342941334 6.115222988778916 5.108661324599717
Fe 7.458999703628888 4.185741899996461 6.675346582485525
Fe 8.682112142243417 6.186073362051056 6.931314871704628
Fe 9.044440818908985 4.723614729625092 5.126055889217866
Fe 5.196612737588356 4.537232083287263 5.917447005409292
Fe 7.277569417435683 8.089171587960859 6.764716300494281
Fe 5.069464820669193 8.131651023715676 7.6475852549703704
Fe 6.382700669189879 6.1022932805252035 7.658162775079087
