18
Energy = -118.2299049 eV
Fe 7.192948239890762 5.838490771962807 7.013703506689342
Fe 7.793181099779039 6.467475289713057 9.365915407996212
Fe 8.488513260616925 8.09558571078278 7.612154274090656
Fe 8.12556179377148 4.931442461736075 3.9874498037454673
Fe 7.355697068198344 8.828039311868862 9.651449126916823
Fe 6.356994693613899 6.470435707489348 4.302996611391641
Fe 6.0911479033298885 4.5561995785482265 5.551939220155802
Fe 5.051520356824469 9.529712350816869 9.03949110124755
Fe 6.019446112701794 7.518888120429876 8.193970822475487
Fe 7.316262391963942 2.8604098841137184 4.672498118496827
Fe 6.799748273799441 9.915702344542185 7.531239598044634
Fe 4.660439180092497 9.030087982843435 6.639256656375446
Fe 8.600224551656805 4.175242697122724 6.137765870321896
Fe 8.772457768085927 6.693620060765147 5.4271766127007846
Fe 6.814134198230589 8.141958908793876 5.864260610929161
Fe 9.424585951883538 5.9646122218207465 7.720545029247281
Fe 3.7410302409112237 7.657160948765466 8.283140969887505
Fe 4.87834917506003 6.625854663728317 6.230590319286797
