14
Energy = -91.92916141 eV
Fe 10.973953212190558 8.333462000869677 6.290779367234361
Fe 9.265544058092974 6.810237182191015 6.534613600140277
Fe 6.537636796369696 9.75955960333772 7.392448874805785
Fe 8.339874829853946 8.072628322697899 10.344218165303545
Fe 10.179584210427798 8.302639292281183 8.43021413480484
Fe 8.543419309365303 10.034695069486842 8.811667805978916
Fe 6.2171468942600665 9.039713590071832 9.690549602288856
Fe 5.374140014242384 7.684816364203825 7.900829977567305
Fe 6.541793929869163 6.597019202442818 9.775219987404993
Fe 7.232943870795522 7.8695686873356765 5.885086775798664
Fe 7.774658356260859 7.954672188623048 8.127898223124065
Fe 8.944580759852592 9.451590554249634 6.490301862178354
Fe 6.935459239522148 5.922863729579525 7.50895772568882
Fe 9.067422954749064 6.180202432198502 8.834586948173296
