16
Energy = -103.71195812 eV
Fe 6.9556518519964685 7.997960766150363 9.817699581306822
Fe 7.666683070946034 6.7310177744386035 3.5312901319065144
Fe 5.395300406768595 5.55526114225599 7.077440718782864
Fe 6.851639161105804 9.164321804244635 7.727577833892327
Fe 6.3069972447060865 3.808716159779214 5.808407160546126
Fe 7.9288913709188655 8.17094824619971 5.704725192381972
Fe 5.10125558640161 7.488484575142779 8.596600778234727
Fe 7.676423473156505 4.389617264882646 7.736062972734199
Fe 7.529443375343984 5.863414103668762 5.748981818539435
Fe 5.724590240502258 6.800612311000995 2.2819099227049477
Fe 7.560286859508567 6.880814184455042 7.8606108877220064
Fe 6.2729376690758105 5.55749533700156 9.368727490566814
Fe 6.118826444786096 8.327731733057872 3.969300970332031
Fe 5.598833561410536 3.4534871742406517 8.041860411490777
Fe 5.73421074429152 7.7702691411883995 6.267780398718976
Fe 5.585860680518851 6.047680023730073 4.46885547157734
