13
Energy = -84.88562949 eV
Fe 8.264738868878958 6.49967355725307 6.385707904710843
Fe 7.16631320851188 7.584077574061565 4.291119612109319
Fe 7.692991879171453 5.29756372223838 4.387414897066899
Fe 6.527475010698541 8.190726278409294 6.547637796022829
Fe 7.4425083773397285 4.30656739827186 6.86356947724819
Fe 5.446846332172665 6.179027509898022 3.4683750064407213
Fe 6.4976982810469375 4.108519506908611 8.902522799915964
Fe 5.974188000504431 5.878215391260815 5.768157805716252
Fe 3.731507626282091 5.920242187163466 5.384302898326619
Fe 4.79355821035513 7.958418976754717 4.882431122954241
Fe 6.655989038374661 6.326696999055999 8.209860188383303
Fe 4.806399027864788 4.715640130229409 7.540752939920636
Fe 4.5111344640871165 7.08306029517165 7.327768925055812
