19
Energy = -125.68707124 eV
Fe 7.066509083885425 2.133296620958864 6.626054292122338
Fe 9.468655316230224 7.831797678395251 5.12891077244426
Fe 7.662552627891677 6.55684182611612 5.248333289362802
Fe 5.394997428204991 3.6284325807034565 6.272436982536149
Fe 4.122264225426565 6.962209830505546 7.855923658574515
Fe 4.070622935131564 9.067238914254515 6.855661734078812
Fe 8.948369336788579 5.748661393005797 6.90748111826224
Fe 3.6595713160262195 7.378014778924217 5.2912393354129135
Fe 7.118301683468827 7.901994354153133 3.630530531570384
Fe 7.394583736889823 3.988264321907336 7.945043361792498
Fe 3.6854066977537 5.2937865931033175 6.328661288419009
Fe 5.539741579332066 5.671063612224656 4.8283969547047585
Fe 7.687722500414188 9.349948763420619 5.353831458787208
Fe 7.593001624474747 4.18889752035506 5.593885770823139
Fe 5.826674973023383 7.982435434359578 5.7945695643988815
Fe 8.080357366850125 8.008375184831047 7.172529127694423
Fe 5.9450119784471696 8.348287226644205 8.128780259358301
Fe 6.357992710393546 5.958286911652129 7.241282713322748
Fe 4.9224740486259835 4.546977623743826 8.341258955592727
