14
Energy = -90.4355215 eV
Fe 8.168701270992399 7.580037109876675 4.846578980845647
Fe 8.8419616699493 5.65875599452928 5.985963616260882
Fe 6.675254906179973 5.700919925979106 5.437758532069286
Fe 6.6154368413844 7.805438586969987 6.74728682883073
Fe 8.248180670956263 9.60516991874275 6.28035653481286
Fe 9.772484967156734 7.902175050125377 6.421386472113522
Fe 7.130185066971258 4.7181759645736925 7.500490042798688
Fe 5.1829022299382395 5.896307898776872 7.390634022344284
Fe 6.735869060302 9.792784567542165 8.211366391116854
Fe 5.172563773246268 7.965767564247235 8.752465602262433
Fe 9.004196416621104 9.205142151832963 8.383167046476789
Fe 6.274505942478184 6.079882479010651 9.387525441883644
Fe 8.13141911857967 6.925771290033442 7.992977041813042
Fe 7.209835659428526 8.32716909194487 9.825541040555397
