15
Energy = -97.51479072 eV
Fe 6.677387832263627 5.77940134828642 7.575728390874821
Fe 9.110755027980357 5.60746361192077 7.674756348893251
Fe 4.307600207180891 5.485055722041053 7.558761677358647
Fe 7.961704843655915 7.882356070712473 7.620387386507453
Fe 5.27410138894379 7.810959092911145 7.618398051129067
Fe 6.51985067410581 9.7041294161803 7.040871424281763
Fe 7.7862978771427676 3.6919933637965245 7.752737692540449
Fe 5.57390651630991 3.6678748382605515 6.858552339904048
Fe 6.528340600345163 7.0230053922155555 5.550819068412271
Fe 8.841977208525275 6.7813898437004125 5.761029868268181
Fe 3.953241921441742 7.0596981931650475 5.893140246712444
Fe 7.731166912502329 8.98369508511036 5.285895685319303
Fe 5.30331842462959 8.947342443005605 5.253910042360058
Fe 7.565144817965153 4.683248869162089 5.670065516444204
Fe 5.167918858932879 5.195099928810413 5.187659480272728
