14
Energy = -90.35379557 eV
Fe 8.115115801629688 5.838101799409847 6.155700320974463
Fe 7.199289033717911 7.762662487463571 5.241381103741393
Fe 5.837949696928115 6.203547572315105 6.593131798376554
Fe 9.155388725266466 8.18801453791965 6.4056496017683395
Fe 5.185078533411285 5.0810925664205815 8.469056975523873
Fe 9.593035940990328 6.427414923841199 7.845454657206488
Fe 7.458283228802271 5.300555372630047 8.349370975886105
Fe 5.8760044204322925 7.203553807530319 8.929294010853456
Fe 9.80135773282342 8.495990207099567 8.83910969358088
Fe 5.6247378317678 8.572018055801836 7.0439739788062585
Fe 8.083492140457015 7.200651215183304 9.713681647491525
Fe 7.301685951414121 9.887222319207856 6.122530293317394
Fe 7.415805403827062 9.137356758811604 8.502042362957837
Fe 9.157442794028722 10.214765580247073 7.445982282664442
