12
Energy = -77.83488253 eV
Fe 8.446630136747862 8.663446143355555 8.168041222616516
Fe 8.124808351552035 9.46482433875896 10.23441170415624
Fe 8.32593440641835 7.138055832434364 10.181122181035198
Fe 8.127877192365315 9.447192667417193 6.085556028144797
Fe 8.328826106827501 7.120517914620289 6.15922018137902
Fe 9.599561809944834 6.408609737921559 8.170292421374883
Fe 6.812404869522217 10.199288057442818 8.159807404949099
Fe 7.188902329703618 6.4392231191440015 8.16804122261652
Fe 10.242205895472873 8.261705879096054 9.445339225901321
Fe 10.244006435025199 8.250249120655404 6.8874862390946365
Fe 6.271994710804338 8.293897132877106 9.40615260633036
Fe 6.273768755615638 8.283228975229783 6.921447562401289
