10
Energy = -63.39359063 eV
Fe 7.567299685894971 5.59163720722359 6.975959472987401
Fe 6.639068087282039 3.5142070110369823 6.041763661272179
Fe 7.8812793938114085 4.970001446397647 4.724484142637648
Fe 5.446940514956086 4.8314128294744 7.557637072482154
Fe 5.623808798379376 5.328254952307302 5.131331722889845
Fe 3.669019598990206 6.042188411359641 6.418334165114767
Fe 5.591586816091094 7.162934976299629 7.009675272353571
Fe 7.225588635483683 7.173931819782779 5.278650421166219
Fe 3.65591385690005 5.8925579634635055 4.1505780316615315
Fe 4.873850418857541 7.667229189301249 4.885941844081268
