10
Energy = -61.42252697 eV
Fe 6.764177534415309 9.242696164811875 5.748243434318767
Fe 6.798206066296252 6.976735152890841 6.659459409279219
Fe 5.355580714635823 8.54563958153514 7.442449267387313
Fe 10.561672746009663 7.582179701314071 9.651995789714286
Fe 6.525983458872077 7.11952215808937 9.162028424237187
Fe 10.006269982155523 9.053760722914511 7.991663851131206
Fe 7.506374439031535 9.19379285574324 8.05566507915397
Fe 8.760452131593507 8.092057107349692 6.119371718032226
Fe 8.650607480537586 6.7355397182199575 10.510025025414366
Fe 8.666224431240577 7.164707192693733 8.338764698549761
