19
Energy = -127.95929581 eV
Fe 6.838049720628848 6.773895517214395 10.183652869863328
Fe 8.955396011639282 5.655499672704033 4.95003897165852
Fe 6.8675638809056245 9.467862719303385 8.813027927226745
Fe 4.8590349467064575 5.4808850463753895 8.467075079363928
Fe 5.45449467069044 8.48921217031924 5.161271905679199
Fe 7.635438833217534 4.007503314933359 6.2912408919274485
Fe 4.915900479463408 9.229848351753683 7.313241510712104
Fe 5.335961437046382 4.5656817620056325 6.323317694155806
Fe 9.253828637962254 5.6669351506674275 7.227481307498651
Fe 7.270936810530651 9.056835937970533 6.53706554804105
Fe 7.157121750739214 5.144643152368217 8.334023980778637
Fe 6.91940203813636 6.501998844794569 6.364795756912026
Fe 9.166660231509711 7.815827215328069 6.010600640247706
Fe 8.36505772810862 7.557594517469697 8.280637754783626
Fe 4.983221808653707 6.239447375407996 4.616154365669744
Fe 7.400271466449632 7.451853622446657 4.291136084055587
Fe 5.961883278353633 7.458930851088382 8.316348907318266
Fe 6.867622057188237 4.985842467824266 4.259216212423894
Fe 4.241044416639189 6.898592514594102 6.7085627962527745
