18
Energy = -119.19204634 eV
Fe 4.931887239764323 9.51316490617522 5.230138053399676
Fe 4.160840970844345 8.965600594287965 7.44689033343385
Fe 4.5957482956544835 7.5762632224011 3.7821008250142154
Fe 8.605517730895523 7.996701781716944 6.183884117418455
Fe 6.218988424097077 2.922114065353533 7.662694243702447
Fe 6.410464935758298 8.906320732368814 6.988235768750946
Fe 4.59030748097121 7.1954288493992 6.036773297225641
Fe 6.917436836145659 4.992026852521918 8.52385223296094
Fe 5.0658772363195474 4.878519579387143 6.912292683486252
Fe 8.204534809383594 6.153927905453051 4.6712274367216935
Fe 7.803059104935163 7.347619351810599 8.60466245581344
Fe 6.838494255610168 6.522544976323624 6.575107319559975
Fe 7.336082486851925 4.2209403567356425 5.988334721353126
Fe 9.015957958077324 5.819171232932255 7.1698798327827165
Fe 5.808949545165032 5.610611105993273 4.567814246674632
Fe 6.690332282609833 8.065028482780658 4.607905216261277
Fe 5.480429736990713 7.019145968294335 8.38044496484952
Fe 8.493858594516844 3.4636379606556402 7.836530175182538
