10
Energy = -62.33552097 eV
Fe 7.885872756194065 10.302941482511232 10.1853173252712
Fe 9.329505692758008 10.048874351780151 8.426716090716175
Fe 8.033858409772465 9.507256673702935 6.626167919150087
Fe 9.441309393973466 7.734119064807407 7.515360523802547
Fe 10.14327915468615 6.26201864518069 9.155424787576113
Fe 7.913666820437893 6.305504588337855 8.901042752602233
Fe 7.218967206580246 7.334177087184498 6.857689435871661
Fe 9.277766449917095 8.236001840812923 9.963564634684312
Fe 6.63505257903003 10.692422803483117 8.157397196842803
Fe 7.267567131939476 8.543525356831625 8.81444492877227
