18
Energy = -119.72699291 eV
Fe 7.762589028367283 5.919685540058239 9.336022487024248
Fe 7.794805298848882 9.185840064446367 5.434789379889112
Fe 9.630354367190971 10.216557956164841 8.489238435391991
Fe 9.00015722240944 8.040690878705195 9.101727047571796
Fe 7.787203179412485 9.932553468596726 10.09280516057216
Fe 7.460053268349545 5.0380011422405975 7.069674850669802
Fe 7.713182602887468 7.6758076881518145 11.05068346409667
Fe 6.331762016199723 8.198070277129759 9.295667043957112
Fe 5.4275197291385116 8.462777353929656 6.855418613697053
Fe 7.403809754762726 7.35875263493912 7.252537679346011
Fe 9.608055200284253 6.219850969484591 7.675952392076134
Fe 8.658597823917253 6.654006899724595 5.413693435650099
Fe 7.508638201296403 9.77419253880275 7.714455980725906
Fe 6.898309170441465 5.091951247479532 4.681256327761349
Fe 5.549671921221675 6.077381983195335 8.565908310982744
Fe 6.404755943811761 7.487710761182784 4.845090262269889
Fe 5.330054528932309 6.084124893293277 6.298646629845695
Fe 9.638869295245243 8.490432255192378 6.734821051190149
