19
Energy = -126.59622286 eV
Fe 8.865818896034815 8.466717451009837 6.316745665562109
Fe 6.887597902690912 8.005441829173902 4.895004126728354
Fe 6.74208465480122 9.65909409137951 6.55727477613634
Fe 8.329507193396335 6.142476660323302 5.834413526728291
Fe 6.822322998465192 7.500369457010057 7.563672584675748
Fe 6.849012821272059 5.750864899902132 3.7799341986148867
Fe 3.597867741795175 5.947759997180419 6.056916268764399
Fe 7.039713264070876 3.986428807515012 5.586308328620242
Fe 4.785232415612488 7.059409295583862 4.053915577392721
Fe 9.046231936833005 6.727197506821866 8.010044616729067
Fe 3.187294245571286 3.5855905638067718 5.827676965784479
Fe 5.217720207236986 2.447702774354728 5.372533512084005
Fe 5.929823239825835 6.008722255053754 5.962363969090878
Fe 4.818368427598433 4.533347495724303 4.38614969465738
Fe 8.21261226092654 8.999878928845497 8.468627001645997
Fe 7.1499310944831125 5.0851316845648995 7.901607150848962
Fe 5.028056471518196 4.0246870785487205 7.129994747484275
Fe 4.795660004145072 8.110520324678912 6.321444690390443
Fe 4.90205149619079 6.2321412356062655 8.15379261728071
