12
Energy = -71.36715917 eV
Fe 6.505101756055396 7.282831414824502 8.067959892839406
Fe 8.966157098224102 7.0879606002955455 7.505390525110858
Fe 7.487063667226609 9.274823916919955 11.77608605479924
Fe 6.2994517573113 7.456331696913013 4.134613453744424
Fe 7.452724128173875 9.436994483088968 7.591858342726839
Fe 8.35818557837485 8.004770851434458 9.626932305621208
Fe 10.579810897308187 6.1878125314908505 9.266317607888146
Fe 5.449881964904485 6.310677675033352 6.098944562272937
Fe 7.25288119898282 5.138506939094764 7.589993492289932
Fe 7.994427695430291 8.543617365867066 5.397041553426676
Fe 5.856007172697277 8.519196763068384 6.164284751296844
Fe 7.867557502305993 6.10784948949278 5.654438787878688
