14
Energy = -92.31724998 eV
Fe 8.320780765805004 8.342507039489616 8.335955582395453
Fe 8.67813512794741 9.285228683852914 10.542796473035441
Fe 8.34212262621255 9.591585948501827 6.510731051370037
Fe 8.280446447366163 7.0035179827759455 10.305130689110543
Fe 8.537255557782467 6.985125160850965 6.334570457447057
Fe 10.000728076914609 10.084135947870726 8.443452245688533
Fe 6.275822984319362 9.839044565771099 7.581598046373355
Fe 9.584006934367999 6.20615303333631 8.335955582395451
Fe 7.195369902465904 6.192032667368945 8.378352538056083
Fe 10.446682856466259 8.016765629683173 9.57173792254248
Fe 10.374010390622518 8.231664503532715 7.098097336836081
Fe 6.42216784715122 8.460166394779518 9.443305653361673
Fe 6.400816260247877 7.703426417514108 6.827819504467736
Fe 7.851119446527274 10.74408702467179 8.951915692722647
