14
Energy = -89.98852891 eV
Fe 5.12224429296248 7.472685882704393 8.450114190490023
Fe 7.2297862553335905 7.678043518228431 7.369791846429897
Fe 6.595406977382937 5.63309576262155 8.333963216163928
Fe 5.431950095188765 8.836883727111426 6.499807604748187
Fe 7.143613882681236 7.761754279609723 5.11809940110868
Fe 7.689239920036353 5.6269487311901 6.022243592248791
Fe 7.550576038273545 5.741812362708222 3.5244245095279765
Fe 6.556956329524831 3.993099843769636 4.7679249657203
Fe 5.298787583223839 6.42736468757199 6.379083544475077
Fe 4.2934828691726095 5.261895475908938 8.08284099097999
Fe 5.463217805184597 6.404611715302365 4.1394677030152
Fe 5.886709070638463 4.034958206419705 6.916442504379479
Fe 5.507575299782092 4.5288162072265825 2.9054492423725806
Fe 4.2978606279351785 4.488647480918867 5.150850625148524
