14
Energy = -91.22676241 eV
Fe 6.140659581149084 8.54565143492284 4.742390480520246
Fe 4.246272090432059 6.8333974095961825 4.181607877430984
Fe 6.437637207567802 6.402192101230133 3.808932105826739
Fe 7.033785351509664 6.603222958242554 6.14448037355302
Fe 4.4562142887562 8.007431179957013 6.144801438889035
Fe 6.697358987825172 8.702898899379026 7.04682956797936
Fe 7.396407105585864 4.500771548472821 5.028521080802098
Fe 7.746665514040313 6.658888157766686 8.349812850623897
Fe 5.110629385413919 4.436883630829568 4.220113385624663
Fe 8.156159290568418 4.593282738528 7.258465290716996
Fe 5.470023602056429 7.0607607500022755 8.128389518783822
Fe 4.952415937057962 5.553252357086974 6.166133606562843
Fe 6.131868765710433 4.746490699860639 8.243408710508094
Fe 6.001182238093657 3.3773038656326304 6.407349066163309
