11
Energy = -70.04090906 eV
Fe 6.189554091387648 8.632394327567425 6.831492590688045
Fe 4.289337684104793 7.170320566209814 6.56846685118675
Fe 8.252471879278001 7.3535026741781975 7.024076580272084
Fe 5.099224506337857 4.937567565721761 6.579977498775317
Fe 7.492818422556329 5.040453537066928 6.860958927812676
Fe 6.2844058588373795 6.622844549717605 5.458175873531807
Fe 5.986804101575817 6.53192379603245 8.058967788226731
Fe 7.275641193097314 8.276532397282821 8.949189662665422
Fe 8.103243596622308 6.052638225327316 8.963559557848257
Fe 7.732286526435788 8.409550949958623 4.991343379983478
Fe 8.547088805471368 6.184766108332723 5.0105320086292835
