18
Energy = -115.25864588 eV
Fe 7.916152547036325 4.080865758279538 2.296249656994801
Fe 3.846915655157483 5.639086272120353 7.507492728328872
Fe 4.4337000550643735 5.599267246365206 5.054458648603389
Fe 4.800472736789452 7.650194552039509 6.511670649440162
Fe 6.684164175064078 6.902524456920984 4.959173611521237
Fe 10.42703462748497 5.99714873999114 7.040085645261043
Fe 8.47318726209386 6.048556119760466 3.5348279172850576
Fe 8.165245688082996 6.4247749202921955 7.7788976907201555
Fe 5.428651050154155 9.341699854152269 8.277949381950407
Fe 9.069643458417579 7.391816522592027 5.554789059584163
Fe 5.402446632218632 8.409784176458752 10.509275273660316
Fe 7.173280753037124 8.49908139441178 6.772610140940576
Fe 6.190143148783166 5.2066143581791575 6.7343538144607935
Fe 5.851755420409724 6.762799774147927 8.70367263251357
Fe 7.578917342148727 8.394225973714708 9.26628926234009
Fe 3.6353494365757126 7.766804616838929 8.789922524245373
Fe 8.53090462552915 4.974014253867974 5.801701555133016
Fe 6.589396574100205 4.532746209544529 4.27744601519926
