13
Energy = -82.19539364 eV
Fe 7.49466738305214 8.09549339084141 5.448595646958487
Fe 7.9924922140928745 5.982009622500291 4.8174313078178015
Fe 6.37875324305427 10.0397704981721 6.402020047746343
Fe 5.397935280812235 7.88122526926406 6.939600661432912
Fe 5.698620062345235 6.478139292600159 4.930084346014622
Fe 9.261867064274144 6.99856354142142 6.822521746265994
Fe 7.5760525577042 8.527090117063851 7.879649631316405
Fe 7.237062546626121 5.779946751354506 7.012479591843067
Fe 9.78628465084623 8.201448081855428 8.953044889643323
Fe 4.897841505275886 5.669733960472869 7.00889082174158
Fe 8.637829398843502 6.1872252978375055 9.054726733122633
Fe 6.234616699525309 6.693425806943732 8.961080283725439
Fe 7.902051670487314 8.007681659838738 10.289794117286876
