16
Energy = -102.86781063 eV
Fe 8.971689659994775 7.226026982524376 7.640649597135683
Fe 8.697855257730756 5.976026809084159 5.53628946553567
Fe 7.0301668709657585 6.88532151960135 9.170511488170057
Fe 7.940189315466108 8.239452447775513 5.671844446920117
Fe 6.834510310638569 8.706559357384338 7.723204521292905
Fe 10.319076435821673 7.7853960455735045 6.13158486287728
Fe 6.716033968520121 6.252825894016791 6.8527808026319175
Fe 6.903088130955975 4.583372423323352 4.886392246331681
Fe 3.6147951738632624 4.1763381768365475 5.265661671650676
Fe 5.264758068089049 5.380766795597864 8.744801366642255
Fe 7.044813171467829 6.898879261244267 4.096840788785933
Fe 5.488231577365667 4.229403888019037 6.670153307314567
Fe 4.877584099428632 7.692305289798178 8.402210729031097
Fe 5.467111225328955 8.080747151934515 5.835482004481838
Fe 5.037081712624358 5.996510483874986 4.758666543555126
Fe 4.016328335611835 6.113380787285246 6.8362394715169446
