17
Energy = -108.57706675 eV
Fe 8.203933589563597 4.682645338277545 3.74101622329183
Fe 3.607396880683386 6.0662246652237775 4.67351867437839
Fe 6.400367495621072 3.366278196048231 3.090161405742438
Fe 1.3755567273297094 5.940305757608207 3.9506573242835747
Fe 6.015022643482553 5.6371755367849286 3.5382016781683765
Fe 9.354651541079175 3.4951816681310826 5.360091359054756
Fe 7.7355709374946136 6.7722766265065735 4.664356364606302
Fe 2.159841927188032 7.911627038130298 4.916921351811597
Fe 5.023521780634325 3.968013804558624 4.955845027296168
Fe 7.190675321280007 2.913163584494616 5.2154145325712795
Fe 1.618236000699837 6.081280252613032 6.268809637925637
Fe 3.6182851938451486 7.314743061293167 6.717249319584817
Fe 2.3390898635054027 4.118355213077992 5.137278796650783
Fe 8.051484751390435 5.0943751039619345 6.227730908460824
Fe 5.817371010941899 6.015684270594575 5.9061679573811725
Fe 6.158460375063367 3.9647417906122153 7.023651163626314
Fe 3.6355983564440715 4.962992488330159 6.917992671412028
