16
Energy = -105.9191408 eV
Fe 6.10694769112681 6.738011243083159 3.7069714457953427
Fe 8.163523766277374 6.8599602002334805 5.016678588027331
Fe 6.335059220366322 8.493848062851578 5.232186847958875
Fe 4.162415291745663 7.732833206731026 4.858876343588948
Fe 6.319778305674936 4.4160413194769506 4.585520482438441
Fe 4.355198725275141 4.278962637218218 6.475867173183454
Fe 8.340401873960262 4.649521974333451 5.924927206650899
Fe 4.1517211261444045 5.433704953240666 4.395949674494316
Fe 3.3763461017990273 6.395358638680209 6.593529507298919
Fe 9.230846472067947 6.354223488134986 7.058545679438119
Fe 6.574565916124101 3.6902617006281258 6.955474673233892
Fe 4.84757443837813 8.034508080407347 7.258260561765073
Fe 7.250695804328805 7.625712987615866 7.3714590538824245
Fe 5.983377038521044 6.144915804010001 6.0934854900592335
Fe 7.559254981313479 5.361777484555286 8.23391799641385
Fe 5.210281902126426 5.758346874029497 8.206337931001235
