17
Energy = -110.43687054 eV
Fe 4.8507922267871875 6.974963133753527 2.4531488647872886
Fe 7.176730006093478 6.341052629198338 3.0010563930109346
Fe 5.870951319270755 7.954035992560298 4.2447282353099425
Fe 7.469280344602622 4.110608156569111 3.866983889691146
Fe 5.714235935032918 4.762746672900212 2.369058644636394
Fe 3.417504586834813 7.590052351197071 4.264070552599517
Fe 3.467611000618075 5.371761446800822 3.434395186024731
Fe 5.247014109387666 4.221323167529803 4.597384231596588
Fe 3.0481675158345514 4.507458500613678 5.806584531164811
Fe 4.657522208980388 6.212569218879585 5.4538539133576
Fe 4.593983523714791 2.828112128733286 6.357413319617212
Fe 6.864426569331793 3.6758280641946084 6.4086952203983225
Fe 6.770797439340113 5.8984308437424815 5.2935473127529695
Fe 4.3887168475566485 5.72439417600478 7.591302996012415
Fe 6.67784042848264 5.641642026081191 7.610319083000308
Fe 5.698360412937981 3.7372823595226925 8.45745003846302
Fe 3.3876121531288113 3.7492857596537505 8.091554215512181
