10
Energy = -63.04314606 eV
Fe 5.245648154591358 5.275873089255636 2.6869054547576456
Fe 3.677743432183039 6.519015249490937 3.8195536908063454
Fe 6.0167252693189806 4.754629532020645 4.70727065471505
Fe 3.719629181236984 4.251088614377236 4.376118302486179
Fe 5.889374056975341 7.0567760406516165 4.195412041587322
Fe 4.228445011622588 5.996568526147364 6.0392411215144195
Fe 7.09276694296009 4.022253755564222 6.510416080557787
Fe 4.8086136428998785 3.4014087728029185 6.253307706009805
Fe 6.603716826113078 6.415907683079707 6.328551895385702
Fe 5.425216796090386 5.01435805060143 7.79110236617159
