11
Energy = -64.88227758 eV
Fe 6.516955496947026 8.68568671328019 8.892396000153601
Fe 8.174139784279802 9.339967184920061 10.494215995010629
Fe 6.292583241784005 6.276661909673786 8.44606189606377
Fe 8.972339652424637 9.202112359752196 8.336868612058892
Fe 7.649267718440426 7.756092614754171 7.009703625069944
Fe 8.856555215484557 6.847904682810866 5.140042310951589
Fe 10.50798936884211 6.224215638679824 3.4498916323553064
Fe 6.537176504575263 6.025278415192024 5.880884763179585
Fe 8.415837180920025 7.288066461545504 9.469599573638545
Fe 5.1365284954280765 7.645318381477548 6.981655178956779
Fe 4.589999925056293 5.381147040943611 6.990653418445413
