16
Energy = -102.72260649 eV
Fe 5.967223055209528 4.141260150745084 2.3363247062751777
Fe 4.936299246736845 6.249015460042686 2.3900357468014466
Fe 3.7428182990450156 4.364381763869606 3.196806317248959
Fe 7.113024667895254 6.008564834544627 3.2941427045884972
Fe 5.253727535200693 2.770909441045544 4.100124309228457
Fe 4.697192449172423 6.55079227439768 4.625508165359454
Fe 7.411981774841253 3.8286713067305853 4.1587222255633565
Fe 4.35819015977393 4.46189195138249 5.460482910305881
Fe 6.519343738002546 5.528608734603712 5.505560236064657
Fe 4.01445184534926 7.918446836273882 6.2999766490252025
Fe 6.224413768279309 3.388957782584155 6.348952202926667
Fe 2.9252631392432247 5.849082031052713 6.684936738440736
Fe 6.300375084285513 7.493430703806527 6.752963098483538
Fe 4.3802540993333245 4.3569903923262885 7.798109900136406
Fe 6.545266872834492 5.410263183975844 7.83637599687156
Fe 4.590086820725239 6.658645708546733 8.190890648608166
