17
Energy = -108.32965638 eV
Fe 6.514112765705876 9.228163974307407 8.337402040436293
Fe 3.5644725974187583 5.9676040397882675 7.605147137669211
Fe 9.40040286361931 7.250555558669522 5.64746942409658
Fe 6.444669481183224 4.032773131633021 4.972790249230176
Fe 5.714076877947375 6.78830929204722 7.807143342672784
Fe 7.488638795888661 5.748544469132611 3.8290173042751556
Fe 8.814039310588893 4.713449893400181 5.4321648084659095
Fe 7.472736092410669 5.080509730548992 7.4593730155542755
Fe 7.669390555463446 3.0033590878691494 6.582363980283602
Fe 4.233893512767723 8.503746753115337 8.13850500703836
Fe 8.036659143273296 9.318009787034466 6.427973928957249
Fe 8.033983210921415 7.576909319202146 7.875310200504445
Fe 5.841408593691645 8.543183360224534 6.118540859995746
Fe 5.163035559931738 6.054784449311945 5.4197922707860915
Fe 7.323116503670976 6.745199036917947 5.813452860034328
Fe 3.626099127835764 7.681667914592927 6.072534295989336
Fe 5.262663714200018 4.3666289087231105 7.064417980528964
