19
Energy = -126.76705118 eV
Fe 8.269526293965127 4.9380165936208975 5.4403824657502025
Fe 5.975162566501695 5.236488121288287 5.806161689835354
Fe 7.586007686691578 7.273265636849646 5.59824211223067
Fe 6.835947216132799 6.125436942745739 3.605051048710811
Fe 7.162217799457927 3.6127665245374536 7.178006457880669
Fe 4.808839948113118 3.408618723501188 7.249496554235608
Fe 7.058731307398296 8.67855671805719 3.84697054552488
Fe 4.485779402172983 5.654555486915528 3.841694762686569
Fe 5.317893644941154 7.668613658857859 2.7020388776762827
Fe 3.9486770213605418 3.8849352169251983 5.226693521114309
Fe 7.802722427769198 5.9308949724532996 7.553727222057294
Fe 5.127274834641134 7.602173545638354 5.000925375608125
Fe 7.4184116833162355 4.602590828297899 9.370574214750954
Fe 3.855922366964805 5.847336326236472 6.495125711545898
Fe 5.42655764641999 5.262982638216499 8.402889782302065
Fe 6.390534964031547 9.343088038971464 6.108664464158344
Fe 5.6839833578769365 7.396836664369532 7.333336308360674
Fe 7.896611181743302 8.372710199778295 7.718240329281241
Fe 6.786697271766115 7.015518616900095 9.416022047792685
