10
Energy = -63.07520584 eV
Fe 5.073968533604252 6.518893828941997 3.578389079857634
Fe 6.081863632297773 4.4285109548471855 3.873676112611718
Fe 4.77522573918578 5.534940580463065 5.550192426336572
Fe 7.823451875795709 4.631815224275121 5.345402725106571
Fe 7.022174581845977 6.697693481266355 4.699298962821084
Fe 5.920131809668577 3.7340007627345737 6.2759886060802375
Fe 5.487700164288935 7.617484327282912 6.316347200914377
Fe 6.9504669331862265 5.980812884722036 7.074603137595401
Fe 3.3601991863800644 6.767670901003036 6.7542649521295886
Fe 4.862674548315166 5.446034059032313 7.889693801115413
