14
Energy = -91.52181673 eV
Fe 5.329370855715288 3.436981580366863 6.25221173698987
Fe 3.358121879305087 4.798307970204923 6.372919297741891
Fe 4.953900404730122 5.208732492744746 7.9588963166542435
Fe 7.173200176782405 4.779181119618123 6.959947630158375
Fe 5.244027378439878 5.686274208537358 5.390737485232879
Fe 6.848494317752771 4.1868374384756715 4.585337364313762
Fe 6.370662253537135 7.051401915205071 7.215708065067675
Fe 8.89296399578304 4.998846803051736 5.445472951327973
Fe 4.013233803335079 7.160682877915129 6.806722509747523
Fe 8.678675463963874 6.820964789152692 6.926120896728242
Fe 7.4021206862118705 6.641700217945537 4.819626417142085
Fe 5.402351194222572 8.09189050263272 4.998979054698891
Fe 7.597205322031112 8.718168248029071 5.982917636831101
Fe 5.474223606960683 9.15858117489157 7.02295397613654
