16
Energy = -103.51042872 eV
Fe 5.565489144659337 4.16521658501912 5.376484625897908
Fe 8.810727216007143 7.049779401430575 9.393092133599714
Fe 7.335570745562848 5.586398860370511 4.939000045743085
Fe 8.219215639009215 5.931947387834904 7.215714292677165
Fe 7.146023691226012 5.333372755604381 9.245346488129147
Fe 10.060723513608163 9.407337443108618 6.408381844870074
Fe 4.711684952719649 8.658058214471009 9.223798590383966
Fe 4.480913638704666 7.776069722263284 7.066013967483293
Fe 5.077303934261322 6.375914429597924 4.973384602576929
Fe 6.0161709950414135 9.539599298808742 7.54592548890681
Fe 8.358123288021096 8.630176286537493 7.695507376220138
Fe 6.771604732740856 7.747282379884122 6.052109591895124
Fe 5.788481208796918 5.647728271554397 7.159178353692366
Fe 9.01241800415396 7.408298050859839 5.484540543394009
Fe 10.203842060579273 7.19119360717639 7.47625185737885
Fe 6.521683397527693 7.41767263845292 8.59328164819166
