19
Energy = -126.10418747 eV
Fe 4.658116324220894 8.849826261007614 9.470947089958214
Fe 5.000473607177195 6.508139804369721 8.912200313453194
Fe 4.012396597400789 6.023103708871974 6.780893713191779
Fe 9.540325580281994 5.340718777302737 4.902415026870246
Fe 6.808738927902468 8.17722267204325 8.868006023751748
Fe 7.615088854900724 6.7060271429489475 5.07014433987955
Fe 6.2965313731619865 5.953453006994885 3.1926737876438347
Fe 5.259758096726702 7.425733877391693 5.098170518477756
Fe 4.077807593147151 3.729256594586788 6.180985696766463
Fe 8.607132768754514 6.120361058670769 2.969481003233879
Fe 7.956116685631828 4.601252870990558 6.516973921205679
Fe 5.941403915954641 10.150536978522853 7.950412432636641
Fe 5.675990609954239 4.3311286108282205 7.7424092225798455
Fe 6.532589069164494 6.488248533017254 7.164320390608318
Fe 4.704769209008858 8.303959227432212 7.233748742904234
Fe 6.429853064264445 2.978696108982278 5.827033292451737
Fe 7.7265661462006845 4.186310508611709 3.9833969034106675
Fe 6.977757641114357 8.61141740109406 6.41499224169877
Fe 5.740068370900097 5.0760912922005295 5.2822797751450725
