13
Energy = -79.85286091 eV
Fe 4.867594517483399 5.437228550748687 3.7757364278028707
Fe 5.23240532019856 5.465425883965728 6.1217163161521695
Fe 5.6026342429207645 5.455664334720835 8.63789463552694
Fe 7.133368967553162 5.4286782142132965 4.650057981922962
Fe 7.463958714480964 5.450923406763635 7.125409219028496
Fe 7.798082064931809 5.444114548148734 9.510184932213745
Fe 4.852395056428187 7.663114898915657 3.7855543311986826
Fe 5.219780397846686 7.637901022711529 6.126768339060419
Fe 5.589473036001005 7.637175787864159 8.641667935490181
Fe 7.115098036793449 7.696357552841314 4.65322741511526
Fe 7.448000064080313 7.671697212520064 7.125877543377353
Fe 7.7802970958407025 7.6682103736531175 9.51487289060406
Fe 9.127626460368498 6.57422217099664 5.561746058028259
