13
Energy = -83.80660534 eV
Fe 5.43774572768069 8.122218226217589 4.963199225776194
Fe 7.8410058003289445 7.783063511971467 5.661146791178859
Fe 3.950974320321357 6.438762116050259 4.393388300459386
Fe 9.822357039995046 7.1080529660233465 6.510961834273755
Fe 6.281445233255168 5.914071023999518 4.5494138125763515
Fe 3.664451704356187 7.467372316841145 6.421944509619169
Fe 8.210205269430734 5.947054935202986 7.660713572017829
Fe 6.061358954004931 6.810269164237849 6.93130970598849
Fe 4.451039491241486 4.95657381584999 6.192895744350827
Fe 4.074691653340836 6.075561429542156 8.187451345912352
Fe 8.61606556680008 5.528429370897683 5.333688534739442
Fe 6.761366396952684 4.297068176194727 6.248652802245545
Fe 6.0434718225546264 4.908472919935942 8.32669628189463
