13
Energy = -83.55327707 eV
Fe 9.348019752767096 5.109641758838799 9.024707700976203
Fe 9.592813699625758 7.366845936288174 8.587345467557045
Fe 7.630638956916885 6.621966450473556 9.775996356277357
Fe 7.593418745337417 8.69977874103542 8.368563330187646
Fe 7.9730688893426525 6.0956367052955756 7.413493699312749
Fe 8.796721262139648 8.144790709333314 6.298596696368102
Fe 6.0079596627206815 8.396082711414323 10.14745432928025
Fe 8.684700545315156 6.154816040232715 5.147483019282577
Fe 5.790011216033929 7.118713138677283 8.039278407864597
Fe 6.379804593039452 6.632404858939668 5.653273039802035
Fe 7.4676201386114816 8.143307516920448 4.356115720258492
Fe 6.3504167964624285 8.958849802800492 6.285760212876044
Fe 5.202778599507419 9.41129094080566 8.356239965097137
