12
Energy = -74.45241429 eV
Fe 6.207367499333791 6.263211744561817 4.950546828339708
Fe 8.582684769575833 6.7107322121529185 4.5463615498639705
Fe 7.716610268046583 7.176062100814906 6.732234353715133
Fe 5.223067767033998 7.645839143955383 9.346332466477977
Fe 6.501226306830782 4.358036405203841 8.568004739376045
Fe 7.868717631410079 4.624324997645264 4.288040010189809
Fe 7.547827779737687 4.843761417540582 6.592784152651505
Fe 6.689514935717229 8.54848832942797 4.969940161315334
Fe 4.584583904004685 7.9767396953528635 5.6620125614374155
Fe 5.915601409588279 8.611740243856666 7.483974251993993
Fe 7.090232940954471 6.470114273115642 9.037670217863193
Fe 5.502764050037427 6.2011486986432445 7.252297969047016
