12
Energy = -76.16065546 eV
Fe 5.99946306723461 6.728171245037882 5.24968670198018
Fe 8.31288052277278 9.376593691762334 10.88880458501316
Fe 9.116373542592514 8.824596587087859 7.557311286586807
Fe 9.871346017637425 10.21323842737325 9.384109705662409
Fe 8.2085411988565 7.217640421346886 5.66143364302844
Fe 6.309526063331837 6.271919893368087 7.4745040613949545
Fe 8.597506068052784 6.538948375185568 7.857312093130554
Fe 7.496018414707675 5.044292281125473 5.935105205918581
Fe 9.643366409082589 8.012437064130157 9.71400732883392
Fe 6.8437760396833704 8.511544150622328 7.04506667979754
Fe 7.299873750303479 7.895797188723329 9.275011753148181
Fe 7.691512303607269 10.173173556542718 8.8933260211652
