12
Energy = -74.51064579 eV
Fe 7.365778798741981 11.248926651325466 7.148396108777791
Fe 6.16637006792006 7.123805990869564 6.87857981582325
Fe 7.390990675429614 10.092504275242048 9.205662033331796
Fe 7.629614342383897 8.922605268977087 7.081003440030977
Fe 9.413484777938697 10.454404192293614 7.556910015182769
Fe 9.321980840388116 8.608148728857646 8.913194301602392
Fe 6.817026055847127 7.766090776231918 9.156271930123852
Fe 10.56480264088157 6.732628396414529 8.318159460464805
Fe 8.248383180178061 8.45055893342838 10.935293839192838
Fe 8.293398326328482 6.693276157219003 7.494816540096487
Fe 9.987407726525428 8.249283441509526 6.66501153366358
Fe 8.731910852450866 6.433355915926348 9.853170687656831
