19
Energy = -123.74596854 eV
Fe 4.098478504964067 6.6680347219235125 9.10658176261125
Fe 4.298496936925211 4.470447631342921 9.682490903232905
Fe 8.834055760099512 5.3055744261873015 5.9243612712822715
Fe 6.040822266557931 4.797250159135454 5.403381406129488
Fe 7.021572686602129 6.590579883557717 6.5094121346456575
Fe 5.5425372639310195 5.209081630845709 7.906832056563977
Fe 7.385290174473134 3.902479668215228 7.194323605230135
Fe 7.573438124153543 5.839413488363221 3.9649602422116903
Fe 8.34805748225399 7.8754537553690005 4.967891443138389
Fe 7.937652312801743 3.531107904269496 4.853566472415314
Fe 5.780846635214311 7.4304485190286576 4.540977321756151
Fe 6.832360433061103 9.68224176942144 4.419383473963812
Fe 4.755040790534786 9.325685457237247 5.465152792119178
Fe 6.256797472839285 5.530358999359346 10.146487262834397
Fe 6.679507140273663 8.925405816868851 6.635994557539859
Fe 4.782394628214393 7.284082334915377 6.811358743801745
Fe 7.284122627630026 8.013329885596482 2.8667379569974525
Fe 6.269483525208552 7.5021876384373885 8.811972630667453
Fe 7.973373550386727 5.811164626050916 8.482462278984865
