11
Energy = -69.21086616 eV
Fe 5.589003594929274 7.030827536637888 4.5575919959549465
Fe 7.628031909139046 6.439279199768125 5.080697844080953
Fe 6.274607408460977 7.505577773920367 6.735172985207216
Fe 8.757684171763769 8.038549119767088 6.459370298941338
Fe 7.122630454772802 9.582153109895728 7.115567286642433
Fe 8.016816749411621 5.752759839970497 7.3520011614229475
Fe 9.662013056497049 7.041760521831745 8.352329842681234
Fe 6.24910298540922 8.431360653008825 9.056020827418923
Fe 6.0029732544470855 6.080592240311844 8.495739192204777
Fe 8.545544074216082 9.001991757316457 8.777254706858184
Fe 7.808304905446401 6.751860812064511 9.67496642308014
