18
Energy = -118.44992805 eV
Fe 7.1196116096408515 5.872799596663727 1.9747138905089148
Fe 5.74152395286855 7.033735586296689 3.6705516575096016
Fe 4.35684884217353 5.480289451752818 4.962827517696528
Fe 6.3566638021206385 4.681460235211894 3.9840710900615854
Fe 4.964307069336069 8.05231328683286 5.7349796748033235
Fe 8.102651135447536 6.49212468158274 4.0954831344470115
Fe 7.290374078536842 8.471793647224024 5.093374342848527
Fe 6.464259499366521 6.2753013771301935 5.931721074336376
Fe 4.41671115066916 6.138140362293006 7.264193643286735
Fe 8.098751959828437 4.530299114774017 5.677851340061336
Fe 4.622025952888647 8.059326515855604 8.198224751643423
Fe 5.74574929176748 4.012497864687149 6.334725610750845
Fe 5.506566470468667 4.450676105998818 8.743323998294926
Fe 8.81665394058283 6.8210799447309105 6.374067980593692
Fe 4.019243216837849 6.02747967951625 9.561065114250821
Fe 6.2045508617409455 6.628280818774408 9.423926405999662
Fe 7.518002097372538 5.365153969331452 7.910899094526862
Fe 7.0026490768555 8.018952962938283 7.443833307556866
