10
Energy = -63.4517509 eV
Fe 8.2621239431174 5.370274545406443 8.929212437002468
Fe 6.341140636193156 6.704564678326548 8.72638774654618
Fe 8.456603645783364 7.534855280072334 9.530277327506216
Fe 7.896148155890289 6.255477690987917 6.868924446848844
Fe 6.800958511791479 9.105369995665354 8.78534427945579
Fe 9.810817633269563 7.27489615732061 7.702486940480279
Fe 6.288515179100163 7.9487555109696535 6.661957946822541
Fe 9.032311382146528 9.587193950264233 8.304862789187139
Fe 8.48003426224147 8.53012290628355 6.174797018770272
Fe 7.231509205423646 10.290948585275139 6.923683541736356
