15
Energy = -96.83990948 eV
Fe 8.72444061503029 8.569411421665086 11.324406603462014
Fe 9.336567312646515 7.758743289795602 8.922437988609333
Fe 6.671023881532686 10.630902896985548 8.88850518242487
Fe 10.199961918463856 6.54275362321124 5.505756440103094
Fe 11.120367328472492 6.536638589453023 7.820102319934564
Fe 5.500661632966084 8.478438386278492 9.31553143467694
Fe 8.287276019197142 9.40345167105586 7.332677862352575
Fe 6.71953491514832 9.581899354567051 10.939295962371359
Fe 10.325239890185633 8.407760712954683 6.801881881990176
Fe 8.973863810845591 5.975198570653206 7.333555145410867
Fe 7.334281595054442 7.301166182713518 10.040445796605018
Fe 7.139304828447615 7.325644149658127 7.748904786924886
Fe 5.969743345867381 9.239861620969583 7.194539012614642
Fe 8.774685483879953 9.96176625083955 9.518008448430418
Fe 8.179872363524158 7.729350344733085 5.70011075820108
