10
Energy = -63.90262166 eV
Fe 7.091494594505039 10.177741844733474 7.408599377647388
Fe 7.6903290820836885 9.541613796664198 9.515055435266847
Fe 9.724275505720456 8.228709445988082 9.43339314146945
Fe 6.00160217525532 8.234759466297174 8.231672166484625
Fe 8.198963378525711 8.228709445988084 7.324635487285952
Fe 9.420363441324676 10.115764809602698 8.06282022945493
Fe 6.994204905805603 6.334963962308852 7.371321830026641
Fe 9.178733337692696 6.220824975767345 8.134488308601382
Fe 10.431880302227462 8.060043333254718 7.275407143730282
Fe 7.624103785277436 7.185516919395342 9.598556388451147
