11
Energy = -69.96836148 eV
Fe 8.756151140289015 7.361696035433298 7.130176065713085
Fe 8.425831966086328 5.944182095859451 5.44189304230836
Fe 6.827497792593588 7.955196377363769 6.036162648263467
Fe 7.012704697204439 5.799456733364572 7.3416561053907605
Fe 6.701637028073915 4.187392043993385 5.561493519934002
Fe 6.358489289677656 6.36610325357169 4.4725845957516555
Fe 5.04862338856683 4.334302100255626 7.171207408730806
Fe 4.5713874582367895 4.784401696573799 4.754426721629706
Fe 4.9388347721701535 6.836713558683524 6.972198076311113
Fe 4.18324921012426 7.126629300869338 4.881383652191821
Fe 3.1609445748279614 5.39241671889213 6.372409534179725
