10
Energy = -63.88785038 eV
Fe 5.933216520752419 8.57575996318355 6.606223382406188
Fe 4.7971820160998675 6.35812536103276 7.025122290822404
Fe 5.295954978101081 7.143259042027982 4.917737290788831
Fe 6.44197253384985 5.227013828774002 5.479153082302251
Fe 8.10927086620652 8.162814170923973 7.1565087944581025
Fe 6.1463636179512084 7.396392317011944 8.549293774005843
Fe 6.504943273110552 5.025207216202533 7.7503024223116075
Fe 7.578232646580566 7.444595025951457 5.054562472231833
Fe 8.468853669917461 5.791423200217663 6.358752172703083
Fe 8.199331519638264 6.350731516882177 8.577666137586238
