18
Energy = -115.93291751 eV
Fe 4.590855233044446 6.505567875610752 6.293023528067035
Fe 5.5168296613341345 8.320077228126653 7.774080256199219
Fe 5.209144874177605 8.860319849853122 5.465980737115577
Fe 4.791369449771692 4.227297458255381 7.664706638740834
Fe 10.374745276131788 5.853617452111609 5.468162213218105
Fe 7.958430436100827 7.814072424109345 7.905707289291571
Fe 7.304626926017099 9.49780156342846 6.3875574529167425
Fe 4.095666078390875 4.353230722308448 5.453478231129779
Fe 8.42389923677373 5.590690395802067 6.88115981378485
Fe 8.397427396287576 6.201748626904103 4.429141602531238
Fe 6.382864212320189 5.993855261270011 8.099168640112662
Fe 9.297528814246329 7.820310268181763 5.720635013856063
Fe 4.150353957145915 6.442414054319434 8.691802393029512
Fe 7.439650038917499 8.645703396675897 4.271078639473846
Fe 2.7624987206942495 5.329170777110764 7.142188198166096
Fe 6.442851024296057 4.747937439746161 5.81538479208934
Fe 7.2318171217951415 3.810562552462337 7.837528490181013
Fe 6.799434997931623 7.155616109101202 5.8692095254734475
