11
Energy = -68.43450572 eV
Fe 8.205477976601378 4.595414880942222 6.970972172356096
Fe 7.042968945340048 4.7638451157251005 8.764663461599492
Fe 6.725825410177671 10.40281935256814 6.329723191166912
Fe 8.438342730784235 10.616237139537091 8.092616065842822
Fe 9.217363921406974 5.842706938591619 8.808984901932066
Fe 6.5830783256820755 9.127539266309977 8.258320380951337
Fe 6.098891986678367 8.071957792324229 6.109294880827881
Fe 6.008412784650455 5.5766981358618875 6.709383945160413
Fe 7.578321393148722 6.950611639538365 7.650066519105766
Fe 8.580808084508433 8.910476946431404 6.514096456620454
Fe 9.077402277540923 8.40459995481501 8.856056558838333
