13
Energy = -83.57403905 eV
Fe 7.726847910810752 7.772857482013122 4.938060908982632
Fe 7.039205255419472 5.578014980157379 5.111306631086418
Fe 5.430160608373656 7.2752181032086805 5.51576015355018
Fe 9.343763970065947 6.197929988888967 5.821753305576623
Fe 6.383085023104515 9.29826928519805 6.430723376005856
Fe 8.283212796362745 4.409393029136848 6.74361533634358
Fe 8.397365016348914 8.190569956691492 7.242518874921478
Fe 4.79021742546351 8.137202485188993 7.624025451704469
Fe 9.174999522468559 6.019892146176539 8.14516260269922
Fe 6.569555415000639 6.227738412505251 7.597774169969693
Fe 6.634117667865875 9.276923256080904 8.847509542718305
Fe 7.916577157002628 7.473208486430522 9.560113564766061
Fe 5.616726240601346 7.4486163972116906 9.727510090563925
