12
Energy = -75.78482385 eV
Fe 6.932582401938597 8.148189727508827 9.560250919929839
Fe 9.285130571269958 9.106781738181505 9.65492618926116
Fe 7.636925567786154 10.434490634444456 8.794496522955674
Fe 8.696463509066062 6.824278798530092 10.143978515995695
Fe 9.813022382365304 11.137066553434824 8.65053240444007
Fe 9.98183986749104 7.268652455511906 8.263883821973808
Fe 7.688410530708232 6.1896334189300815 8.216108311944655
Fe 9.55514470845604 9.397745613025721 7.182777439430876
Fe 6.224197594381836 6.895493244101389 6.33029478092634
Fe 8.767668474234025 7.036845354088414 6.347842941301855
Fe 7.417792340680933 8.613911995744246 7.355819032231768
Fe 5.333682731636295 6.88678488962958 8.242061753120108
