17
Energy = -112.4963935 eV
Fe 6.769734266302052 3.0599822654791615 6.1270958988397926
Fe 7.7384928644818585 7.068824947441141 4.698560245098735
Fe 5.98690724050373 5.156895637556817 4.966093173328218
Fe 7.973481226703267 5.137244414684807 6.359894763482421
Fe 5.5360693045097875 3.1145673579898214 4.163368341321094
Fe 5.2499847766268894 7.46258046973426 4.721181847283262
Fe 8.79654834028696 7.599491928334036 6.817758644023579
Fe 7.029752764085152 9.133120866519196 5.675048297325332
Fe 4.374836503888532 3.73980971410548 6.084717719258702
Fe 8.574170531328953 9.830304770329057 7.177348722531704
Fe 6.443992652361505 6.890207316604228 6.624215995761341
Fe 4.966415662981653 8.687449812990465 6.852932412442396
Fe 7.597463911091108 6.372708158290401 8.552127941598494
Fe 4.117821758131833 6.127194954178372 6.401059987246342
Fe 5.8718767357612425 4.668418511155023 7.624102666898191
Fe 6.939996158764368 8.680434526590176 8.279888740403393
Fe 5.093864985101141 6.868622400599526 8.490918293755838
