16
Energy = -104.22101639 eV
Fe 7.454433636574191 8.529768945049346 5.384709157090873
Fe 6.282811896386893 8.849811658547853 7.5414062078112725
Fe 8.130707742926093 5.587259422519275 10.290884427709285
Fe 7.152938770086326 7.438403760811739 9.330914301697451
Fe 5.3978008718299835 5.212983586224412 6.335978340663489
Fe 5.152601774741699 7.64861582076728 5.755533678862975
Fe 3.2611210795054264 6.102933094219209 6.441158473830305
Fe 8.7355572603859 7.570625160326996 3.670388846024663
Fe 5.0445024757060395 6.843735071998001 8.095235863652828
Fe 4.623886162467086 5.881332739398411 4.317241733410274
Fe 7.219463117897403 6.570051375089034 6.923957667878572
Fe 8.637828575717952 8.443584402769117 7.62980444014385
Fe 9.278934940251004 6.931846951501902 5.778756637241825
Fe 6.6450867354878165 5.090149249165248 8.625626136636962
Fe 9.071718382599268 6.150699697095398 8.301973896491974
Fe 6.9514134583283544 6.287021776806479 4.56110881734709
