15
Energy = -98.23150696 eV
Fe 6.396913433877005 7.861623029668035 4.639397699301415
Fe 6.009558573413391 8.669179802681136 7.409906496935195
Fe 4.344999214892902 7.460780011865442 6.086786762727281
Fe 8.079809005396418 8.400407171666824 6.271649356513073
Fe 8.794587522259226 7.092151742256507 4.56694011455668
Fe 7.308603107000522 5.426032391291667 4.262462837151316
Fe 5.066702500520993 5.694396221802537 4.731746525062841
Fe 4.5634097031604925 6.749675801151241 8.321464026873176
Fe 6.4875194967523395 6.508611169169175 6.534172783697348
Fe 8.704439412827602 5.641074600892889 6.416520047583967
Fe 4.704620111556698 4.898378982583726 6.95137846619067
Fe 8.19987845195711 7.097686011077901 8.24277699112954
Fe 6.34201829964825 7.554833725850314 9.45443823531529
Fe 6.710313341611334 5.242727094006552 8.484414264086443
Fe 6.790311147824108 4.156501257800172 6.182819286962086
