16
Energy = -104.29826313 eV
Fe 4.982216207927274 6.698850206283743 7.774939752046978
Fe 5.999725121610567 5.41085396264244 3.9527501450671325
Fe 6.427613896794521 7.072921440461237 6.00012978693188
Fe 4.526233587867562 7.206404582104755 4.804607997521036
Fe 6.89098884583214 4.542246765280213 5.9665659518228
Fe 7.216653560302578 5.844915537774181 7.890161843133206
Fe 4.661472078364344 5.181525208940194 5.887932868547861
Fe 7.721184997479675 8.901683095186357 10.076293879373942
Fe 6.417637189450388 7.017634464895173 9.766547150158681
Fe 8.910299751145805 7.337165812884508 6.839849510787773
Fe 6.677197499563154 7.646056358487399 3.7149210871808047
Fe 7.839443306870896 8.824897116964642 5.482476500803338
Fe 7.0438660552997625 8.41746796345803 7.9087480987872905
Fe 5.501387979360262 4.50421621477949 8.167272629316027
Fe 8.24229278407979 6.163458189191322 4.795222630346539
Fe 8.753148446921495 7.022818117531915 9.265963700976878
