11
Energy = -67.37563475 eV
Fe 5.845065327871429 7.925663471026515 11.741749978745695
Fe 9.16227914328217 8.098558469002768 6.868632272559769
Fe 6.075016875888924 7.952531480591959 9.348144408555148
Fe 5.99428731068097 7.055494888960189 7.012522202607444
Fe 7.88371373161818 6.5266126974190675 8.38556403090684
Fe 7.1016541834524 8.13126152430696 5.169122575939545
Fe 7.056378058156621 9.066742121845671 7.399784905123161
Fe 8.523528112797607 8.63755146796123 9.222035387629026
Fe 9.282477081331054 7.4247970141269475 4.599955705380692
Fe 7.779157124776185 7.031757032594612 10.820291032758874
Fe 7.953585258865373 6.087336510510519 5.96069127829204
