19
Energy = -128.71590687 eV
Fe 8.941533164594585 7.574741204581789 5.864216093132994
Fe 7.248374105478404 7.9640164510898686 4.170442029509374
Fe 8.346499887097206 5.754847142672687 4.083938124116655
Fe 7.926367671069894 6.71128562218257 8.028682446013786
Fe 8.853506819633902 5.074081707087289 6.393231608572216
Fe 5.857057212171781 5.961991523989961 3.7461428166099884
Fe 6.881963400288143 8.648327810417884 6.70871416115481
Fe 4.9758970105410105 7.855559604467525 5.320005057236911
Fe 6.9382842264706115 6.427346766730081 5.903637303691644
Fe 3.238902608118442 6.894960349225999 6.733866318708529
Fe 5.433131965648134 7.018647223892056 7.77790097156549
Fe 3.4891297685676412 6.14549687845966 4.227028961325726
Fe 4.9374482511795845 5.420692149704793 5.96664504011801
Fe 6.6490415323212355 4.652802092887991 7.59028731024054
Fe 4.6165721274970775 3.8573015303957643 4.188078750490617
Fe 6.891625107557991 4.056694256550246 5.1526734740910545
Fe 4.242903274918296 4.826332193582275 8.084993595929326
Fe 2.8320800384948166 4.595808138819074 5.971447079380639
Fe 4.941803426923146 3.0871704767699795 6.449059896805987
