14
Energy = -90.48017869 eV
Fe 7.284266055990797 7.036706163264052 4.9696496500506235
Fe 5.922532420393105 8.87124801976073 4.883053485366122
Fe 8.013744103968348 9.281513247426231 5.725609429898191
Fe 9.036559211787512 7.325818904610156 6.479804157529725
Fe 5.209813032031772 7.257421250027379 6.3329821632849095
Fe 6.945062848808689 5.817017045900899 6.926855553752203
Fe 5.944449319077593 9.50692574951838 7.084544632741451
Fe 8.041503040017798 9.176862375819143 8.056027123871457
Fe 9.037867642625057 5.477037899581505 7.898211912950502
Fe 5.948736570129397 7.655993890934059 8.50797194733911
Fe 9.770615562544469 7.730220951835126 8.65470031157949
Fe 6.9684576963638465 5.697146621188974 9.255536498139518
Fe 7.704438372696382 7.949421512082657 10.01267957216189
Fe 9.055207479951429 6.099919724436792 10.095626917721024
