11
Energy = -70.62414833 eV
Fe 7.050089371623993 7.7938171459952095 10.987640891817964
Fe 6.996503926561851 8.40989454207723 8.648667439236881
Fe 9.006283237593925 7.665049781345795 9.743035675544549
Fe 9.903132975463402 9.031691396782078 6.2219760037646665
Fe 10.751540296230317 8.246224802920429 8.318410020721625
Fe 7.578239517775045 9.12214934617572 6.412744875849895
Fe 7.7865277403057895 9.945876195875629 10.393077189396234
Fe 10.17584635434008 9.786730311300548 10.132985639754066
Fe 8.883376401607611 9.839262335663639 8.199168885450923
Fe 8.766415682169418 7.3165568369248835 7.328599566240198
Fe 9.01865208277568 8.651859213417909 11.89400292999288
