19
Energy = -127.85748614 eV
Fe 6.608109183694128 4.331799699866192 8.821197220461293
Fe 4.442378505279161 4.514917984957772 7.5795474923908035
Fe 8.220494252304078 6.11427833618469 8.157142622507227
Fe 6.416402391995217 2.979376189027293 6.866831000189241
Fe 6.612633846898595 5.286704022151076 6.635379826986913
Fe 5.5311480578573695 6.507264571497431 8.417389697686351
Fe 8.613769222986617 3.9975887543560016 7.2016599177640455
Fe 7.793235285471106 4.10535257250792 4.963792663012836
Fe 5.103947983376842 4.268814838666604 5.151282082026009
Fe 8.748954530601177 6.196821004291036 5.745264756431765
Fe 4.5406988490332445 6.4502100127023025 6.125388911291345
Fe 6.860869693489025 7.626405742469923 6.662675605916969
Fe 6.58126397377079 6.228633700566604 4.44332587565272
Fe 4.283820808891488 6.214595483307557 3.829280712972055
Fe 7.778698505552197 8.246873295873401 4.53834463515377
Fe 4.710581675932537 8.66186169538888 6.951013515893673
Fe 2.95729129155478 7.918698767352772 5.2316248597923805
Fe 5.331096144085424 8.356946948846995 4.6108895284962275
Fe 6.602113151888448 9.804633351364687 6.017321987009884
