10
Energy = -63.09245862 eV
Fe 7.59195943470754 7.099159439236042 5.446386892611556
Fe 7.668622478389147 8.698104476489684 7.125790464963509
Fe 7.01795330610532 4.821290630674193 4.329343714057116
Fe 7.193880499076665 5.053447498303287 6.589351909481505
Fe 6.347687780213416 6.886317704520656 7.874573887614304
Fe 5.618134364095553 8.258775584292074 6.211983771736375
Fe 5.474044218120521 6.43204792986778 4.535745925856499
Fe 5.310789791952605 4.525523467322869 7.750407177226247
Fe 5.10838603945701 4.095230283800621 5.460103001902203
Fe 4.3660495203851255 6.157160067361214 6.542937350528116
