17
Energy = -109.36597937 eV
Fe 2.9413670574753272 7.7144955915332085 5.27271082954506
Fe 9.808575699179356 5.367127283523872 7.942391676804079
Fe 4.279859838134649 6.722770418348306 3.765549551223886
Fe 8.261358427927897 7.193574219103742 8.616944685004869
Fe 4.753286963136085 7.93507320158415 6.647010621396781
Fe 3.9377392481837648 5.726069310778705 6.016233226883934
Fe 5.2326681397135415 4.6902092788314675 4.364250306393138
Fe 6.173552930999909 8.584335363439092 8.438956159354575
Fe 8.462637184551363 3.678137400641606 6.808082891469916
Fe 5.326800290022432 8.77664233203273 4.738958396681672
Fe 7.719780965840018 4.75806110819677 8.680012837012404
Fe 8.127609431402222 5.922268428435161 6.25581960759367
Fe 6.255850600203499 4.516314266284404 6.4531114399504395
Fe 6.1185431762224285 6.370172175047406 7.832809781907323
Fe 6.08999452381807 6.6670759094270675 5.320255542106694
Fe 9.65637613196861 7.557309009330398 6.850149255937824
Fe 7.352489396134896 8.318854708375419 6.495243195647522
