13
Energy = -84.54130441 eV
Fe 7.365841830784129 7.121155735569618 5.9742851432869895
Fe 6.455338893764655 6.505567366825081 8.152547639825064
Fe 8.00830920804614 7.056480832981036 9.921116451052109
Fe 8.331851605022147 9.322219953998918 5.754733970524548
Fe 5.721551598266666 6.563574119447168 10.345899862268807
Fe 8.794907735266703 7.69377111159558 4.16383643279898
Fe 8.829335445761318 6.104087487203901 7.694635343813814
Fe 8.277523018341785 8.463614629895488 8.027972765157145
Fe 6.394139186069447 8.779930773928333 9.65010452096389
Fe 9.19194829266271 5.7611740706298225 5.31242948147031
Fe 4.538510707172347 7.723915241441097 8.707765181053503
Fe 6.13750815724009 8.833244868090357 7.231115101823585
Fe 9.978089859211128 7.728180606298603 6.377658498702173
