16
Energy = -102.91245982 eV
Fe 2.8253776123560947 8.236911037973357 6.685914633661634
Fe 4.986930618743922 8.763195194943531 7.2097630305112475
Fe 8.032067876125895 5.946053286453623 7.803849417998244
Fe 9.008896049453572 6.0660931920255035 4.078202263848952
Fe 7.148481629354533 3.551928590814511 6.695654171593662
Fe 7.290486242349624 5.292865944961493 5.288922378881484
Fe 9.181569196442208 7.175646071078563 6.1478917248376375
Fe 5.901074764896871 5.031770901207673 8.047368363486182
Fe 7.519242492473676 7.889523736723373 4.701827431630801
Fe 9.297628118928992 4.731947881134882 6.107988900720106
Fe 4.236050294989269 7.216100454304727 5.266940339094132
Fe 6.030082401452981 7.310494793662518 8.802390970310624
Fe 6.22577096705351 6.955653619699779 6.351008818711196
Fe 4.016548656645317 6.50606514976765 7.638707203463397
Fe 4.8807348875430305 4.9489611756705045 5.99120564728385
Fe 7.549309943945983 8.507040722334063 7.312616456722888
