15
Energy = -96.52670457 eV
Fe 5.828089105303383 4.262900864958208 5.768651644875634
Fe 6.958757706514082 7.100322892289567 3.1644069044199163
Fe 3.768496958774679 5.413225999978667 5.243391150447476
Fe 6.118657311555333 4.54590348976923 8.162376486896434
Fe 8.362083615964508 7.2539153214209495 5.073600656396963
Fe 6.798374163735354 8.915785106738108 4.6933223414615295
Fe 6.624890934039166 6.728152978683737 8.937278339591696
Fe 4.522240838435478 5.705111952023445 9.237761902561513
Fe 3.93893976420538 4.504994064137508 7.252263617515223
Fe 5.419665648011883 5.103692367825961 3.5588694756207473
Fe 7.664531703803246 5.79133300384473 6.922006221488146
Fe 5.111120480743926 6.679218748359968 7.240821910930736
Fe 7.604294318323132 5.136850401025442 4.4543271271630385
Fe 5.899437310868406 6.742230728537927 5.168934652692492
Fe 7.2698017995096835 8.123680465677511 6.9054477226491064
