12
Energy = -75.68472566 eV
Fe 4.181471277887971 5.584893372653178 4.165187027632762
Fe 2.7559396416095545 6.386399074905904 5.689722168934455
Fe 4.91349458340757 7.395484705350836 5.40589739827957
Fe 6.349495200524739 5.471539192091222 4.873997363700138
Fe 3.684349629012807 6.630804164047166 7.6134005314466515
Fe 4.758768119191353 4.892374410138347 6.4897930351411715
Fe 7.56543524627996 7.286175467048 5.613643989529391
Fe 7.331650212889079 4.964186933195448 7.026092592198015
Fe 8.555986127210822 4.900420329825042 5.0258013124341145
Fe 5.936674274704171 6.808420071667191 7.383780772247922
Fe 8.124404596549738 7.155505380923993 7.842783365692406
Fe 9.554352469791011 6.2173149560439045 6.389980222811457
