18
Energy = -119.09577889 eV
Fe 9.542718043484058 7.423319959923819 6.103602247732172
Fe 9.47742173323443 5.1379101482852905 6.708451968713632
Fe 9.199668682514362 6.983287840468843 8.396638752304469
Fe 7.860908259710225 8.69827150691355 7.366844095120575
Fe 8.199199751674719 5.681107857907597 4.786985561771061
Fe 7.395428756827032 7.962430245388536 5.2190026610013796
Fe 7.49376264758458 6.250928150122407 7.138144841696526
Fe 7.161423132560794 4.1133599501068625 6.315891191511959
Fe 6.507995493910936 7.2316236646399155 9.03037451771718
Fe 6.3770350198924195 4.124532476669763 4.034848872157737
Fe 5.662815918666607 7.8628558601634975 7.032978860457186
Fe 5.86676316993758 6.0122390227553035 5.258209813839893
Fe 4.127777274669462 7.272171975724648 8.566528595188622
Fe 5.379733231307853 5.338080901962481 7.72673379724507
Fe 4.772049562336195 7.965617577668402 4.7265269700599655
Fe 4.787124740182799 4.069360170237547 5.94819094708874
Fe 3.72607711269838 6.322675433714145 6.188688634189194
Fe 3.5457516847903996 8.633881473329414 6.535011888187607
