18
Energy = -118.92570512 eV
Fe 6.567162814551408 4.148359114911606 6.921567383917796
Fe 8.255704689133017 6.8290916228274465 9.477854825538019
Fe 8.419088786725453 5.828117367951196 7.3152176896083905
Fe 6.281955499949058 5.932808181594459 8.611782502541107
Fe 4.367807351778889 3.9826497181922953 6.0368874799115915
Fe 9.537396976733653 7.81199469553205 7.822392653682822
Fe 7.897335183786634 5.614502193174566 4.823206392517005
Fe 5.996469574999213 4.250675479731986 4.430128847108986
Fe 3.797716233661672 4.829726706854424 3.9440493331718867
Fe 8.255045247188397 7.804780039395471 5.944017647289238
Fe 6.1859114550301495 6.306080958476198 6.182914400268036
Fe 3.8325558517006684 6.531185228126657 5.5893441388878315
Fe 7.089732276378687 8.158207796004659 7.893651047959074
Fe 4.18128702922106 5.453827340345806 7.698607350541235
Fe 5.421257728050815 6.480546351965128 3.8622065787466497
Fe 7.265864706362854 7.740926447596836 3.9794394165233276
Fe 5.767579361033745 8.516642503699103 5.623795850200837
Fe 4.750281838560664 7.705785202847794 7.658385377342019
