11
Energy = -68.65077325 eV
Fe 5.150396875622622 6.212445233391307 7.614081469279896
Fe 5.144978845021346 6.207006006162144 5.08254345202121
Fe 4.200416834324893 8.07527066639385 6.345765967828867
Fe 6.93409115921661 5.115250133988532 6.362195777405645
Fe 6.621498109499436 7.685844363994342 6.353955907877291
Fe 3.085515390640947 5.964170286236691 6.34976222277641
Fe 4.667817760793484 4.175945407271573 6.3557143214787954
Fe 7.839574219812735 6.533775643890689 8.069713005473538
Fe 7.834665400144633 6.5259120688454875 4.6344645686695385
Fe 9.344094227525359 5.563854856277635 6.364072329287854
Fe 9.067272628210556 7.83084673068376 6.3580524287134415
