14
Energy = -90.5104339 eV
Fe 4.139116915172442 3.174188650927658 6.744558527218615
Fe 7.4652285219427865 5.283421541678391 7.780824755413477
Fe 3.582391543760389 5.4344851713746145 6.767598059705882
Fe 7.852729579897904 7.723580709856923 7.4273978858656164
Fe 5.949307059119497 4.502830465172801 6.157897808419996
Fe 5.111530732706871 4.66418696518686 8.361178547349924
Fe 7.496378187479739 6.230722112921804 5.62366648008579
Fe 6.419788324911438 8.608071101368713 5.801729575157815
Fe 6.752668244289303 7.488641260330417 3.7411615318282103
Fe 8.623032575830438 8.215377258508825 5.200079746476029
Fe 5.605738055461373 6.78248820703477 7.263436902305819
Fe 6.354613175981237 5.054263159193842 3.864846630235013
Fe 4.087664494883983 4.5032133876552285 4.65928836773081
Fe 4.916749806276854 6.6914672265034 4.963272399921677
