14
Energy = -88.44739637 eV
Fe 4.292672732765202 6.89844707028915 5.744680033024396
Fe 7.618078780007276 6.471971397257168 8.46224751158097
Fe 6.037610146332446 5.408681395382917 6.790893936097226
Fe 7.73373442541492 8.974812850629124 7.212861985811258
Fe 11.234749683650808 8.387550586298108 9.368994773220479
Fe 4.4287635448863645 4.639261645716865 5.196798500573822
Fe 6.101255584643146 6.083154463551611 4.442920001419828
Fe 6.177796978847242 8.270032244462493 5.344308385758202
Fe 5.732998798392207 7.7431954421907605 7.622080700174808
Fe 7.911158102713196 6.836865368646974 6.090598592108049
Fe 9.293660379908326 9.614806515352505 9.072843858211014
Fe 7.210410959141209 8.543706556989918 9.493638482518383
Fe 9.687800843284617 7.5321874020895505 7.740239898820616
Fe 9.231355242155797 7.482623212168339 10.14782515496551
