16
Energy = -104.54170325 eV
Fe 6.051149467109539 6.904933877772368 9.66537695573507
Fe 5.169104790206606 8.650591975963254 8.19555966579974
Fe 5.882313889379329 8.080653431556925 5.880107055445965
Fe 7.0301586767410535 9.625837739362591 7.026001641689782
Fe 3.7475061576421758 7.689126208674107 6.560958841444012
Fe 8.923229341896011 5.851213449822958 4.818217506711073
Fe 4.850893373106946 5.992561152647146 5.191459588825176
Fe 6.904107453533259 5.741387973149459 6.12509532084757
Fe 7.303334826398574 7.567070478039654 7.74888191280661
Fe 7.2549168871341765 5.136190761251731 8.513951749653792
Fe 5.124959865340866 6.167071147723911 7.6685255194922295
Fe 8.291969572172754 7.92194518469313 5.611054324951386
Fe 8.500137446351184 6.835661945092526 9.444788358358172
Fe 9.230985567436553 6.243709030726213 7.245176377032261
Fe 8.513212908860535 4.232670366357282 6.587058254973807
Fe 6.82229787492652 6.956009912630252 4.026571058696167
