12
Energy = -76.24458304 eV
Fe 5.876955596643434 4.716058135348095 6.708345009120833
Fe 7.933432153056658 7.464547388118827 8.177760593285786
Fe 4.467015888015659 5.888414482478268 5.292892450330004
Fe 6.575768395707849 4.682214677941837 4.478146893481323
Fe 6.208556254537145 7.238673650147456 4.474090188518677
Fe 7.816076114614686 6.193219009990082 5.764451375077507
Fe 7.60413292677868 8.490684514536348 6.1262059572473
Fe 5.171818622574712 5.695213258321367 3.0760558343433675
Fe 7.814827165051838 5.208594451392354 7.837439867088516
Fe 5.870801112431123 7.223800191484216 6.925182551542147
Fe 4.159845404940742 5.933956649781941 7.7133105640355435
Fe 6.117094398935439 6.177086314602596 9.014134372878544
