16
Energy = -104.58500598 eV
Fe 7.385188878336013 4.925011368312712 5.797748785754523
Fe 9.312099232407613 9.109513697858905 7.138023349610997
Fe 4.842660530457614 7.295480529908819 7.204853399691779
Fe 6.568351549257759 7.212578206008294 5.381250395377761
Fe 8.585708462430775 6.502641539394587 4.231596618690987
Fe 4.934183255161501 5.464028544589077 5.504161464024891
Fe 6.524451722292316 5.426984457298563 3.7640910474305893
Fe 6.901016879175394 6.196538116413934 7.79271419830629
Fe 6.15967834161966 7.898873919298611 9.222280494807759
Fe 8.931983283877713 6.842721131282923 6.54436220235429
Fe 4.829549595074052 5.87889053700378 9.228570613707673
Fe 8.25580923450408 8.743332818985326 5.040453550437
Fe 3.3786659291839904 5.487328679196576 7.393825241753902
Fe 5.381515947952894 4.38222050194148 7.56898936077295
Fe 7.0196506322525085 8.707756352956187 7.178527674368203
Fe 8.578531744693109 7.59262755882041 8.79287778697646
