10
Energy = -61.51202738 eV
Fe 6.517070727223459 9.7878031828845 6.987871246278468
Fe 6.025338659869843 7.669535935247618 8.10597782755462
Fe 6.061156118068763 7.772004613516099 5.681323334238408
Fe 5.591370371008831 5.69274008808337 9.099309898379184
Fe 5.5582968532019486 5.589541223031925 6.795374995700829
Fe 5.664895568669548 5.886409103477462 4.507296160926947
Fe 8.136409849936463 7.951942750940019 6.935434167416391
Fe 7.651340960250077 5.762473305136102 8.057773201028823
Fe 7.687356364947714 5.8730207717215945 5.613422370701782
Fe 9.581582272659283 6.2235520460033475 6.884621048984651
