18
Energy = -118.46667417 eV
Fe 9.25896814418528 4.2986535685203044 7.17472644708144
Fe 8.72152406321836 4.935128554000926 4.990853469236446
Fe 6.407948185475334 9.677164154090105 7.701395841141437
Fe 5.216643180060702 5.568956033699041 3.3633078719060086
Fe 5.278335688701468 9.646629617890444 5.641787938463141
Fe 4.946014235960327 7.707249054732886 4.460794725108512
Fe 4.90332925654506 5.405760472741116 5.729177125171957
Fe 7.511898148596396 7.810804511961696 8.570030597219427
Fe 8.304506611833123 6.560599280126277 6.754412206916477
Fe 5.8483774646012785 5.778049786822754 8.346118241455182
Fe 6.66516736090001 6.635844629378076 10.510432008534965
Fe 6.923182886326709 6.4166227954954085 4.740346711633438
Fe 8.107832306100692 5.40071081307793 8.835595493370288
Fe 6.514241606945504 3.9912734147457227 4.413688920103625
Fe 6.95756482861438 4.490251175033704 6.674325507234846
Fe 7.424186044243076 8.629561630239442 5.783275273956482
Fe 5.229288928647891 8.071085571778516 8.995627559350151
Fe 5.621104217435375 7.478168863488029 6.7555580873793994
