18
Energy = -118.72124155 eV
Fe 6.351907056811946 8.9542908921866 5.587506918581528
Fe 8.885639789246918 5.547208143302749 4.790305617044991
Fe 8.149511442916769 9.872785420963089 7.03391922184911
Fe 6.800798213530075 6.462350449480685 5.583159427137464
Fe 8.763714896150022 7.846602962771169 5.559742225824773
Fe 7.902851611491747 3.6939702179649 8.057364780833336
Fe 6.5086347918848455 5.580899837191211 8.017238804771257
Fe 4.77406274881663 7.420188789541574 4.736778602645697
Fe 8.788706201192921 5.757424895162845 7.082253521287737
Fe 9.705792157687652 7.982374948708695 7.66770861503658
Fe 7.408106451552172 7.786506043031333 7.657565098207879
Fe 4.1738154950543604 5.234300715189294 8.235079848168406
Fe 4.849546947344817 5.116371559472077 5.975573771652654
Fe 5.556389866699088 3.41500159178269 7.527155961162735
Fe 7.210882093532784 4.08405794928066 5.901037795207762
Fe 5.000374355632796 7.28377563132476 7.202376605026763
Fe 5.757473682496741 9.467943533616571 7.853842278809179
Fe 4.065014291216905 9.154003919697368 6.165958053073022
