11
Energy = -70.19990443 eV
Fe 10.10756334154848 6.136154940427277 8.69512781915989
Fe 8.296002239643192 10.581699404910271 8.603904981355132
Fe 9.872929459974559 8.491461896534716 8.80469593735005
Fe 6.753620147503633 10.108729476364193 6.959335975779971
Fe 9.336510395890507 7.059729336530853 6.745297556657911
Fe 9.052833604487631 9.37631434328939 6.732769351818491
Fe 6.135496257249329 9.50752643143056 9.150137769389069
Fe 7.4401002850179765 8.08755823538308 7.989652381286657
Fe 7.786643451929072 5.756007528465575 7.800226065356376
Fe 8.121101670267327 9.003006224034298 10.283385439273802
Fe 8.241441277394216 6.715245238210342 9.844222745269164
