12
Energy = -76.42076486 eV
Fe 6.561162953994574 5.8252183366468016 3.1312062680445485
Fe 8.5519278194415 5.325593138189755 4.023808845426992
Fe 6.724566565950897 3.9853113462878293 4.556287525305511
Fe 4.9865694700982575 8.061953589892363 5.948154436104582
Fe 7.234585046265227 7.15028991682177 4.9909595557434105
Fe 5.132217519198719 5.8567489294003385 5.0859272371683595
Fe 5.682832941440284 4.548964136695664 6.891907745668018
Fe 3.8683020684242404 6.272851697122366 7.135004933866079
Fe 7.8516633399341975 5.104369526448101 6.289314477319878
Fe 4.74890560838109 8.097232673413439 8.312521146479437
Fe 6.5058352156580375 6.905692781286464 7.288860503736858
Fe 5.312936130522133 5.852952138508599 8.916665985555468
