13
Energy = -84.83798591 eV
Fe 11.175684090582996 7.571993580474293 10.257218722935166
Fe 7.332916424176636 9.770163155708047 6.417845665164892
Fe 9.319141824553073 8.954735628544533 9.86151620829146
Fe 7.097138989407059 7.924405812389988 9.800573215966299
Fe 6.796881399802103 6.326410656398409 8.106260754911956
Fe 9.644020302611352 9.962946050086238 7.62448784047342
Fe 11.484527181649211 9.63818860151774 9.279346998529883
Fe 6.9288213389947195 7.422256818547482 5.9407093902713335
Fe 10.86482799150662 7.8055571540993185 7.943397996893943
Fe 9.120743147254665 6.570909208747647 9.274320909978218
Fe 8.41315107159665 8.014903325946294 7.62823949619041
Fe 7.4397964490651916 10.071035381625737 8.756622854926958
Fe 5.8383333018285635 8.474988117222777 7.73498654573045
