19
Energy = -124.91138764 eV
Fe 5.418770938768544 9.791982927369629 8.17386429438423
Fe 8.53877820415497 6.406481132265804 8.276385682342983
Fe 4.485931373863326 5.906525134364743 8.374478235068038
Fe 9.752799158876368 6.978709663908695 6.070175344868077
Fe 7.425073595316755 7.069724711260617 6.2383890742772605
Fe 3.929393574791896 8.206396143375372 7.682348496356217
Fe 4.443069555307397 4.493064127693982 6.174463524524622
Fe 4.9698867317179225 6.807257396431613 6.139315245674983
Fe 5.969784745206739 8.984184055516941 6.056178517718331
Fe 4.271856531017527 5.782464176449957 4.221858938021924
Fe 6.4875573719972355 5.070607479555731 4.891634675327811
Fe 8.684570284902696 4.884005371170886 6.1820323966655
Fe 8.242331830778362 8.567737597953721 4.72751803786506
Fe 6.472048519456807 5.111465002934049 7.3320368577312935
Fe 6.723871442143121 5.662589974950129 9.62263932117063
Fe 8.232014761763754 4.089946660458763 8.43825866121107
Fe 8.523978421163443 6.287491475363734 4.109933095668243
Fe 6.234483539878026 7.342678463857343 4.072761322716606
Fe 6.249469820416535 7.612358906638769 8.271398679928131
