15
Energy = -96.45017117 eV
Fe 7.135017093258091 5.465841196739715 3.4459877864172705
Fe 5.093591150681214 5.074755860239058 2.106133168003288
Fe 6.80210679547372 3.558836824690225 2.109449184674925
Fe 5.023345983096024 5.988222942182653 4.327687439108471
Fe 4.932736834649839 2.838271130556497 3.250969524543733
Fe 7.133154921581176 3.451989448346847 4.488972462286162
Fe 3.260209283761892 4.438799122669028 3.4739878289377857
Fe 2.8349612526175405 6.216965478678043 5.156564088654549
Fe 2.765914645889548 4.099581623359863 5.888945762416587
Fe 4.935491758790351 3.9281851407522828 5.2154992342110695
Fe 6.454115752124351 5.420407090224761 5.878527294754714
Fe 4.689776545555761 7.396088509582145 6.238818774481944
Fe 4.58386962582427 4.224772337669527 7.489325614692281
Fe 3.216741666366333 6.1136891316476 7.475043653473096
Fe 5.629793544642407 6.274421016974701 7.94491503765708
