19
Energy = -125.12024967 eV
Fe 8.113942881664768 6.204218461182121 10.432644812993638
Fe 4.676105507072888 5.638451749456063 7.129323244328683
Fe 7.805790974776916 6.200423170773012 4.444543231837524
Fe 5.883511750778989 7.8981836243877215 7.6821037303730915
Fe 6.306126548687013 6.016358267209133 9.028999566858984
Fe 6.592033528678209 8.235038881723009 3.5381829910108538
Fe 8.701476410588583 4.995891980917498 8.405698320944753
Fe 6.441530447505483 3.9891550790493793 7.518900399664266
Fe 3.6827339355874824 5.657900767686529 4.915179820313947
Fe 5.89265795119901 4.767514008847078 5.190890474830435
Fe 8.287339466822099 7.3711262943007325 8.358306311318099
Fe 5.658332482358936 6.065707956000915 3.2474437396097424
Fe 7.72993942536861 8.291390650389884 5.933308251342692
Fe 7.22597184519492 5.996831604492358 6.795309249311407
Fe 5.633010548030272 7.282728531392525 5.43961217770169
Fe 4.036401244711078 7.750389364159226 3.9065769391627096
Fe 3.5628355661381157 7.57020417382218 6.410865499927515
Fe 8.851202060277672 8.199824135014287 3.970783310493265
Fe 7.173788711730047 4.123392586367689 9.90605921514792
