19
Energy = -126.32304374 eV
Fe 3.612494277881702 3.430249366899022 4.3044617356560115
Fe 5.842189095211761 3.372406358677139 4.789824614774692
Fe 4.604291147525019 3.5832649099390808 6.776464937639795
Fe 4.561102429462528 5.442928170739702 3.726443803455705
Fe 2.9594793852688506 5.042432785455846 5.702780554204923
Fe 7.234929683615657 4.170477506847628 6.557414803792469
Fe 6.968105593496023 5.102251407254887 3.7694977744212363
Fe 5.715071247242574 4.805113502901465 8.437980562807912
Fe 5.580893812307165 5.714573501691264 5.993178428002802
Fe 3.7387260024813007 5.8770121509410185 7.735864120411232
Fe 7.833930255945111 6.357360786430203 5.5282952415181725
Fe 7.684451170243336 6.067073543982057 7.955671702276389
Fe 3.906046542192054 7.174423521513391 5.467899166414606
Fe 9.526247030271604 7.245201665194084 6.737714649892851
Fe 6.17600507737508 7.268584666194184 3.8519572550274113
Fe 5.57031806892374 7.31909843291775 7.824618815725892
Fe 8.192508662510829 8.57301007964416 5.067672249595516
Fe 7.728117037547637 8.427665689873026 7.4226797238526405
Fe 5.938580918643135 8.47200423010416 5.774604360109929
