13
Energy = -85.40876542
Fe 7.947458633927373 6.524931346769015 9.331882304428117
Fe 10.541811093206809 8.564942923488061 8.145320261160522
Fe 6.976311149060495 8.896734962347049 6.820935139386468
Fe 6.186864456592782 8.163471792703653 8.583830446239414
Fe 9.584383157975852 6.639199030038231 7.966936363570641
Fe 9.240986824533245 9.88328895268715 9.577585976102647
Fe 8.499906385875855 8.227571696048022 8.500257229078782
Fe 8.973693201767347 8.22757169604802 6.273399890690971
Fe 7.48500751979762 6.846069339753626 7.1499066131068645
Fe 9.752209894964498 7.830730146511231 9.905842239857773
Fe 7.142187073078193 10.087348606021363 8.76016238310531
Fe 8.779990445723076 10.201749571162447 7.394972169976013
Fe 7.756151783662301 8.500022316256654 10.455929603462183
