10
Energy = -61.5413942 eV
Fe 5.626048642381015 9.232410457157744 9.946592782585382
Fe 5.011897288176305 8.110275471695788 8.134923373771306
Fe 6.483084874134103 7.896885104705749 6.132025867450291
Fe 7.325091543084571 8.490853737894952 8.522924776999087
Fe 8.113246923845649 7.8434981630701355 4.510471011094134
Fe 8.824489867611417 8.414392937438848 6.603204416057895
Fe 6.633271110140281 6.287701862241566 7.814169273177676
Fe 8.26194721718945 6.094066291889568 5.98912200860733
Fe 9.047162991408626 6.79415442449467 8.32100853112517
Fe 8.329986140058498 4.712298383457419 7.862711662074665
