27
Energy = -183.25436105 eV
Fe 3.752179764772945 7.052846008231057 8.858257075637564
Fe 6.030392455488218 6.920754730309748 9.344820563335107
Fe 8.5218521055707 6.872079487725525 9.143744281177018
Fe 10.816238051498187 6.843389127548328 8.82654969347943
Fe 5.31923876291687 7.120721686962379 7.03264996838606
Fe 7.694834364302501 7.143415157596713 6.905950959057377
Fe 10.071502004243195 7.169112167895834 6.602637168393679
Fe 5.976680779185688 7.3087866035106925 4.612552830820643
Fe 8.413929068037087 7.388631265567862 4.72774488400725
Fe 4.7180984544953635 9.078311674769857 8.368539478055116
Fe 4.6959255764420815 5.038996958327218 8.003272610625567
Fe 7.073697196262096 8.954093616713386 8.392223124424834
Fe 7.059776568849608 5.04689125123844 8.028206530900546
Fe 9.494462713588483 8.889698292419142 8.29166247248955
Fe 9.539955165270154 5.132923217993546 7.790558206261047
Fe 5.972068519212608 9.27543070343042 6.181624213418151
Fe 6.124997147626458 5.228154146699265 5.804630302250501
Fe 8.654274392964028 9.292634797409882 6.15363711680586
Fe 8.608589345790527 5.205311976124968 5.589609544604659
Fe 7.287672509283315 9.331886705955483 4.236441789163032
Fe 7.389956132328247 5.577475901704272 3.6480350272411552
Fe 6.1683120124877195 11.091313315250776 7.840453694189737
Fe 5.6819569715609415 3.172396908280901 6.817297578965463
Fe 8.507004417733677 11.051225232996757 7.981547750912573
Fe 7.990313627829211 3.240379687938645 6.696223834792663
Fe 7.44184517180512 11.284745549604756 5.906484133501109
Fe 6.915689589477762 3.4257565312745304 4.625447892416502
