28
Energy = -191.56964464 eV
Fe 6.040394861773241 10.11411659375417 5.703833359598095
Fe 8.149973284760526 9.041660805204604 6.023553385630868
Fe 7.375314752594401 9.230676064620082 3.7185204986627554
Fe 6.7595481208358095 8.573144553492972 7.813154670965448
Fe 5.187415769808137 9.236010806480289 3.27453890620976
Fe 4.541602660050424 8.910273183512063 7.402660749071029
Fe 3.8203121909792803 9.333750837588868 5.11309229455904
Fe 5.921109019897703 7.7722785310403415 5.382805263604321
Fe 8.43300252736794 7.296304567410994 4.379499966482411
Fe 7.764715518007404 6.676767919901283 6.636037815470045
Fe 6.216576150874362 6.946367598715982 3.1669525313606166
Fe 5.394094522614356 6.555704245262789 7.50947559016692
Fe 3.904929310087087 7.238140242786927 3.7575256608704284
Fe 3.4235904613849106 7.203948523222436 6.188394435445467
Fe 7.203362333770486 5.406916019221283 4.751891103361894
Fe 4.794772898597848 5.588329839060583 5.20029817988927
Fe 7.304774212785807 5.960444596818741 8.77495631596747
Fe 3.739917997422604 4.8351640772994395 7.409976405883924
Fe 8.65062322194351 4.459696049433396 7.011041677372825
Fe 5.804351478402555 3.7380619381039377 4.053305354662555
Fe 6.237383897255271 4.307339591070942 6.702408933354973
Fe 5.224493150226272 4.630803418426771 9.145520236022135
Fe 7.942495197949859 3.2042987346983494 5.091166449008893
Fe 7.341920857037486 3.626603857623594 8.958648480473666
Fe 4.000735002641177 3.3765240712711138 5.69470047273965
Fe 7.596638470798436 2.230033675417075 7.235880278215885
Fe 5.8633844799366805 1.9159125431200852 5.666160719444212
Fe 5.118266728774162 2.6492303356191793 7.928644522139356
