25
Energy = -169.25254999 eV
Fe 5.685642483072684 7.918365505044996 7.910453842608947
Fe 7.680668945832194 4.574944031746584 8.438038365396109
Fe 4.023897617195023 8.858001245434679 6.522612590022351
Fe 4.296798648187571 6.322727121641208 6.6997188406825305
Fe 5.94555605396188 7.954295301061683 5.3975834725380345
Fe 6.276265706263097 3.1679319653026874 4.66306073487736
Fe 3.947667107733893 7.212217114406133 4.63215330436022
Fe 7.902867211624384 4.269425978290493 5.888275406265571
Fe 7.720646561995102 4.666336352845815 3.5337936585359095
Fe 7.942241588302821 6.729860515821326 4.786475272068899
Fe 7.88745826711326 6.998780251581782 8.960413900266621
Fe 9.902292184795389 7.805512900702419 5.557892647839999
Fe 5.744090311210482 5.486106998642686 4.720003713692765
Fe 6.295320413125968 9.986676206878698 6.725610545768933
Fe 5.873712092855016 7.76444181711919 10.19930851658706
Fe 7.255674304468612 9.430964877979745 9.041475144439671
Fe 7.039628902456839 5.6014563795841354 10.563697939961996
Fe 8.043760922410268 8.275615995976127 6.9383064786678625
Fe 4.951818866693888 9.819401788450712 8.837493661512125
Fe 5.473200913377976 5.657461556533641 8.909942810586355
Fe 7.945712492074591 9.218396799765234 4.8570414113709575
Fe 9.786380520003059 5.281734190080679 4.800684080219392
Fe 5.591805586882419 4.124459797109371 6.805838821117186
Fe 6.815796267350753 6.133602007557528 6.897005168337092
Fe 9.276007289286824 6.0461945587164365 7.018030930550182
