21
Energy = -136.84387816 eV
Fe 9.088055707746102 4.7535563946534936 10.650379967117784
Fe 8.283532031016296 7.3155672996302155 8.024199456597273
Fe 3.0870163763119893 6.4237048038011055 3.9140418351858886
Fe 7.845775430651326 7.050479349751374 4.122760863967695
Fe 8.584035224995564 8.401681820966282 5.877712972259953
Fe 7.399808512591361 4.867096592383506 4.765642846876077
Fe 7.546255594735904 4.7763207138237735 7.301585559398015
Fe 5.516095957682587 4.375955763351738 6.100660811137999
Fe 5.46861285163586 6.228593536949315 4.1316871144633645
Fe 5.2107098438891155 5.701880473359149 8.105822782397526
Fe 9.501116402007321 5.338475266721488 8.536049258395474
Fe 3.992813943710122 6.195758525323019 6.064252652178361
Fe 7.328886225143706 5.613381320319229 9.523984509780586
Fe 6.14300986984071 7.699565437876387 8.967445333366868
Fe 6.7278802424550515 9.171409829882961 7.128639311986932
Fe 4.232930896556932 8.336159436564976 4.859401772447031
Fe 6.297454561940171 8.8312356400301 4.756253011834939
Fe 4.139160665690836 4.421550987483908 4.198984875749142
Fe 6.521037034799173 6.834742035795721 6.289281550483816
Fe 4.63998925912062 8.173501711612058 7.244413847743535
Fe 9.064105691031381 6.107665383272327 6.055081990183166
