27
Energy = -182.6781382 eV
Fe 8.546318626684092 4.594726775243979 6.621914742710676
Fe 8.870405323638956 9.419643144469191 7.297937167201704
Fe 6.922419945021983 8.782725610603142 6.257667654057017
Fe 9.083958076779004 7.163690675419755 6.946369162361446
Fe 4.4670013261650645 5.717751263392116 6.7740005160295835
Fe 8.079061050353125 6.241389062881072 4.833049003974247
Fe 3.370760800975155 6.762401158088513 8.672083955375339
Fe 7.122057401700974 7.46710597248416 3.0751805617851318
Fe 4.825446933616829 7.158150674970262 2.974167646242455
Fe 6.254084459223622 4.186798657780137 7.963301845392595
Fe 7.11380427973243 2.611625989411984 6.37973223174614
Fe 4.607681944038446 3.376300257083877 6.402341099531556
Fe 8.578060502769546 8.707240308374063 4.726515976931988
Fe 6.1802091789441596 9.280386819585393 4.213607266081
Fe 6.337822653879858 4.581790600300776 5.4000868465341005
Fe 7.643601013394998 10.733923307579724 5.430196413211714
Fe 4.951217003284666 8.266019854591942 9.698518297096427
Fe 5.687648803245057 6.176289282772123 9.166375753060388
Fe 4.037723478506066 4.4127817855916085 8.744363843668136
Fe 6.864193512183272 6.400653449153245 6.985526706927875
Fe 8.241915962660165 3.212002124021786 8.473701335663547
Fe 8.143541687266264 5.664668382556272 8.87862873999191
Fe 4.24037865512983 5.19451183667232 4.356377225506608
Fe 4.983628811792593 8.043802140938977 7.392440055675696
Fe 5.651732677033308 7.049325070724653 5.049518926592894
Fe 6.432979389038413 5.240338773665974 3.1693611726610893
Fe 7.263824582373508 8.055435101074478 8.618513933420106
