26
Energy = -175.2232549 eV
Fe 4.198337277793177 5.502945699991471 9.485596202582578
Fe 7.587474522000668 7.78621663749008 9.355535986166139
Fe 7.204380934528134 6.668446418921577 5.385588998084988
Fe 10.996038042729923 8.222263187359815 7.305167136499305
Fe 9.813132119486443 9.057893847984403 9.141595866167643
Fe 5.09028549325396 7.62112581987417 9.949696232007629
Fe 10.256070936105592 9.104747121683767 5.29239323396852
Fe 5.82519491765146 9.22582480661342 8.16383397096904
Fe 6.83185566894171 8.385939149406305 3.6867671910157838
Fe 6.0779648272719 8.891418933057277 5.795487789279319
Fe 7.192659175033517 10.801029126093457 6.799918258498005
Fe 9.5000624506494 10.410173793712108 7.126030245261002
Fe 8.230216653927686 8.351229164754248 6.987331507417893
Fe 6.401435733319949 5.678201503068093 9.295445596681406
Fe 6.024824676281152 4.394832610649381 11.009878959240945
Fe 9.288091290299365 7.3140866593968035 10.87784703461482
Fe 9.727435282952921 6.609864546061518 6.070148149997544
Fe 8.958290390868184 7.70830675492616 4.058171362634952
Fe 8.122736420934752 9.972823299653655 4.7873165692155295
Fe 9.77578651348746 6.662664572944738 8.584181209908653
Fe 7.909201847083546 5.821607660609828 7.564303573450406
Fe 4.475540122542678 6.196246241607104 11.656360023600046
Fe 6.831852586333277 6.537918826724454 11.374450130241504
Fe 7.7634613299281785 10.146822953163563 9.040148007490624
Fe 5.858012176191273 7.013186728338807 7.431399190102821
Fe 8.524983655610395 5.27736248849598 10.138129960573467
