22
Energy = -147.66693938 eV
Fe 8.281851308902157 9.23444735552964 3.8311708806614697
Fe 8.029735357473482 7.594564562932095 11.302896734469597
Fe 5.955735539074492 7.710900912694005 10.34155563220533
Fe 5.3960364616238286 8.156865999871842 5.76552189962175
Fe 5.641922235338918 8.310221936783227 8.095070610559546
Fe 7.584264840800923 8.444379102741356 6.706751803012202
Fe 6.57032880134805 6.214089230762404 6.810227648681631
Fe 8.028913120405795 4.900148554176807 8.406224591812766
Fe 7.505972009112674 7.3681425663934395 4.6135722799723675
Fe 6.42119967559634 10.020260004675713 5.0982193821652215
Fe 9.330560698980145 5.802459458069545 10.295031307496222
Fe 7.864580848061278 7.177199158300776 8.78016132002242
Fe 9.803214622082995 8.280574231834768 10.04519079905727
Fe 10.416497876869563 6.543866809495447 8.403586113129068
Fe 8.622563328556529 10.302675109987007 6.080894762611014
Fe 5.524156054224134 5.957606177586003 8.854404053850473
Fe 6.4011124006919795 10.4298933843704 7.362055172659384
Fe 9.776550530790052 8.243519062945792 5.4630049037922035
Fe 8.963829448736202 6.396920674445761 6.594895046202286
Fe 6.993790908814838 5.475255016330664 10.54973316076661
Fe 9.782710273717223 8.711154435266014 7.734748499551214
Fe 7.807067436597046 9.459684801402965 9.12810910152768
