29
Energy = -200.7975065 eV
Fe 6.879334192263584 2.3769122917370034 5.482813511264021
Fe 5.573195379595266 2.9286944798580445 7.6651085663628065
Fe 7.9447619007563866 3.0510096030745144 7.674850646920629
Fe 4.219892027390492 3.5105542073860305 5.811866077707239
Fe 9.18159241981319 3.8382778010816847 5.931815356391329
Fe 5.50137614314852 3.8837126458402653 3.9454672062172973
Fe 6.718831364086183 4.907012478063262 8.763693211651765
Fe 4.669158731851921 5.1822313516195635 7.555464006624637
Fe 6.649636719589771 4.514599461822564 6.084710977856322
Fe 7.969119668716681 3.971282771534552 4.000479897674291
Fe 2.9800369263844915 4.861215242198799 4.133426843782607
Fe 8.634363787151091 5.528675190656454 7.5656828661088955
Fe 2.5727742092289625 5.199866889942102 6.482677477666754
Fe 8.578966077001427 6.151655156313965 5.266505934085258
Fe 6.429097273158192 6.637717732092298 6.865487748182056
Fe 6.685845037956734 6.033203378873825 3.9558710122800855
Fe 4.776837160527897 5.5991600673342345 2.535629094598532
Fe 4.6420123787396355 6.133215613984156 5.1559772767940055
Fe 7.8839141947734666 8.030221375812776 3.8340412721183776
Fe 2.167667934759101 7.136230218501693 5.339934351775137
Fe 4.010391697632042 7.484580290629339 6.995196549908721
Fe 6.209800928301574 8.358298317290366 5.426082998783418
Fe 8.296716895219777 8.11970921685496 6.669581492821126
Fe 5.261191561000637 6.90409769002017 9.131043107713614
Fe 7.6351180336336295 7.323766130471077 8.827969202578041
Fe 3.047658108147673 7.080081258169555 3.230315208316049
Fe 5.337051712654325 7.874275297030456 3.205964432166479
Fe 5.881415889412948 8.79410076848937 7.781055098151091
Fe 3.8959877517750376 8.700988934540543 4.934508621309079
