24
Energy = -160.73117134 eV
Fe 2.512063643118785 7.829394857678233 4.115088765993983
Fe 2.4510175958336564 6.295190210852142 5.9013991876367475
Fe 3.9185454597064453 4.334444933372181 5.765455632977216
Fe 5.680334046049748 4.556026778496945 3.825950431862867
Fe 4.228222957490471 6.289838578494113 4.246398517264323
Fe 4.622670737854788 8.66563298438491 3.9299127071577975
Fe 3.999680710296101 8.002373268024343 6.1594647678067105
Fe 3.973361997755709 6.101511948702151 7.827674754528775
Fe 5.081776450800508 4.003874615035665 7.827100849966637
Fe 7.64230896537344 5.122725991614233 2.6726412826497223
Fe 7.572681888911006 3.103990286255739 3.759743624966885
Fe 6.615662212763543 6.8373265142279225 4.101826157098885
Fe 6.198509180368264 3.290491494051558 5.77089657198196
Fe 5.696098539215477 5.888830049839294 6.138654810298297
Fe 7.980870799141804 5.0086902628116485 5.074212698447899
Fe 5.728668516108663 7.9771277615956375 7.9388931608082975
Fe 6.3566299645493105 5.861814727058403 8.63447737055515
Fe 6.309024670352825 8.625557385426347 5.645446044891278
Fe 7.527841874304337 4.4110045334537755 7.319701782529031
Fe 7.752201699531946 6.937089594640448 6.559949102705577
Fe 8.469628217623859 7.094007573782875 8.831739559965566
Fe 8.580788816918357 5.045869300310349 9.367890402597943
Fe 7.796516586639241 9.038442777976575 7.505834929117963
Fe 9.545706388219289 5.599275350677826 7.100052865779455
