23
Energy = -156.54607675 eV
Fe 9.311716271863112 9.687292495962101 7.043574171499449
Fe 9.75054354564615 8.897999594520602 9.700307469366667
Fe 11.314554733807174 8.92232989746736 7.8708851848122565
Fe 8.427321309850333 8.135422651808135 5.464593292747489
Fe 7.336058726773912 9.699378157843652 8.585925559542808
Fe 7.216264308503928 10.361512192043977 6.252738969423274
Fe 10.579902205190907 7.192408309613084 6.379169218720801
Fe 6.338284235751205 8.936793578592448 4.711033514881243
Fe 11.337544021717212 6.9204266784368915 8.871486156023218
Fe 9.002613527822122 7.616058813237491 7.997746579970002
Fe 10.025959276697105 5.306807221037973 7.8490398229977805
Fe 5.151020027205943 9.588816633168264 6.998009524895591
Fe 4.382066778539683 8.023321360372863 5.4283368633782745
Fe 9.520524453813827 6.528271935468835 10.221444528383222
Fe 6.198085451965962 6.51160443665771 5.254183469950706
Fe 6.65268568935355 7.760759696378724 7.171795983118503
Fe 8.25480331259673 5.884261239208899 6.363766258751363
Fe 7.8037742924496865 5.588681652776454 8.80132041952287
Fe 5.217041684520239 8.614173795765696 9.160443383537594
Fe 7.454781974405541 7.792513390941513 9.903749867296414
Fe 4.479482592577485 6.940051771455064 7.4795772122940125
Fe 6.052644946521014 5.177851570221821 7.241894709598658
Fe 5.6663378445656525 6.32207878601893 9.443134292814547
