28
Energy = -191.58796411 eV
Fe 7.2204515819259205 9.167689440596419 10.261390860444342
Fe 4.996694703523475 5.799104676687658 8.795193325190859
Fe 10.124746992710046 8.7322563236093 6.285289505211935
Fe 9.886055221355845 8.888134196371318 10.37082936336907
Fe 10.68465475892943 7.467553455589873 8.304934380995503
Fe 8.724128114339464 6.968358895092594 9.624382989093187
Fe 9.351534930078875 11.06881049884651 7.120325191377862
Fe 6.0381323009218715 8.721392382425138 6.539620989489527
Fe 6.572479302470715 7.741759519625965 8.600976189442193
Fe 6.017651995556959 6.316934187343253 6.630098232661645
Fe 9.687029004524868 5.279589799920737 8.107486621362934
Fe 7.312196999397684 5.278443392822375 8.549094390339716
Fe 7.981338799618659 7.1847473345266595 4.988632712891964
Fe 8.923090681734008 11.095492060693177 9.629338786638401
Fe 12.187246336673681 8.51358968603112 9.98214090033216
Fe 10.172811091032369 6.354358682328326 6.001031352625133
Fe 8.04709134688857 9.53619859999876 5.753689318477952
Fe 4.193432942496571 7.7484537520692225 7.795937334481262
Fe 8.711430536768958 9.092238847017748 8.342245746894545
Fe 4.75986852269376 7.818400420954458 10.218959650385127
Fe 8.338075754883128 7.181178658505537 7.170668599649849
Fe 6.619106925718944 6.527342141838537 10.656279065623616
Fe 7.992452015099816 5.008095495243145 6.245984760595992
Fe 5.089938560485939 9.69283719779006 8.89112484243224
Fe 11.207336230583946 10.84451969497363 10.452167395738245
Fe 10.739341915436624 12.267280857908197 8.684148424237671
Fe 7.019953388555125 10.53001568447563 7.882559585670603
Fe 11.107930009566935 9.925380750230104 8.336608369838986
