21
Energy = -142.1170152 eV
Fe 5.864585691190438 7.455730645504211 3.4026452774450413
Fe 5.948862361289416 5.02447421303732 4.094021448436521
Fe 7.87452431111424 6.418132191937239 3.6260658837007442
Fe 4.062036518798047 6.397573471068706 4.472374636128733
Fe 7.168769299951163 8.664640403793076 4.893420870452149
Fe 4.683121760497173 8.568538022138899 5.175590278947853
Fe 9.100551714025837 7.364764875200843 5.315783390734073
Fe 6.260964922276376 3.7150599362148093 6.0114614767022685
Fe 8.279149354412052 4.804720999887077 5.2815546368989965
Fe 6.5586140585341495 6.535075614064421 6.097003200329974
Fe 4.422330271654239 3.2639385883575693 7.936439018492328
Fe 5.9266155352233705 9.185143443298124 6.965316102759404
Fe 4.28623972663055 4.87354115265688 6.095529584695763
Fe 4.249341005856212 7.109763836361567 6.948497732927168
Fe 5.675205523955731 5.286504981744919 8.090849967285967
Fe 8.036075619766562 8.217522203862742 7.299067541091412
Fe 7.7013609409020845 4.287576032307795 7.7111257639144775
Fe 9.26205633230653 5.959378044827577 7.087049695281324
Fe 5.807212427309584 7.624328505483226 8.639387891830246
Fe 3.300109829373313 5.027750165444 8.302328673521899
Fe 7.762543009152664 6.446112887028598 8.784757142643377
