23
Energy = -155.55810078 eV
Fe 8.505727530641199 4.2350042735959 6.719820138259242
Fe 5.218397323473838 5.282757060033062 3.2916251720041436
Fe 7.0944813107904965 8.017750617622415 6.624725658230413
Fe 7.771089177700141 8.718559524873031 8.73342153030849
Fe 6.5821868646542505 10.685059746999091 9.001766958393846
Fe 8.647378817516922 6.497853341015934 7.904566514918889
Fe 8.52668249205875 6.401494908427605 5.357895876444559
Fe 7.935130052500933 6.56956575130099 10.084379218457173
Fe 5.182737944097863 9.162109474750176 8.038588382809136
Fe 7.1920151366008405 4.647243454316391 8.853859754294577
Fe 4.593985003730108 4.901750712819471 5.542419591800878
Fe 4.868532892834838 4.9413431153229235 8.147346672999507
Fe 7.029272730721467 10.304442513519339 6.8230264496769815
Fe 3.787683528270328 6.970057425578247 4.620649899727475
Fe 9.147764042705107 4.429272680808535 4.337549358009235
Fe 6.08920562775226 6.997866659813139 8.788065654760228
Fe 7.650690200944198 6.017177651636883 3.155996518898431
Fe 5.169921126347662 9.09100619407222 5.632934507678988
Fe 6.110149995488785 6.998181205118271 4.667565148179695
Fe 6.201732033307853 3.37570574260747 6.825215948863415
Fe 6.885379205299216 4.4020172651280465 4.738035348870244
Fe 6.616749991281231 5.72798800347393 6.739721632353169
Fe 4.636686235745749 7.069371941631127 6.814403328525619
