26
Energy = -176.55498326 eV
Fe 10.076754614564072 7.763968272821446 11.72168290988296
Fe 6.686865093707776 10.924571111096569 10.475571432270419
Fe 7.575880597965283 9.275027108420181 8.792902823851895
Fe 7.01897014413521 8.850962139772815 11.453392211928515
Fe 11.972932987830642 6.808695883250673 10.743781559860903
Fe 10.8277490699753 8.345026335532157 9.563221757029726
Fe 6.178101650828542 11.289498197138029 8.19800925212356
Fe 8.47900758488686 11.660195403256317 9.047991357913542
Fe 7.93585596645956 8.486957831497602 6.344708744034116
Fe 9.636612302564288 5.028300233822407 7.557416787750671
Fe 8.380168680073936 7.41528160411528 10.204449215543237
Fe 9.277610822524961 7.429687021348469 7.973862093128074
Fe 5.771726139520454 9.339796153768306 7.072978005934514
Fe 6.60581891279143 7.252580944973719 8.060907543519845
Fe 7.953086495571343 10.823954283299868 6.75778725856541
Fe 11.648519588484787 8.48289704567329 7.288095628517046
Fe 10.06588636811287 5.793013616509936 9.936392907342725
Fe 7.76835083716416 5.46204068507537 8.937133020089009
Fe 9.734246749454636 9.886540030851414 8.045852592918173
Fe 10.050258529856803 9.228172467907628 5.785879675932509
Fe 10.202742655098072 6.883786092012047 5.968731956898832
Fe 6.031771941454804 7.073432216725524 10.325154498208173
Fe 7.868387637262104 6.056619300571293 6.388617517270716
Fe 5.34148224442161 9.166641992732977 9.476431357272237
Fe 11.58564218355429 6.354013769737033 8.196987004992609
Fe 9.075474756112047 9.807329256485032 10.551192216566985
