27
Energy = -183.12890251 eV
Fe 3.1416110161941995 7.253493174464847 9.245699784554633
Fe 4.774146938089357 8.283983811076913 8.006999259913545
Fe 6.655709891692321 9.122929912161247 6.550265142300249
Fe 8.795183041407968 8.871811260391194 7.538097629919646
Fe 5.336379339472014 6.621986067871787 9.87992185942231
Fe 7.0443196007315825 7.632436172598554 8.580210344372317
Fe 7.6817269495881195 5.954325607457813 10.086238601082508
Fe 2.8383433235214617 7.311922337916211 6.8776330358944815
Fe 8.68432610166001 8.790195305034473 5.0891138140151995
Fe 4.420290082255339 8.412444116214477 5.531301661070555
Fe 8.046053553240853 7.010463282032408 6.544455356084055
Fe 4.1063829821546545 5.537072945263807 8.041637283062077
Fe 5.58655978489305 6.602861826846421 6.4873945462111084
Fe 8.93171947096104 5.698745039920806 8.118261693962593
Fe 6.632755251930445 7.633612086597325 4.557610422832629
Fe 6.56998820397109 5.182754799367378 8.219639470412773
Fe 8.088024152844806 8.022274212926938 2.881995149689552
Fe 3.667721184311357 5.582866574557712 5.527798835677024
Fe 8.678500280279152 6.275023439984741 4.358581586906655
Fe 4.6584164088946745 6.83254866391459 3.789096033116158
Fe 5.267082714866329 3.9505493319777103 6.556679113297198
Fe 7.800305279961064 4.7394251432632375 6.158544234014673
Fe 7.22211921377614 3.0215457635110226 7.53215093102031
Fe 6.03257346546448 5.083775585707779 4.553729087518675
Fe 6.9216397605665145 5.957496341673603 2.630687990626573
Fe 6.67245437220444 2.7907985598592813 5.137440677950092
Fe 8.106741985204765 4.1049131924644655 3.768941751861476
