22
Energy = -143.93325149 eV
Fe 5.134781193719587 3.828455533838967 7.563656906725675
Fe 6.11928722711481 8.80075393366859 4.974379828819165
Fe 6.293411946647634 6.5239785471929235 3.993352156387175
Fe 7.769395087130471 7.020258132912697 7.868248118830059
Fe 7.042356134510816 4.883048049502071 6.8905403911766445
Fe 3.8735123994854272 8.156267906580306 6.468156317906575
Fe 5.443081578108533 4.628156790750833 5.184906824961931
Fe 5.722046573211381 4.174130796261115 9.758647449417477
Fe 7.707364432400563 4.617582187635411 4.515971539150919
Fe 7.062904427087817 8.379642826046286 2.815724098542505
Fe 5.367369661709734 5.870310952579837 8.382956595776317
Fe 5.8301664508750415 8.284786053914909 7.9144183376428545
Fe 7.853328490453135 4.895992295259232 9.041565480257209
Fe 8.639241450366095 6.740727402883878 3.2919480808973747
Fe 7.752889187962835 9.004599927017118 6.5424937182204035
Fe 5.704262594587517 6.77503897602895 6.175976196918661
Fe 9.13998874321018 5.083208396877965 6.45793019453446
Fe 3.6506895438204454 7.320382054565829 8.586622380463005
Fe 6.717567134250375 6.579765402925517 10.034031163554817
Fe 8.64682687983048 8.849804338235643 4.381354851669607
Fe 7.990423709694445 6.82870058769558 5.490294018498841
Fe 3.6443877819667265 5.859691535769812 6.772107977792233
