22
Energy = -147.74005279 eV
Fe 4.78053269482787 5.937468475994227 8.754877331411748
Fe 8.343522173623255 7.212095040871188 7.095982459245513
Fe 5.261447130765927 5.79717110954982 4.74636847413804
Fe 6.582953413945843 3.8882582654839215 5.348098439285267
Fe 5.115991099160208 7.89117852872522 10.156623080322008
Fe 6.6315801339002025 3.9727714914305183 8.050271050721953
Fe 6.07299128990185 8.231735258475284 7.975997928767753
Fe 8.617808755298963 4.560336376335428 6.2905241599709045
Fe 8.466958998573148 4.107878373965501 3.8122134835376618
Fe 8.584652128133444 5.266214088343653 8.433496312638388
Fe 4.099503507047762 6.854400477697135 6.52376296471754
Fe 6.460169791454523 4.880342495581798 2.9150788883212004
Fe 4.653292664732402 9.299900314107859 6.452823825389214
Fe 6.450331261581595 5.974162595644783 6.908755686243962
Fe 4.6130218128886495 4.4832402853916165 6.807487707201016
Fe 3.6971730975042973 8.157511527750685 8.452334566961605
Fe 7.768558857273512 6.178199797493313 4.8239962560947856
Fe 8.47496619831016 6.19055861859697 2.681383350783378
Fe 4.335702922848618 7.97062345852627 4.434820921326227
Fe 6.948802605481685 6.492012315196848 9.391585719869598
Fe 6.366656198489479 7.2957293727698875 3.1746260864569322
Fe 6.415240122726813 8.050377340177128 5.562249161434414
