28
Energy = -187.10573821 eV
Fe 3.1969056917187375 7.611419567549715 4.64637267707332
Fe 2.7419152530648403 7.196392189557715 7.085277347875299
Fe 5.449037858145958 8.459333575131753 4.939763927827785
Fe 7.821836453925804 8.20309376761305 5.252240902260692
Fe 3.686019930160144 5.445296978364335 5.590807383343535
Fe 3.28528209434158 8.381879323508308 9.090742396598268
Fe 7.089790870290123 7.616853229536226 2.9917826499248736
Fe 5.1687160477285445 6.346494873151705 3.846643506063851
Fe 6.570615189458746 9.99181311782755 6.45220911854166
Fe 3.679995798588639 4.159368517970293 7.6405985542988635
Fe 5.050100220202198 7.0720292486941245 6.859621853465636
Fe 5.4155256554390165 8.92843944382966 8.247751812286328
Fe 6.859217183366543 5.950822140093152 5.711913777391449
Fe 4.12146929905683 6.15052498708069 8.907502652432022
Fe 5.705243003731686 3.811456116981318 6.320108903373352
Fe 7.195398452407433 5.161922571605587 3.250626266089412
Fe 5.154617170729253 3.866603939124376 3.9926226135147003
Fe 7.674220707357814 8.186795343974023 7.681175836546348
Fe 3.4762939120298055 2.993932761389135 5.548382578407358
Fe 9.05088877153264 6.456503328215932 4.168965648705877
Fe 5.976937821222393 4.618879470394351 8.596421636063317
Fe 6.366662601026613 6.92052639703099 9.330453740175225
Fe 9.625165660058022 7.164688283504079 6.592659602906402
Fe 7.990533209659154 5.791002468753495 7.832973011063476
Fe 7.5510355439693475 3.404891032683225 4.839090322981373
Fe 9.416253740547008 4.172123868144954 3.503571132596542
Fe 7.813771708859376 3.381415224878118 7.449188987454425
Fe 9.142356790798864 4.831304872829256 5.906337800155866
