20
Energy = -132.63930276 eV
Fe 3.7610043348394187 8.854574688801986 8.519669643154371
Fe 6.789502753273367 6.095524010463217 9.515292427899874
Fe 6.2064255103491925 5.0051962913806785 7.35683623242995
Fe 6.615179524880361 6.833376634780255 3.699811358361657
Fe 5.0018337170031275 4.652288534561839 9.27605204872969
Fe 8.58721842872285 5.253259376752559 7.917825427927113
Fe 4.71338914633375 6.72422546617244 8.177502442444277
Fe 9.320531673374534 4.4458120980418485 5.226297215382602
Fe 8.107735453248921 5.06981332307057 3.3307231072411105
Fe 5.963397138829288 8.525662794099137 9.286265316336614
Fe 6.447829900383343 4.459892421423447 4.879463962276352
Fe 3.4963752011678784 7.739191916823126 6.338432650983961
Fe 5.493825923643985 6.664408732985723 5.80847401710562
Fe 7.756175895449927 3.4468997730355544 6.616194738622706
Fe 7.198450109416655 7.404700623554486 7.626459373766866
Fe 7.373553980338483 8.397813783537858 5.353329936417434
Fe 9.025937505345437 7.04096790546803 4.11250225157601
Fe 7.906476927131009 6.026134238975852 5.811493099223097
Fe 5.031846604238962 8.644923191785033 4.507813734427882
Fe 5.4473366920044155 8.95936061426099 6.883587435667856
