22
Energy = -147.21050236 eV
Fe 7.08615127523212 4.926893459802383 9.869638507872075
Fe 6.918558365131327 8.07067772788217 3.821462496045203
Fe 5.232694669960344 10.03719315791962 7.420550049528168
Fe 5.800200549397368 5.1505638334426544 6.383103945046951
Fe 6.862220030675931 5.21364490727261 4.126247023053012
Fe 7.400152886868212 6.16072935229115 8.03548014199257
Fe 7.988362269880658 8.40878491677761 7.7552572928276495
Fe 7.242577777151454 6.941228941527941 5.725397812885701
Fe 9.459751990486167 6.558199110643473 6.939753032951859
Fe 9.004481862287868 8.335643849373403 5.32578553330214
Fe 6.77238982516025 3.6483672191944487 7.9715459901405525
Fe 4.322310652278919 4.389723629982097 4.880120009290639
Fe 8.236602834942872 4.640928032470809 6.139681375019417
Fe 3.941201382076194 6.49548255037127 6.27536315246217
Fe 3.5555744596176657 8.796628637541037 7.2800114468759745
Fe 6.424046127311965 3.1060065587867154 5.450182154675804
Fe 8.985595366518899 4.449672105333537 8.351572058156838
Fe 5.08729427979238 5.57958326304066 8.561623714980634
Fe 5.684587267103005 7.723531662801731 7.559783477941228
Fe 5.092106608223876 8.563380951735237 5.322686254217808
Fe 7.140753016249647 9.519499507487472 5.931359813180858
Fe 4.976226023320804 6.497476143989623 4.087234237220679
