22
Energy = -146.50322076 eV
Fe 5.187448906113362 4.319224610251134 7.4250189008596275
Fe 7.677676880380758 6.558992302378928 9.839952547736091
Fe 5.636684032232156 5.474388765740668 9.482860875518128
Fe 7.404453601011258 5.22017313418778 7.91160079276726
Fe 7.144994503138015 3.854978225877719 5.878013150983588
Fe 4.980936566885804 3.1129910878899705 5.498320476645309
Fe 6.734516764673039 2.4619891551376605 3.9071824226694267
Fe 8.545387330091362 5.9061511726197615 5.723278647382432
Fe 8.680844274181466 7.214322492435678 7.785497533801157
Fe 4.278864085434349 6.512507663082873 7.8360274245616806
Fe 6.3411556555075315 7.601341072428647 8.231205151820195
Fe 8.010156993312592 4.584199479749411 3.8757463444545364
Fe 5.928778968306891 6.165159226188117 6.073557421949271
Fe 5.168871255625966 8.590153061956103 6.289449105562624
Fe 5.633006948078578 4.660062317579028 3.881720030896316
Fe 3.744848669935432 5.143764617597306 5.530540055992292
Fe 3.1998983964779075 7.398086789574514 5.865228815004957
Fe 7.538773102358614 8.166713302499057 5.929779747160063
Fe 7.158357579541819 6.778829838746473 3.857501682228629
Fe 3.9783433801313355 9.119351036657552 4.328776775571922
Fe 4.769303703728372 6.976024556760674 4.055674065755421
Fe 6.266499669296774 9.01751755008869 4.1133355847090085
