28
Energy = -189.33929292 eV
Fe 10.645055670958035 7.003455673486542 6.170797890519953
Fe 7.835866114396113 6.111589822636643 3.456411370478122
Fe 2.934186135698425 7.092437205831468 6.4917033007692835
Fe 5.486140871949329 6.7392750434554225 9.641373178883505
Fe 9.596544440760162 5.43693307374318 7.886606964510984
Fe 4.846939994557004 5.89015549914919 5.69636127692495
Fe 5.718119785119099 7.609933572105623 3.243299267135253
Fe 3.1842025615319067 4.806080977260023 3.859024323600534
Fe 7.967856767969277 6.075077991367349 9.507289349800471
Fe 7.824165813342794 3.883420158850259 7.569493339318796
Fe 7.0864700472821545 8.250453541327591 8.914689784579123
Fe 6.160379578266898 4.492393852313036 9.311108527542336
Fe 4.734892537976014 3.330649454377444 4.951622135848532
Fe 6.766646343461848 5.965838251735549 7.455057297989865
Fe 5.083602581043331 7.694786118962183 7.402768551029128
Fe 5.33722085717322 3.7788654789815785 7.152426092483337
Fe 8.858048494238417 5.605222221027617 5.682127573229281
Fe 8.708320381215431 7.5446917022482145 7.341065229648155
Fe 6.8458647621071025 7.1175463662151 5.318264682803937
Fe 4.800639167112524 8.580501855639927 5.257881840410202
Fe 3.3843127114919245 7.052932870740455 4.105904350375976
Fe 6.866537451554895 9.029336112943614 6.632037321313088
Fe 6.863322390012739 4.446017450390853 5.339830736011979
Fe 3.0331693401641373 4.528064430296696 6.223663216020799
Fe 4.136575945549783 5.570073330531453 8.11209951201541
Fe 8.902918159956595 8.001701494149899 4.90468289475473
Fe 4.067993474286527 6.311321536617219 2.0664952550673084
Fe 5.552502116798769 5.279739409590329 3.5344092329095664
