27
Energy = -184.31471435 eV
Fe 8.342782801964619 7.8305834335403715 7.147541649876962
Fe 8.415367214176532 7.130138586965233 4.960923614824143
Fe 9.820746041680279 6.496781981699919 10.581652944491001
Fe 9.130351219263126 4.0622864816732465 7.535951921498191
Fe 8.988026608626123 4.293742046027869 9.98333851138313
Fe 7.9587772043151395 9.561325064767173 5.6179234375230065
Fe 9.38105690953817 9.870218850586328 7.916366208887945
Fe 4.700820531091615 8.946928190754676 8.002256318034561
Fe 6.35144993410912 6.991901021624884 8.398213372199159
Fe 5.5586485919684545 11.523790376351222 7.855423111950925
Fe 6.884453488523378 9.353335733266135 7.994965943554429
Fe 7.561503500089494 10.762273748888383 9.520833787941406
Fe 8.628080328124074 6.109258695386152 8.56014371884915
Fe 5.23687277463451 10.410574684506322 9.793834908239354
Fe 10.02339971514163 6.07997251514254 6.469869507748845
Fe 6.1913774224150275 8.398339610789805 10.253181745339083
Fe 5.626062816719319 10.126055408812292 6.013806459213626
Fe 10.925622717204984 5.23287828539773 8.66850120763561
Fe 10.529556856244625 7.605477623986663 8.315987656333103
Fe 7.449150575478004 5.574428223557491 6.522557246647373
Fe 8.42850259997883 8.278245336389139 9.625612923335973
Fe 7.36960289274187 6.146538837387446 10.662444355889198
Fe 6.160621712145501 7.787742234452908 6.118438489545274
Fe 6.811147921298798 4.66862361864182 8.872681516801473
Fe 10.31632264396324 8.56220837627933 6.0077039036665205
Fe 7.730704820273117 11.453661423070026 7.010188419177086
Fe 9.875553300803682 10.87465622544292 5.898520860949386
