28
Energy = -188.72727216 eV
Fe 5.283147376011645 9.437566881796105 8.39496336750289
Fe 7.0489306878679026 8.231705614067835 9.030862963483068
Fe 8.910401119560587 6.927160131891552 9.676420272854452
Fe 4.719516865076691 7.148840970967256 8.62557534911469
Fe 6.872514595270018 5.876943579292479 9.008344556070568
Fe 9.182242103885754 3.4166880529430825 6.552966132212704
Fe 4.303586652325328 8.626347421992241 6.547179346746387
Fe 4.822287889196506 4.790502129820767 8.097294778967596
Fe 7.155162250495654 4.146342950506159 7.388721440350391
Fe 6.821104364990283 9.117380632880066 6.5985290514787875
Fe 4.011634577039716 6.295170500431009 6.319604693776034
Fe 8.560567134377811 7.459447428280694 7.382098797599749
Fe 5.239610901547592 2.710281494661748 7.07206521532873
Fe 9.194044654706289 5.154128542119353 8.247743915087362
Fe 5.621768795046453 7.77226778472558 4.777725842653009
Fe 3.347416878929631 4.064747315837056 5.966881130663965
Fe 6.360383593692445 6.681837265262682 6.801145875003908
Fe 3.227036335402384 7.741818911441543 4.570291616996762
Fe 8.077414024922081 7.82731488183012 4.968902509020097
Fe 2.372771126319601 5.600536374598894 4.486869514744018
Fe 5.590481178113214 4.4291299990457755 5.751622231243113
Fe 8.680831881432054 5.568796359967235 5.914492081109731
Fe 7.522609203759936 3.483050151138957 4.943672801924679
Fe 4.364806817779633 7.457344492267461 2.581310358918833
Fe 4.594294366122388 5.57491082847529 3.8920264302026037
Fe 8.89701721821197 6.110122419352824 3.5747927684462364
Fe 6.934299947800109 5.660443697750173 4.462598451915192
Fe 6.684928451768006 7.172080090656905 2.7663808230199325
