21
Energy = -141.17690795 eV
Fe 6.868325152162512 4.700020516581918 3.4675362664181804
Fe 5.218028366443964 6.894787249039913 3.064523802094422
Fe 7.63129729509302 6.809437326595894 3.4286303158291576
Fe 4.646214580858442 4.626486516298734 4.092653913997722
Fe 6.415050028337981 8.687246338668297 4.108473310202209
Fe 3.413899668643797 6.497736943370945 4.900577289663971
Fe 8.158959171139891 5.577621125305714 5.44096777022004
Fe 6.414396579003816 4.0165463978762075 5.747252264673405
Fe 4.383272168474159 8.589906360593789 5.031067993222941
Fe 5.898584654774721 6.466119266766456 5.126056940263737
Fe 4.3943098309523245 7.270289011280427 7.056473231724216
Fe 6.6725813734211 6.06357442402587 7.280677900681461
Fe 6.406633802612503 8.373930114474476 6.508159035144887
Fe 4.4512945591591135 4.955745019280919 6.6175341154517415
Fe 8.216466530354998 3.9542402894107496 7.359603935125592
Fe 9.141852330784504 5.976228875317604 7.619418506273988
Fe 7.961096606767675 7.882196653903171 8.292107432598735
Fe 4.91685769724417 5.768489565086572 8.979512117314348
Fe 5.8099892231824235 7.896756980662038 8.915097388519973
Fe 6.083497984961378 3.8373011733053843 8.213356058265566
Fe 7.4642312928270975 5.722178749354934 9.317159309513153
