28
Energy = -187.00322867 eV
Fe 7.7847222872148585 10.458960525922253 5.244325651696725
Fe 3.859430534412988 5.780523463911948 8.728060416370845
Fe 4.664245457374811 3.7052331393611073 7.966746689779683
Fe 5.528572296595586 4.598348500400945 9.997246220762747
Fe 7.613005384677368 4.899695509005328 6.039780862975864
Fe 8.102171063305185 12.49366624757929 6.325317666958388
Fe 9.322090321718429 6.630082993084674 6.519721021833687
Fe 6.4095000197636764 5.707556183955813 8.16804646733589
Fe 8.411817899544229 2.8415108441909878 6.62478127530648
Fe 6.488274808391847 8.574393956276927 8.427138566864318
Fe 5.9618979643065275 9.411223412435913 6.205719136262693
Fe 4.999683808154237 5.502061795670788 6.28712274695385
Fe 7.202769604142923 10.84224383164332 7.77103018848942
Fe 10.833352900423074 8.554939043802568 6.2729842947862835
Fe 5.4991828611935665 7.0232549729929845 9.941252895420432
Fe 10.460188590750796 7.3456047129809265 8.397603935189375
Fe 9.967977623446933 10.897103228156828 6.363941528222936
Fe 5.88445985810282 11.793174412841 6.099258583319459
Fe 8.613893522751846 8.89708681007678 7.021367916946573
Fe 4.640277418927042 7.554240289907482 7.437461356195416
Fe 8.206736912359982 7.036332192081114 8.943778627187706
Fe 6.930644158646239 7.215355204758188 6.333016198357876
Fe 7.07119086723758 3.344177981883797 8.408478569032193
Fe 6.063528256306654 3.208049023438629 6.139837365022073
Fe 8.899375177197534 4.834066953683192 8.036442136081403
Fe 9.384459663417074 11.594131361019096 8.30148887082441
Fe 10.862100940208824 9.631084930293218 8.29081071406597
Fe 8.768276981656731 9.37439234837061 9.35186638650179
