21
Energy = -140.66514856 eV
Fe 7.012890724474854 5.964550639708185 2.9413655224295514
Fe 5.08754358774897 4.758925378003719 3.1661708985533377
Fe 7.292757155801464 3.995630889032514 4.25294626158762
Fe 3.1920391559507846 5.947437354394937 3.719866526058392
Fe 7.256639525272037 7.84662475921666 4.4204375852905455
Fe 5.16051813242268 7.334144032237903 3.5254443352077303
Fe 5.22386037602202 2.7758611901021135 4.3621901195621025
Fe 8.524730724994514 5.907783040504867 4.81153386251586
Fe 3.54044861713802 7.9150626138939675 5.130337069683468
Fe 3.404262795937138 4.04668743093583 5.07669973221507
Fe 5.53885821566657 5.628025121745292 5.499063384055341
Fe 2.4428998971254305 6.085704189362533 5.957111110737117
Fe 6.864968611863231 2.721149864464139 6.18322834909593
Fe 5.66309498594727 8.187832237742787 6.105995246691572
Fe 4.616409582601265 2.6729593343335787 6.652764314587753
Fe 7.736478018402677 7.1917397164092165 6.6841089413523
Fe 7.7853246140670915 4.81307966545282 6.753645789138117
Fe 3.9246049395206035 7.171799516884257 7.43667993206175
Fe 3.865897231455872 4.82640745888203 7.445310711970355
Fe 6.014959556605364 6.3117932622011 7.896420237765987
Fe 5.951631386856983 3.9976201403663953 8.079497905314943
