22
Energy = -148.12706682 eV
Fe 5.5793482101536185 5.105653920440266 8.23542373028712
Fe 4.425188659426367 5.593592402056392 3.9589329285827723
Fe 7.284250985990078 4.117232322820711 7.008711999156659
Fe 5.454330368461507 6.79576902816468 9.92248833848041
Fe 4.897861056296593 9.176413605647973 9.041379584865147
Fe 10.052873380749666 6.9269886940878544 6.687713478705431
Fe 8.243708945820726 5.561446536541311 5.304968591704888
Fe 5.730975620183334 9.545226175356227 6.871027537622887
Fe 6.444955903036172 4.175389322612576 4.397440486685879
Fe 6.579413922258843 6.452327809997277 3.619710964168378
Fe 5.664339619361422 5.674966097094689 5.904634698831733
Fe 8.40929905931841 8.892504123748466 7.083419310476977
Fe 7.687632909151747 5.4561256996146215 9.302063856272854
Fe 9.353319000487902 4.971156358640803 7.689502639902026
Fe 7.084711938182367 10.301036177852128 8.60533586674431
Fe 7.500639593449631 6.658689417091426 7.227912789503707
Fe 9.21811166808854 7.324526792936226 8.85780590768396
Fe 6.691130696356089 7.953079978892532 5.406722004913252
Fe 5.046365014661625 7.356033782025829 7.491418013150728
Fe 4.431240388478728 7.674536212890901 5.1088984275402085
Fe 8.905619740710357 7.802345476613295 4.897172314263575
Fe 6.969738170047558 8.140014915545436 9.032371381128621
