25
Energy = -171.11138883 eV
Fe 6.9696111653889625 6.575327720100428 3.5222878379193543
Fe 4.830812676187236 5.457797712180079 3.382379224445488
Fe 6.856783609134129 4.259848715186027 3.7925130564955563
Fe 9.050762328106673 7.608000248583303 4.292653247284527
Fe 6.940067643319199 8.022751406349336 5.30138348430636
Fe 3.548735523457765 5.863052495408671 5.415839571331522
Fe 4.797746113920095 7.6342276799182445 4.368255975950154
Fe 7.453747434330648 3.4920486623059594 5.862879849951712
Fe 8.35834720459196 5.848250936239433 5.654418962664618
Fe 5.965520270011495 5.6528423948029305 5.758628793215255
Fe 4.868493190569844 3.7268715472304548 5.137234311859939
Fe 9.017543730467612 8.150739269864447 6.616732694964749
Fe 5.186266332638163 9.672608765902888 5.841826833599431
Fe 7.312179308726986 9.76831407669036 6.863557354544424
Fe 4.690561800921444 7.64906886142622 6.792802681473495
Fe 9.384395014661486 6.404798056202794 8.052418113987837
Fe 4.487584961574647 5.465783079480156 7.654157267096525
Fe 5.673882949661812 3.489056513831648 7.366424452631721
Fe 6.930370296009859 6.995470303765192 7.562717556667137
Fe 7.860595639072429 8.569921952007103 8.926841768439136
Fe 5.541985285308055 9.31368544348813 8.323876435305188
Fe 7.785751904983122 4.718588037553211 7.826661204013826
Fe 7.851079425663877 6.398574080550197 9.85263395529577
Fe 5.465864668190382 7.214759165685821 9.366740320854849
Fe 6.069358601752492 4.945659953896911 9.362182124351364
