21
Energy = -141.33520257 eV
Fe 3.964200971777754 9.015107698098044 4.088659899411111
Fe 3.3029293569717275 6.661662933804714 4.360013583260445
Fe 3.7254134259511056 7.9212010812506914 6.300469494148264
Fe 5.644991944234139 9.25787178541179 5.882097861020765
Fe 5.625526379450093 7.241409506131055 4.536471292614404
Fe 4.715451938246929 4.718133524577319 4.194850519285052
Fe 4.296439435892532 5.562700522797067 6.283783838456949
Fe 6.81053213738145 5.111751598099205 3.3995951968546794
Fe 3.968848952774079 6.262737803803163 8.511555229427415
Fe 5.73552379993366 7.369416691873456 7.367314728748599
Fe 6.799244605072537 5.7062098967473736 5.8797459041276765
Fe 7.712787532654869 8.009617288472924 6.0641247880992655
Fe 6.2868276058954695 3.4915966315961655 5.5521620030454
Fe 7.902321140937881 6.426023421980942 8.069683559120882
Fe 5.802014850551004 4.724824947688869 7.966944207030461
Fe 8.176557313626887 6.811182301416328 4.10451411439475
Fe 6.094381793749873 6.535937389924922 9.64395175748832
Fe 8.49141740000295 4.260552015074495 4.787934171156718
Fe 9.311097121156939 6.064883157036683 6.110607165705214
Fe 8.12481237827544 4.1445814041058995 7.2198792933978035
Fe 7.443122782390117 4.5979179112041475 9.560182265808173
