26
Energy = -178.35319346 eV
Fe 9.628569970560301 7.624899092743686 11.213059331598252
Fe 8.739605469674164 5.594695520705821 9.812190036584564
Fe 10.110990556516361 7.382914407524964 8.960765673124818
Fe 9.813478591320404 5.275400624897142 7.7329770045103245
Fe 8.659972918797715 9.257554526159236 9.409728932841565
Fe 7.410518739205085 7.470736391530682 10.28131333907815
Fe 10.328710485049426 7.097234281793297 6.347264301283175
Fe 8.106473837276443 7.2084832484075 7.736802328403665
Fe 6.387230622738344 5.3684181948121426 9.616128890703692
Fe 9.731304461800844 9.158349081202015 7.310005813104005
Fe 6.304594421615595 9.346419354929262 9.182595448879063
Fe 7.345960873010315 4.92961525519871 7.530188198181246
Fe 5.761559859594104 7.22737785121125 8.333299211342347
Fe 8.49100409552702 5.747713614928046 5.634280443482127
Fe 7.252688644369185 9.35931836378732 7.045748648099188
Fe 8.447255618819652 8.190320705128219 5.363448903944974
Fe 5.009738441440071 5.054112359734954 7.363631424757212
Fe 6.315981773961578 4.835837257564809 5.010070069674977
Fe 6.1933680026870785 6.990546939639001 6.003763006886138
Fe 4.920639691058239 9.126513522791013 6.9466442513465925
Fe 6.258099728325439 8.893401585379467 4.571370880539284
Fe 7.570104310717991 6.750742070225969 3.69468673215273
Fe 3.728686152861596 7.0590564325434695 7.107816333822248
Fe 4.106662684803616 5.646627914523406 5.184159812268125
Fe 5.355691817622905 6.7277286680466934 3.4929192655483243
Fe 4.07136088421663 8.093536675728014 4.939431305154725
