26
Energy = -172.4635305 eV
Fe 10.179710167866155 4.27051154785135 7.389113179428122
Fe 6.643978894752203 9.346370947538153 8.300887074090326
Fe 7.982779346897493 4.798127599538624 7.8166380453771875
Fe 8.871642724552732 5.133723223922283 5.577169702156172
Fe 8.863854658203165 9.627038683008765 4.755583892580119
Fe 8.75263480213468 9.887391743687164 7.164252873224704
Fe 9.858546327605554 5.983989295265536 8.957306299263443
Fe 4.957427626577811 8.217919529464952 11.903650837819207
Fe 8.224844921849899 7.296331128652291 7.036057433966448
Fe 7.375232260809121 8.312091632831146 3.549388750614232
Fe 8.77033321084785 9.672148049581818 9.51393060970289
Fe 10.63299412010011 6.482487473874288 6.641738363659614
Fe 6.407494900801187 5.628745075678207 6.2471651801620895
Fe 6.78025792451791 9.121740530015371 5.86311547186652
Fe 10.23124495709896 8.207254435739028 8.39228311892155
Fe 5.328841959749063 7.580283418134667 7.118877494358666
Fe 7.409520737963971 6.066345547883841 3.9863349779738164
Fe 10.57158042226004 8.7898288489828 6.108896756463546
Fe 6.482924767473179 6.582152411828305 11.121266191925873
Fe 9.546212218110878 7.267496248444099 4.49578394257613
Fe 8.719229153745474 7.468633925641015 10.543297033144261
Fe 6.0606623229610666 5.912799516959716 8.801304142140394
Fe 5.063705664186609 7.9705492419063715 9.557753418829831
Fe 6.849820008423117 9.050459255213134 10.801901369491361
Fe 8.018484352221924 5.142337759910432 10.130977250866088
Fe 5.555612782294063 7.348681634362107 4.717020136876864
