27
Energy = -183.25169845 eV
Fe 2.428009291322082 5.9224321304367615 3.887603418016702
Fe 4.050837082499487 4.7613463026847125 2.813949267122205
Fe 3.354653704420637 3.779591624135237 4.855426265714133
Fe 2.3518321027692624 5.424234463985896 6.193621340671916
Fe 2.8780470384967813 7.707105670188318 5.364016264724812
Fe 4.290748402879701 7.354906354029919 3.4561817427358443
Fe 5.875016569495609 3.732919256146797 3.872535521789863
Fe 4.973165615760187 5.66299836079147 5.248649474980289
Fe 4.085474051050093 4.434828586964302 7.383440591191591
Fe 6.0091381319244865 5.96076107522725 2.6014288893175572
Fe 3.8781713400580946 6.866484998614258 7.3928162395706
Fe 5.223786547432878 2.9489618825621844 5.998646958326792
Fe 5.086761476315393 8.107112268585244 5.83491492336251
Fe 6.65691426459874 7.57682717887405 4.276594917622944
Fe 7.550226747793871 5.493483234595946 4.3220419851887
Fe 7.437462506030109 3.744386539072757 5.861397279030616
Fe 5.373927850984472 5.976412683643907 8.993524932274312
Fe 6.33462389940157 4.097219868995693 8.007277730375263
Fe 7.240694017282379 9.039239174158391 6.1109972382118976
Fe 6.936156270475865 6.25545888499471 6.647867362113942
Fe 5.9796866479290305 8.07982641757261 8.137804714570414
Fe 9.410818238526154 5.109139979001483 5.608605794330825
Fe 8.872877996936738 7.447518794345745 5.472214028536721
Fe 8.63158179881136 4.400638829706054 7.856597297496536
Fe 7.704348471334666 6.200552722643767 9.04370802810097
Fe 8.314825461584421 8.226836574689699 7.982590785465609
Fe 9.681885166413334 6.493171927017286 7.506996311483293
