21
Energy = -139.75804497 eV
Fe 3.4001533791119463 6.643262105232272 5.184454892570911
Fe 3.597558815004867 6.427675168738281 7.597086614257014
Fe 4.3132833638559696 4.517021524794177 6.152655963891137
Fe 5.44639628089647 8.15702411928304 4.536382351650977
Fe 3.945157311989681 8.585381456743447 6.25928714426591
Fe 5.212111047225655 5.714899806346768 3.997698152623492
Fe 6.301229859661283 3.7611184590863225 5.000713612613429
Fe 5.769435041053026 6.372273558186478 6.238763120143587
Fe 5.509399483122366 2.815926833757562 7.136460080977565
Fe 4.520164331853659 8.364427491161312 8.520626704591933
Fe 7.2671010708368 4.363289406856145 3.2367219331390524
Fe 6.971255742797681 4.607406980680148 7.47804161076093
Fe 4.883655763698836 4.650203526369675 8.572541041288751
Fe 8.139106564902038 5.108616928536267 5.440229239956782
Fe 6.096172199106656 6.725181390964734 8.649750453469833
Fe 6.2666996029596485 8.80397094360112 7.006617778598863
Fe 7.796364928394302 8.436100110838323 5.310915071393931
Fe 7.328120108782352 6.675415663153952 3.991083951402496
Fe 9.553117839143896 5.353238587211496 7.192843203921621
Fe 7.931228593676481 6.965879892726957 7.186539060407107
Fe 9.620784389886603 6.822103526669426 5.342631125002644
