27
Energy = -181.89087645 eV
Fe 6.611828352971272 10.674776191465416 6.619555585070472
Fe 8.155099658904536 10.639261070264874 4.85430871911624
Fe 5.810404881594136 10.281254397515703 4.485396242453406
Fe 8.991786369177929 9.985807576487012 7.039624584232149
Fe 7.023706611568694 9.0570803058947 8.455470993892844
Fe 9.356611441513355 8.772244485064768 9.183476862928755
Fe 7.595565259745113 8.246042373022322 10.846268079534862
Fe 4.851899071959295 8.837779317327106 6.3342778149899255
Fe 7.3413040014654385 8.52544801738881 3.8284409810256554
Fe 9.457931920254905 8.71753374626129 5.057097172595688
Fe 4.848211092744955 8.139465508308703 4.0135220223330395
Fe 9.542696027703348 7.512686895693757 7.188560463599312
Fe 9.825577085425188 7.792704855134046 11.340213565523813
Fe 7.750654637217445 6.803289025614306 8.807523263175867
Fe 6.3622614057330376 6.32211531004205 4.041916340427302
Fe 8.166981823986724 6.025109634670625 11.419791565037384
Fe 4.598853700404994 6.457645827692148 5.658161457481654
Fe 8.568368702570165 6.395726780230363 5.091758738398737
Fe 9.943115673569451 6.364356070645113 9.448286269673769
Fe 6.020517612824912 6.4132540813422265 10.284768565564097
Fe 5.547815338344301 6.780527110844033 7.796846666849966
Fe 7.125406812127308 7.979127705879579 6.277551374201493
Fe 6.618489033030916 5.164224483886654 6.092880159964007
Fe 8.662581332322558 5.1618446847448265 7.303084686923374
Fe 6.543620202262817 4.222189714505924 10.846645064053487
Fe 8.50015316653865 4.455366876579737 9.638493760273422
Fe 6.378422853034854 4.654619654795732 8.46358542914622
