23
Energy = -150.73228687 eV
Fe 6.236397057760268 3.9580578984883976 5.803971439236105
Fe 5.821872138906301 8.252717818314057 9.094841301346888
Fe 5.631350658712267 5.970409523741952 4.715786835484486
Fe 9.276042491692287 8.013187981938472 5.983725465254545
Fe 6.23433521809357 5.218007953167651 8.110254414821915
Fe 7.861909743223574 5.8523967795358125 5.708854834427129
Fe 8.140083148532842 10.11330974500145 5.437184495925935
Fe 4.32466879784669 5.116557933677279 6.421086757295234
Fe 9.881111617737119 8.403514578180884 8.416155777285539
Fe 9.21087158805432 10.596103151135267 9.22127168162771
Fe 9.969756538677135 10.265951328362688 6.893010972966396
Fe 9.435848248764232 6.715681652062971 10.001413006176433
Fe 6.7878267913278005 10.528109531174868 9.2339650195903
Fe 8.413240058112194 4.686279755906176 9.352241902595097
Fe 8.023401094877938 8.680015453522929 10.21026311358454
Fe 7.947842388803803 11.496446798151515 7.411154613542493
Fe 6.362802406612415 9.533738390347157 7.022190092461497
Fe 6.962530669936516 8.006171707044642 5.144576877620554
Fe 8.214100663436936 3.9865735746592015 7.125624298399775
Fe 5.3788181248870695 7.2455511818477465 6.791622174964681
Fe 7.082649572326795 6.4739498430270555 10.18623248104194
Fe 7.654918496965927 7.290545343318161 7.8023812373898735
Fe 9.659188872939467 5.931216466308631 7.660536485279734
