21
Energy = -140.62968773 eV
Fe 9.736495014787526 7.299222400734756 4.215327510872834
Fe 7.835741778502139 6.910570443619078 7.856940678665491
Fe 4.075883519542332 7.32402957916639 5.873739187401351
Fe 2.999412312460907 7.404767381639019 7.987344827729106
Fe 7.732304248530481 8.467223777602518 3.980403236056312
Fe 6.030903315541697 5.909388473053487 6.42349060705204
Fe 7.266763260113119 9.094447962427049 8.088691446968234
Fe 7.877521770503467 6.177458600230348 3.107502513392873
Fe 3.8283700446988242 5.324147348210113 7.36493986911748
Fe 5.45994017126129 3.6569237111962765 6.520948988795074
Fe 4.257741821211546 5.092390593876142 4.9034259647301255
Fe 6.696383003972596 4.507141243404693 4.571982500918699
Fe 6.413971711975953 8.285737392624803 6.0568929759252566
Fe 8.801386491077949 8.502573783523273 6.208414113903475
Fe 7.909429318882031 4.3593059564507675 6.9484159020427425
Fe 4.178603420614677 6.054215468235789 9.578089598804125
Fe 6.068887830044324 5.0709763058159325 8.573812689161615
Fe 5.849857230564093 6.830335167097298 4.128191577079402
Fe 5.360179752887084 7.487363307670903 8.13493878497224
Fe 8.116359055846878 6.336266539145156 5.4594432875101795
Fe 8.450705001839932 4.852354639134087 8.963903813759357
