25
Energy = -170.85488028 eV
Fe 8.441950672745818 7.439786749113432 9.241310322011127
Fe 6.340168786505885 6.278170479822287 8.758961512241585
Fe 9.158834633482078 8.731291152842733 7.741208028200554
Fe 6.630789271200734 8.563195812656721 7.938294052601869
Fe 4.470841029579754 7.705916374695451 8.395893075291124
Fe 4.37942229878962 5.270536772268256 7.636192211783425
Fe 6.6684262462996395 4.348234746901081 7.3642420390297945
Fe 8.105496317849596 6.543343055366545 6.999986606411335
Fe 4.71649529669264 2.995345389822732 6.887382495070697
Fe 5.78331899380057 6.741543286756278 6.359825308041903
Fe 7.601866348684459 8.57003771032932 5.83893799580765
Fe 3.304473193977085 7.267923740626339 6.464218453617927
Fe 8.187312936621545 4.414818487879673 5.660930912744237
Fe 4.995302247750123 8.984230794160867 6.146592512475241
Fe 7.27604404955585 6.413959209209215 4.539711374383772
Fe 6.477419240627593 2.629215435093968 5.290391438996636
Fe 6.094888738444584 8.414425391619233 4.100150194259096
Fe 5.537662224884318 4.693220808685502 5.106771123219312
Fe 3.2080488428946228 4.846180237896354 5.620215964284967
Fe 7.501695479884204 4.216492104953741 3.435648652729391
Fe 3.892284456392476 2.7091258625735337 4.748634353010006
Fe 4.447429313479639 6.825576534960276 4.410835492736164
Fe 5.787946964686819 5.726605213828365 2.7604083954261154
Fe 5.451420344590907 3.1718330712855916 3.065437318684823
Fe 3.69190226802401 4.7067168947654645 3.2849607263964735
