26
Energy = -172.73145961 eV
Fe 9.50000833134847 8.96341148742529 7.4167066527149945
Fe 6.406359002483738 4.434036514563284 4.810396546352888
Fe 4.209955247677856 3.5726946822321204 5.041652646915567
Fe 6.563709979392936 5.591072709549544 8.879535050701149
Fe 4.6998492771176705 4.792991019003173 3.046300493058096
Fe 5.300715540317598 7.958490681391192 8.120042947739911
Fe 7.221137608828107 7.964978272631643 4.483898273665649
Fe 2.8902442741154504 5.7107983541802705 4.543596799447659
Fe 5.182300970345219 8.546613348421545 5.604000485788108
Fe 8.291986646121885 3.175860285901177 5.23913438661171
Fe 5.455583393335846 7.07086384816299 10.218684833527783
Fe 6.1765771605013375 2.686346019246835 6.464547333014876
Fe 7.294652535327913 8.982858999458886 6.795457932805531
Fe 8.648452006063978 9.866170427387644 5.209600801377611
Fe 2.9066786685466033 4.656178990350103 6.725793432281368
Fe 6.619923434550757 6.653352308938381 6.570689973139501
Fe 4.035608464985736 5.8455016812329195 8.818143681383873
Fe 8.290889592938695 5.792855684166539 5.008631311131214
Fe 6.701856851790133 6.019759963821382 3.015952709599999
Fe 9.593111288630402 7.802673043367148 5.383355316362131
Fe 7.710757751148032 4.407819535851072 7.051495390744086
Fe 7.589893797394302 7.7216885945043945 8.877870335583282
Fe 3.6570862014340766 6.89100488322524 6.70039522460387
Fe 5.037352486367881 6.426936539885221 4.722507429695161
Fe 5.173502422087765 4.75280851952107 7.004039361248999
Fe 8.929193847917837 6.595978690288923 7.391903721003327
