27
Energy = -184.92987457 eV
Fe 7.568187220276005 9.160128489820657 6.89620819782747
Fe 7.375002637757741 9.06835265533568 4.432123284839239
Fe 7.894974208696942 6.9843260658702855 7.946271603273616
Fe 9.230849931198426 7.742481958143313 5.864931606880313
Fe 5.266594113491207 9.042312172491151 5.8070746797473065
Fe 3.3050859436649325 6.64515933087521 3.2688110151795375
Fe 5.559787170163196 7.5738605446119065 3.6050223556708216
Fe 5.50917549446284 7.591560208329667 7.743111463458185
Fe 6.896569893161189 7.210821981555207 5.71076329510187
Fe 8.158923622519799 6.910267256479272 3.736108294545619
Fe 3.337684406832407 8.452129376730584 4.626035892556245
Fe 3.19040479209297 7.7549704074765184 6.876798595694926
Fe 9.842734542228042 5.67464589558447 7.781335887505652
Fe 4.682882480329683 6.527499581313824 5.484497468056789
Fe 8.461648941063363 5.816498079129055 9.857361035337071
Fe 8.520454252708152 5.420147718001846 5.85058149525687
Fe 9.37416573169882 3.470584874179092 6.74997897548028
Fe 6.259441859275303 5.401392008265762 6.932443953759568
Fe 2.593262786104038 5.783275351798969 5.418239940379926
Fe 4.272742716590542 4.654807782271439 3.811753244197478
Fe 3.9577026207717076 5.5941432226290875 7.74121117604475
Fe 6.057637910083626 5.739647356822705 9.334917277052934
Fe 6.498926160235991 5.184228081893428 4.435402990555908
Fe 6.9828639973302105 3.36546445138071 6.089583229637846
Fe 7.8585872926336275 4.3138723620217005 8.25014708405223
Fe 4.524773043000359 4.013769253663242 6.025972971497604
Fe 5.517564196209666 3.6213548816263867 8.300301018690314
