20
Energy = -134.23524282 eV
Fe 6.980051833550361 6.575268703452192 3.1898119864266197
Fe 4.847454697921435 6.4667986835257505 4.20469192018538
Fe 6.440602405859076 4.683376053072972 4.4936781009472915
Fe 6.248108185748335 8.576823219190784 4.27421621473673
Fe 6.473977713457269 9.485628472686702 6.535425618518079
Fe 7.119837332058063 6.929631275053458 5.6768255613246215
Fe 4.66062030187556 8.091210401372104 5.959894999017238
Fe 8.805897050396444 5.86463301298677 4.448087555584579
Fe 5.07336104591726 5.685146102759169 6.409363816562255
Fe 9.2231661374421 6.197183073295294 6.873165801876832
Fe 8.192788704984903 4.235747999073408 5.974079298903978
Fe 7.208423428170477 9.073116503532399 8.95647475780116
Fe 8.461033301873806 8.430491498198386 7.002774355907252
Fe 6.0445131741126845 7.485244717178729 7.865502334823637
Fe 7.2402175860927045 5.403347904413376 7.939554284002915
Fe 3.9186823339833707 6.870432747730617 8.183942215786576
Fe 5.116812496874503 5.003326052676945 8.759271542031831
Fe 6.0706743147567375 3.6227738989776737 6.812095800066526
Fe 8.386035096913568 7.117854923244418 9.11096491429164
Fe 6.121035208377741 6.835257107944527 9.963471271571562
