21
Energy = -137.79497017 eV
Fe 4.120897547538887 8.502613280767891 9.416428806753203
Fe 7.386373013737892 7.04757345498807 8.399995780473798
Fe 5.506297443221683 2.8147517885097235 7.385412169782719
Fe 5.109987707495166 6.369653808234464 8.978952096900374
Fe 4.444151214159781 5.909508259088845 4.794850384946003
Fe 4.923284372384999 3.999499375315478 9.343016596234847
Fe 5.6477363854003215 8.354712935687983 7.729544365957395
Fe 5.3415766190556955 8.183099984051205 5.184913521901397
Fe 7.958749004102309 5.708307695007705 6.241095671334253
Fe 5.669452789745414 6.38763516632481 6.680111651635217
Fe 7.348727479147675 8.748052907096847 3.786240536231227
Fe 5.165006122321543 7.555317542594932 2.910225432846177
Fe 4.215687957901948 4.716254304907577 7.242012621796721
Fe 9.574880001536776 7.36049040819095 6.903356124416285
Fe 9.056994735330791 6.8782007224614885 4.5896255206649545
Fe 9.144302445915132 9.247154763268846 5.09393622064706
Fe 6.698098955284512 6.412113093805027 4.265158336982998
Fe 7.459432306901409 8.116177200858123 6.151504229794989
Fe 6.099257257289033 4.360133154968744 5.471046400761218
Fe 6.72298489693876 4.649896234168787 8.029352999397778
Fe 9.17202617392616 5.444758349038671 8.1691249598774
