29
Energy = -196.34559106 eV
Fe 10.991735610524572 8.421541912015558 6.949891605617166
Fe 10.347553736298295 9.843993262256381 8.850824753762089
Fe 8.065562928503422 6.42881152460169 3.7370151267810914
Fe 9.354887495087244 10.135951822734059 6.681693175906915
Fe 11.168673169119327 7.667338780868617 9.172818051909589
Fe 7.1216244161462265 4.788976723247338 2.3740437744049663
Fe 8.972975185453084 8.032081743942365 5.550591274813127
Fe 10.099798943922865 6.142204599293987 7.464946865478593
Fe 7.849096904917536 5.982665693047104 6.154435452094416
Fe 9.600671305465964 6.111421921791284 9.928192780854317
Fe 8.526941496982454 7.855677330968847 8.120363323894715
Fe 9.049972374548714 8.474036212686782 10.439471289057488
Fe 5.626282372204481 6.405723397293944 3.2146567414387213
Fe 6.5168802950741105 7.846991192129616 4.9261713742912985
Fe 6.429603872692813 4.645327045168155 4.669976124113916
Fe 7.05776451397433 9.359034071331964 6.607163431540523
Fe 7.930354419376023 5.236042973557593 8.414530297580505
Fe 7.982819735159055 10.342956676218128 8.666415722530083
Fe 4.806132385931095 6.208092953102797 5.586445436702754
Fe 6.239347439722047 7.222703472950331 7.821981363090066
Fe 5.871325160691555 4.7238858416366325 7.096244273512584
Fe 7.3069700038680105 6.662041353981543 10.370861096585163
Fe 4.599367162592353 8.489338313973057 6.443559580899794
Fe 5.506074822990536 10.128429350487101 8.17417568430326
Fe 5.743701969177301 5.0549137422509425 9.406682710612674
Fe 6.555103096867461 8.889349899190703 9.91078454787852
Fe 3.987147048343997 6.223961852603906 7.973313535014033
Fe 3.9081207780104417 8.52514723761805 8.71624429900391
Fe 4.920255982289855 7.0816584922399715 10.209322598581778
