28
Energy = -189.65640036 eV
Fe 10.89352168693332 11.125029450724801 6.0736097258583435
Fe 8.365368885446388 7.5885300173189085 5.27842412427148
Fe 7.818480009304549 5.535895776266979 8.572970593438106
Fe 6.285672332015144 6.082327890314403 5.393803985761236
Fe 10.237697141544789 5.30530294863858 7.802762251460019
Fe 5.863358200213958 6.346549475524308 9.836104194855503
Fe 5.5107398924210695 9.566025087606937 7.114941177041421
Fe 6.854626669050746 3.912191094909744 6.7648734095536165
Fe 10.082628279503542 9.330348324442198 5.379446757854154
Fe 8.396556040799291 5.583211523355761 6.329847472443364
Fe 11.41876791476757 8.908260459451892 7.315121926986004
Fe 9.142944125114076 7.704191261549574 7.671819648861545
Fe 7.528392677447927 9.612215804248338 8.723107227615277
Fe 4.389380495755089 7.280553132775408 6.458152163529714
Fe 3.7419429700388265 9.046495425450019 5.42957277988246
Fe 6.7043680981080005 7.4211868370892695 7.480826481640845
Fe 5.383359961035068 8.583324233963944 9.366651215958283
Fe 5.50750035081036 5.261342719980656 7.616364732363857
Fe 7.818876358591222 7.670399276619476 9.884777527921269
Fe 6.1185636397712635 8.340102967936899 5.0881139707733745
Fe 9.695353162890303 6.225557902707261 9.890211905436539
Fe 9.614127778356927 10.182115803378553 7.839096797936742
Fe 3.4482225541189875 8.815633912286927 8.034159517002461
Fe 11.54631259913146 7.082074410476426 8.659907300289166
Fe 10.063461557450669 8.74234005306209 9.6324363156758
Fe 10.71806250148293 6.940647263526135 6.1248997374673335
Fe 3.860317620812662 6.699914254050823 8.751635374723264
Fe 7.8428413062938676 9.611645729300834 6.324157766107319
