23
Energy = -154.64839451 eV
Fe 7.791263706797904 9.74833997719463 5.092369780627586
Fe 6.2255390663323835 7.985800127217334 4.668529883733934
Fe 6.444056509179599 4.870659756067494 8.448642437345468
Fe 4.661139527307366 6.505514551197161 8.743205536657587
Fe 7.046880966178439 2.259908029076887 5.660067598798751
Fe 3.832667173216904 5.505131176046885 6.819168355385732
Fe 8.474257527114395 5.799698437715068 7.888263416900166
Fe 4.934294690533332 5.861206097303349 4.640624990374343
Fe 7.555954290774959 4.470764789236746 5.922060756298549
Fe 7.273969266139721 5.8017412302199425 4.018961912842145
Fe 8.529736187289751 7.858207047722229 4.061890280665759
Fe 9.143812618701249 6.185374113671604 5.639013696699158
Fe 2.7797870010284687 7.546063761793091 7.927740678538086
Fe 8.189851156387643 8.06970315860433 6.6307727990657055
Fe 6.809489209372288 7.552263577683427 8.649056654222159
Fe 3.75451638986016 3.906219903056743 4.926754871896069
Fe 7.700176762472295 3.1164707662183133 7.790592574211091
Fe 6.29006193105289 6.438230875762474 6.596194627250807
Fe 6.087156035136847 9.143820401226433 6.775332866927866
Fe 4.213726850436962 7.802251904549597 6.1804452327450665
Fe 5.979815052684825 3.7015185203706786 4.114086981075254
Fe 5.3697334401824195 3.731282740315712 6.582535983249242
Fe 4.6078716107170505 8.867241747165469 8.511691986078464
