25
Energy = -168.49188941 eV
Fe 6.171116871224369 5.624844700906975 3.434569285316927
Fe 4.041215166947239 6.180047431371655 4.361149455274912
Fe 5.3244904303031575 8.088278966853087 3.8855503943716245
Fe 7.785299880498339 7.374709053458168 4.132561627551333
Fe 9.00159140432897 8.87431465794372 5.517684150727262
Fe 5.562939472201126 4.206428528861895 5.299038121590158
Fe 4.697467019140027 10.067155152157317 5.317441206380582
Fe 7.897541290166045 5.104866856151033 5.120332992198083
Fe 9.800114091643174 6.497769690179134 5.26230215715616
Fe 4.111185759376287 7.99528329297222 6.161586744030035
Fe 5.933076378525559 6.49198186311184 5.684504970206889
Fe 6.595604548068236 8.851227640710318 5.803989900055358
Fe 7.579441660530433 3.1369526263994074 6.332195885952935
Fe 8.126950563874024 7.0363949047460554 6.739260565062969
Fe 6.678627002589446 5.075240939091483 7.43690054018851
Fe 5.814446974177706 7.343281784418141 7.862123654265812
Fe 7.866528321323608 9.190632775113418 7.768517356321937
Fe 9.023250713038571 4.884119434466024 7.432927159807351
Fe 7.142050641048718 3.1287253516847935 8.637646218813721
Fe 5.271373951508313 9.60132870821204 7.7388412251544345
Fe 5.969046557851117 5.217042079755707 9.671030252593384
Fe 8.283091134496676 4.762306770457911 9.699383312258721
Fe 7.681526770401305 6.977868362909227 9.201923475828407
Fe 5.213991753025765 7.444156029707716 10.058713665398693
Fe 6.692232328039956 9.109243082688893 9.704026367821527
