24
Energy = -162.95978056 eV
Fe 8.555734595574 4.044627195457065 5.4585583878378365
Fe 7.32430249861853 7.3782826090816895 2.6630016951150686
Fe 7.401220370800412 5.994450843248359 4.5273835735460555
Fe 6.267580163698837 3.8518841521466762 4.214241186099132
Fe 8.43751872657702 6.39430245364348 6.953384266951995
Fe 6.760716344760684 2.5242294946862733 6.121296713849254
Fe 8.168321562136546 3.954567550153576 7.780354930304231
Fe 5.530811792749667 5.93957382978894 2.855988129646745
Fe 8.08929033080928 8.166629689815949 4.875028776240325
Fe 6.594240585154282 4.96427495813606 6.450981305432467
Fe 8.31987869241802 8.796166647339602 7.014559547644866
Fe 5.7438398771830075 8.102629269021808 4.18679949524187
Fe 6.603312731907202 5.786967179256339 8.658571847117068
Fe 3.595678538003287 7.137474872502153 3.802431050599199
Fe 7.272610889702257 7.922945786989421 8.802680695492848
Fe 5.755163976661384 3.4583831425514764 8.102460451236624
Fe 6.300213730143719 7.508625458382554 6.523901821897705
Fe 4.991207117807303 5.832334813894053 5.054836622153233
Fe 4.562476946612066 3.5738760764166284 5.916419263758764
Fe 3.97357650237559 7.916513714148411 6.056137439695241
Fe 4.879654487904997 7.692851867517326 8.455918717974974
Fe 4.504074696358778 5.584919275453412 7.457667456232035
Fe 2.8248310654364626 5.685650335184034 5.601266943594826
Fe 2.6419629522552808 6.8874193759962505 7.627479499477482
