24
Energy = -161.54500357 eV
Fe 7.070495973973917 8.155075392188598 4.033372962535259
Fe 5.045158783310789 8.334762499877055 5.192233534506386
Fe 9.441932099127365 8.119674639100149 5.152925508459204
Fe 8.166315599974748 6.134606087433047 4.732033334291046
Fe 4.968165135427839 7.795539755726868 2.799773531197058
Fe 7.452891804772003 8.570541496665005 6.334720581470187
Fe 5.241492645036535 8.466258717337373 7.569369594650946
Fe 5.690491587073795 6.071457816907255 4.1607511137218545
Fe 10.367468096872535 6.002513848641113 5.481860523219583
Fe 8.969257957828813 6.769317857830697 7.190255249969774
Fe 7.151571912073854 7.445686987204493 8.637557739499679
Fe 3.403278015815192 6.789502287775087 4.160556591926377
Fe 6.446223584463497 6.415403168058182 6.51244443957175
Fe 5.1748963821561045 8.177876593366223 9.872669489601035
Fe 4.014531901971204 6.469616242708642 6.441810783872779
Fe 8.750102433334119 4.486478399337652 6.52646303453691
Fe 6.67309785063528 4.2241085413551565 5.430291591511301
Fe 3.2858463930229136 7.661210217448551 8.441259629459942
Fe 4.147132119771289 4.482031226517528 4.99851101655045
Fe 7.161180025746834 4.909434179323179 8.196007622158158
Fe 5.0613384804078665 6.172440515570909 8.721161977910842
Fe 4.956093108814984 4.25482644700627 7.2441789565324735
Fe 6.971979996925225 2.7314970634166746 7.305873547751539
Fe 5.291113627825716 2.4209866638093374 5.727223642094165
