22
Energy = -147.97984681 eV
Fe 4.579557765656342 8.153339455211029 5.5916782390347
Fe 10.141629860804874 7.891883559273394 6.151129041891722
Fe 8.544857664801809 6.413857153832879 5.241193791203879
Fe 9.961371101233048 5.486216007919557 9.27003283367051
Fe 5.33731654076392 6.625245097117326 10.055680537320326
Fe 5.046416635103467 8.958678291591207 9.58145791393061
Fe 6.439682109083242 7.121633763754816 4.067592148790185
Fe 8.57606958439537 6.618963676213469 7.718466256761267
Fe 6.99262442032709 8.079393130313433 8.651516886430754
Fe 4.513304368184886 7.354117164843726 7.896812393740264
Fe 6.488207181484609 7.146525857083102 6.357516311983394
Fe 8.362757475087228 8.370414259022192 4.101480651356445
Fe 6.968400249969993 7.984795088919901 11.037630413823056
Fe 9.398267624545335 9.015431088447254 8.218292813900334
Fe 5.664655332368877 9.485397449656263 7.225435484764612
Fe 6.293509468130198 9.433589662017786 4.766150700494108
Fe 6.1784526846400425 5.649871799532947 8.008905324222834
Fe 10.512121864256821 5.679863993696509 6.829939434542358
Fe 11.009924489618768 7.370998716300547 8.446039330395203
Fe 9.146134796470097 7.693861958795534 10.084325550632608
Fe 7.950384201504254 8.868798666098973 6.374160650165428
Fe 7.628432175017136 5.881637259010223 9.935431986321984
