25
Energy = -168.99364041 eV
Fe 5.501248944261228 5.11885380987315 8.65672478727803
Fe 6.9706192277080685 7.2758088843992175 8.142102130310015
Fe 4.739990745948666 7.096055513206752 7.364751885857586
Fe 3.2276456184333697 5.358756339574305 7.955739703195184
Fe 3.9849775369717926 3.210357095881408 7.82068674656486
Fe 6.359694819070585 3.1055969841984012 7.708111855205348
Fe 5.794505563563147 9.17083068455739 6.683251917017014
Fe 7.435142590087687 5.061933358431083 7.111851491712157
Fe 9.047529256798354 6.708670899910032 6.926630637258288
Fe 8.04722929720124 8.910438202038002 6.835830292666499
Fe 5.140293853902769 4.966677803791917 6.1386978017419915
Fe 2.786788954590835 6.2789751928051905 5.862467272265277
Fe 9.020788470937504 7.983718210190259 4.925160699364575
Fe 6.666636044574739 6.9285159402177605 5.644328922152319
Fe 2.980969380397584 3.905347613381151 5.733515180903899
Fe 8.606610239537954 5.435686031755578 4.968022236319071
Fe 4.968585127086008 2.2743397166521824 5.913618410895166
Fe 6.903617407954717 9.07157998499974 4.537787377678113
Fe 6.9605645038635915 3.3914670739324277 5.325745285010768
Fe 4.430247939847861 7.992138067473845 5.142027283787235
Fe 7.853393581057203 6.927868217834346 3.2638775487070477
Fe 4.04345616360279 5.795439739438544 4.011626275464922
Fe 4.638937520867443 3.5068736517268557 4.023012944714978
Fe 5.615192404948147 7.552083056401788 3.2253184185140076
Fe 6.379865982680408 5.174493768919808 3.8944188107435207
