20
Energy = -132.21517554 eV
Fe 6.188202879269066 9.342420966050373 3.9245340476074184
Fe 7.611397122968018 8.160025097146377 7.861962919491159
Fe 4.6925785339402735 6.475230972028643 7.904246789679034
Fe 6.7757903054634605 5.784210328840486 9.363945289510372
Fe 7.035392337405823 6.759439886276592 4.589006618855133
Fe 9.646698051066508 4.493816831371775 6.901947891802455
Fe 5.6118629335785615 7.986324109614309 6.260333200967755
Fe 4.2352722428841725 9.573368489228336 5.145724799671979
Fe 5.523393651328955 3.2954404774682775 6.181468243378273
Fe 5.1419046849136265 5.486824454262696 5.716631424347606
Fe 7.660453103191651 4.535248494178406 5.718085707227978
Fe 6.1636741310223275 10.389023169284945 5.946924995314394
Fe 7.755113768994761 8.637594986320323 5.565192326500831
Fe 6.902532106271898 6.137904827000421 7.14761699051011
Fe 7.682041224191341 3.975431633522623 7.963111926422011
Fe 8.93997061413788 6.233366615330166 8.402259111314692
Fe 4.766942319305882 7.297901579572911 4.235096664276807
Fe 9.010256692973282 6.717916267180345 6.148394719073587
Fe 5.250052155602553 4.234317879910054 8.228628043277517
Fe 3.4537780355522423 4.5314998294733675 6.842195184832176
