28
Energy = -189.46452544 eV
Fe 9.55356225204224 7.4567273764446655 10.679999154868886
Fe 9.410827786675258 9.816351104388103 7.17218525750237
Fe 8.139389702101056 5.404690911803229 6.366348090490253
Fe 8.414531929574336 11.634333453223894 8.448560705733362
Fe 10.74067156606248 5.987799952728762 7.018136050465634
Fe 6.804086899672116 6.568821295243865 7.894880921455688
Fe 9.58864872047087 3.8614360186072214 7.044455107063469
Fe 9.526554212011574 9.969091413304666 9.65367333991609
Fe 10.609426787740949 8.093767492331704 8.361439304845327
Fe 10.498188783897502 4.186936172535163 9.032376973487203
Fe 11.304761759580686 6.239493695629183 9.623669073832703
Fe 5.6376094665363645 8.176172837905034 9.347138693865794
Fe 8.175350759872426 8.323673650145217 9.000132978826883
Fe 6.830022335451433 9.143857748773458 7.233007504797684
Fe 7.254805078971415 6.442789656291283 10.272667245956999
Fe 6.5981320617137875 7.153919961983837 5.552189119130511
Fe 8.831746451253625 7.6229217536444525 6.590266854957933
Fe 5.0222463330536735 8.814325207248903 5.37924180489492
Fe 6.162303914746555 11.672998158949326 7.916186888528694
Fe 7.988509746531299 11.354531702591668 6.164061637548004
Fe 9.102629631502035 5.039743145604513 10.680796750379047
Fe 4.744366202573674 7.446733022032839 7.282144798199763
Fe 7.828036323436612 4.290355649607332 8.734638902152513
Fe 4.7218615844077645 9.830252079519331 7.753200256628116
Fe 6.8671770260865515 10.188580550035953 9.62939716439076
Fe 5.739919443094771 10.935307355478331 5.714380715109617
Fe 7.614211360961198 9.24723375133362 5.071291919187467
Fe 9.07253075163485 6.2163322731403845 8.568998622525116
