24
Energy = -162.79671233 eV
Fe 6.057368618576422 7.608990633569105 7.664417656396864
Fe 7.242988842859448 5.7434322976307985 8.789310897935923
Fe 5.008219270945358 5.362307852090043 8.10448559391089
Fe 6.693031064250659 8.907286188995437 5.8472735415057215
Fe 3.6937639626945717 7.411074041012895 7.620187830050104
Fe 8.225248915186372 7.1484348245435605 6.787967576584481
Fe 7.112304154878933 3.47608852937037 7.975758431676552
Fe 4.324873517644096 8.941526970206839 5.868418370550833
Fe 5.059676758494438 6.673249818236391 5.560553982625709
Fe 9.072715481916525 5.085654165406869 7.5702332948108495
Fe 3.3370805072186993 5.09090749117986 6.424004426375429
Fe 5.817047242301152 8.4632961841393 3.7297142764705273
Fe 6.764001761155043 5.1864010180390165 6.3203225535563785
Fe 3.597399983935234 7.938321885374809 3.7746239369287378
Fe 9.132326693361348 5.471290879723755 5.159318117593168
Fe 4.921076771846742 3.2591326501058635 7.11933298313487
Fe 7.379143503770085 6.875847238149229 4.491331396474335
Fe 8.626167587795871 3.336941455582017 6.086272221262616
Fe 2.485200436617997 7.16315004261926 5.679579716200034
Fe 5.430631787394545 6.132187989426157 3.1877565772864704
Fe 4.961866891017543 4.23563079318871 4.778590040869849
Fe 6.51979303307121 2.6463274131063073 5.53351874275161
Fe 3.2361775714765306 5.587523561454125 3.966790620588981
Fe 7.3094944366466255 4.400255955887743 4.054444433387537
