28
Energy = -188.27656541 eV
Fe 5.043825954714925 6.840964017068738 5.667733074085973
Fe 8.531132183431454 11.54099330115826 8.873566969371113
Fe 9.50580968365771 9.412185321532768 8.563418510001414
Fe 5.947112965610536 8.380407080105428 7.350163868467903
Fe 7.719233360026908 7.837182931830113 10.865731965610072
Fe 7.84191715169749 4.705096709483329 7.744465803944879
Fe 10.031838468958561 8.079759794145128 10.2322161796455
Fe 7.9754667482573325 7.3851558695121025 8.555922167350527
Fe 10.510423098724337 10.882003399205445 12.220372332095092
Fe 8.653363701380483 10.140938458150224 10.868650882869078
Fe 9.58546207474014 13.541283943343064 8.959566803220735
Fe 10.744306626051698 11.33760976578502 7.988534526675052
Fe 9.07085681718596 12.48201010368616 11.072082441864639
Fe 8.125086614229819 9.289708836147963 6.778406486904844
Fe 6.0815466266773335 4.7209562052638105 5.938772580405975
Fe 8.199925210578328 4.788883186788248 5.076193994810327
Fe 9.75749353153206 5.403323156828914 6.775273985456116
Fe 7.277195682374366 5.596343332352997 9.984328348568255
Fe 6.584379181371307 8.480922809345214 4.965779675178755
Fe 10.968954597195776 10.408312441847336 10.074546829575954
Fe 5.886387688276627 6.065100174507239 7.904563147684839
Fe 9.627865591302808 5.81114835999655 9.165947532980125
Fe 11.24018465765951 12.630126509154458 10.219257770698551
Fe 10.128465821464609 7.610996010635851 7.2898847379501595
Fe 5.683104376817241 7.630216071427636 9.741094979208526
Fe 7.01061362800472 9.581348715766497 9.157909829112947
Fe 7.749719043751662 6.833896360827923 6.1989756969498835
Fe 6.642026001010902 6.232521603457253 4.035113988470176
