21
Energy = -136.23983937 eV
Fe 7.639183648352817 2.7635980511587994 5.192251283707013
Fe 8.217184740999775 6.638023808490427 4.233530425914881
Fe 5.833247351722883 6.184571784449722 4.373740212041861
Fe 6.539121702405272 8.528033585152498 4.211676988371259
Fe 7.548433659903281 4.910881862821652 5.993623193975757
Fe 4.7301923755653466 8.019130897324075 5.719936418238898
Fe 9.263879368734022 4.443843846135436 4.583309453958854
Fe 8.362832507868594 9.026683616455824 5.596943775728798
Fe 7.13311780397662 7.236434497652959 6.231739807337079
Fe 7.430532586001961 5.953645697109675 8.270118071310069
Fe 5.4809336471390635 7.7020964266021865 8.00130733168584
Fe 7.295493831180099 4.458700462180414 3.4438403154987665
Fe 5.561007210744495 3.8280068733733064 5.1008604582335435
Fe 6.269040118103027 9.592284328660405 6.606138872674515
Fe 4.200885215120724 7.439097237917876 9.811228721705822
Fe 7.782998968290445 8.47906344086679 8.118980367072657
Fe 6.559139326062858 7.278879726919792 10.015968718569715
Fe 6.3337220211877865 3.699181280772016 7.568531356851948
Fe 3.983371540500807 9.302218864566505 7.8221177159551685
Fe 5.25499189638547 5.702358967886572 6.684479564508846
Fe 5.213137428834847 5.445711692582413 9.052123895738331
