23
Energy = -155.40641045 eV
Fe 4.7666700443073 6.563814619113982 9.222514814333012
Fe 3.6111041292414394 5.141959755481724 7.255674488241303
Fe 9.32170898838134 5.564778456919398 5.570301844162714
Fe 7.094496176921225 7.192439823565018 6.14404149391597
Fe 6.700421608928615 10.79625751596538 7.662848268329138
Fe 5.429873466437065 5.047728777063523 5.6334326195500095
Fe 9.169270156451896 7.395274037638077 7.290752962541148
Fe 7.416107323872946 6.0003322037483695 4.192043251140959
Fe 4.829969011700528 7.021124847653136 6.92173118842509
Fe 5.5839966939457675 9.320266333365533 5.952599825527355
Fe 7.1052294364860895 6.501734297140496 8.472893715510818
Fe 5.5914187056887314 4.58036032202347 8.196827390953011
Fe 7.5442411577201325 4.76609252682749 6.75842418653784
Fe 8.15807945828439 9.05053379037562 8.822192965339148
Fe 8.003979118508573 9.427312627665245 6.426700495307013
Fe 5.917525488075222 8.693716641473818 8.233511786506787
Fe 9.104159211067136 7.7716659722264705 4.82691483882338
Fe 5.298536478357408 7.1938256565456555 4.522343075147993
Fe 6.782292729301593 7.733585963954521 10.341858846313322
Fe 7.912935026000695 4.542085706729987 9.288773124311904
Fe 9.661039792262963 5.197515017075445 7.988172568293892
Fe 9.037208016265081 6.791056318621398 9.71660681018843
Fe 7.102768739294778 8.744021024237293 4.1961627606009575
