20
Energy = -133.63047462 eV
Fe 4.395837278603717 6.371842564657406 9.495513598553167
Fe 6.064948346794154 8.161854455178844 9.51290529018533
Fe 8.283330507953043 7.844671630644579 8.403041102059463
Fe 9.117219745904716 5.6494452369134995 8.092837613921958
Fe 7.456107297183463 3.981068695734961 7.703014520834955
Fe 7.339269004989571 3.5589817922235594 5.423585228739757
Fe 7.735161308205337 5.581472508151389 4.244010181909576
Fe 4.664026887796291 6.640336893552242 7.253811079317195
Fe 9.476804143250545 7.133927725627538 6.023304834628816
Fe 9.262885286667588 4.6957330839344396 5.936167306671999
Fe 8.273205872768765 9.088140532590915 6.396885372285211
Fe 5.533760903054492 4.679191434338894 6.387048873182472
Fe 6.162068040066818 8.403815678243642 7.15672765969435
Fe 7.323975176840941 6.253589780240944 6.432127311639556
Fe 6.065024036027947 9.333900255909448 4.982694682833561
Fe 5.5748358200672055 6.854031091643754 4.861769661326893
Fe 6.613502428137387 6.042506976680379 8.66314720498008
Fe 7.781859160877728 7.942750550745975 4.353175711154182
Fe 4.0513763188999885 8.366866029940539 5.746958014257183
Fe 4.111906155449846 8.702976802586202 8.21837847136342
