29
Energy = -198.55210033 eV
Fe 9.921547714507543 7.007476177821074 6.557762328447053
Fe 9.196555838512053 5.120297444551788 5.211249616401271
Fe 8.026100614674826 7.191293618222137 5.139195549977939
Fe 8.321627258558326 3.3438369470020675 3.931723997268149
Fe 8.072795558956397 8.26212903075597 7.360112897931885
Fe 8.04267446281164 5.744002251935733 7.244460260747192
Fe 6.522738836396481 5.28517697992255 5.225426935078116
Fe 7.63520214010535 3.422591485578926 6.319468999810629
Fe 6.582937924776808 9.117142613071561 5.422824981590223
Fe 6.518826479767827 7.5980332503090375 3.355630238623952
Fe 5.998726690250256 9.836148174862581 7.593506198661999
Fe 7.676018974597893 5.495385544816431 3.144085559295386
Fe 6.709925615613082 6.389157076844306 9.21371315603256
Fe 6.979854715855921 1.6400845377596098 4.9740890550589985
Fe 6.844009666164497 8.69201569211315 9.426538912911004
Fe 4.716744446593022 9.156874397684284 4.012988876601972
Fe 6.004783614215545 3.419039849510716 3.8389413518230726
Fe 5.9781952466981325 7.2351078109905105 7.0459712336234945
Fe 5.22185716992578 7.468670824283351 10.681574080995107
Fe 5.249880289726749 2.877729026710143 6.115017218358359
Fe 5.763222973640533 4.838273519735187 7.439801221006257
Fe 5.209297018006059 5.5544752939541375 3.06551614682341
Fe 4.50166550083154 8.204005645782544 8.66340574851937
Fe 4.195548310309071 8.914536290156931 6.3071585638348475
Fe 4.811233240928319 7.038325545003884 4.884365931376302
Fe 4.067211141287759 4.717299930529206 5.126906827907796
Fe 3.567367623062646 6.497940875208099 6.893878896016992
Fe 4.2899537752421795 5.846727435794309 9.058883597397953
Fe 3.509425857952461 4.168142272221883 7.362162123403905
