24
Energy = -163.90237991 eV
Fe 7.516975519166872 6.97111272372577 3.1461393119375236
Fe 9.431467122781017 6.928444155193753 4.901848654465008
Fe 7.01920378802877 9.084076884291676 7.4032797193986175
Fe 7.585784910279934 8.467859462686745 5.075575265002377
Fe 8.52880237500408 7.1446227451708 7.1034305964628315
Fe 3.7780177425412247 7.272425026401916 6.126778977223185
Fe 5.501498900974785 7.317752746431487 4.3462669277612385
Fe 6.783260650443913 6.960116369613981 8.93249119209313
Fe 9.259968601411849 4.996675107738389 6.4076432179519385
Fe 5.269458351300197 9.238218223792902 5.819326035249488
Fe 7.419440133402318 5.855286012963463 5.01799646190831
Fe 6.127941317882789 7.103568603808342 6.638097320984196
Fe 7.131983370179871 5.097543860162088 7.465596566162672
Fe 5.160662321717234 5.071603712999737 5.784401234571933
Fe 7.3743162922337815 3.625398479842394 5.500552447587652
Fe 5.721734248766563 4.808821788174501 3.591495775972463
Fe 3.53656780538372 6.02802885523606 4.040928998617928
Fe 4.825777061888925 8.002840629789656 8.208667772581816
Fe 2.638928807298439 5.300815179789589 6.321018900369807
Fe 4.6338560849893025 5.554021745591012 7.984660523379603
Fe 5.295061761894815 2.735759873770401 4.926188677986842
Fe 3.3413512373738055 3.819764631882841 4.477298197828711
Fe 5.976478583099089 3.0897019425673973 7.333999436207251
Fe 3.7709469955901707 3.3630275307056485 6.85877751214194
