27
Energy = -182.48402217 eV
Fe 7.5083831133055545 3.3447372801905657 4.4004793230348715
Fe 5.572028772790079 4.573564583039848 3.692883436677658
Fe 3.887667090382353 6.406493193846761 4.895067788591379
Fe 4.378325941767093 4.343021589461033 5.79555581085222
Fe 4.810837511613579 8.640564094689594 4.967261321598095
Fe 6.230342315463576 6.770239771107808 4.207927730554133
Fe 8.456982734362203 7.775120004819483 3.618230215507348
Fe 6.672303184761617 4.717479862254631 5.832219189759424
Fe 6.386896890969392 8.781562677228713 3.10338924317295
Fe 8.119896395537971 5.273979875965551 3.766544648122345
Fe 3.467373882660897 8.015671314325932 6.830715087036385
Fe 3.5499353843129784 5.841925411567835 7.58625973928666
Fe 10.096379782040081 6.397575040225808 4.926884186816452
Fe 5.6681729605830045 6.752634091072927 6.60677657041608
Fe 9.131136512341143 4.547588066624293 6.02016582203963
Fe 3.8735368534818555 7.7894149879206775 9.165859586083307
Fe 7.67999724667724 5.484860603523012 7.8578177502766415
Fe 5.489513463142401 4.521728140037325 8.058028737241509
Fe 4.25037594791243 5.562947555435872 9.912051842211977
Fe 8.041286371622725 6.81628682229485 5.808623318140477
Fe 7.794824572721283 8.206893715245693 7.7332397725119275
Fe 7.053331725681621 8.956287474425652 5.431846159785616
Fe 5.510786241524968 9.036234820919347 7.531210204247547
Fe 9.760265261984902 6.542607161252048 7.413550476715802
Fe 5.9851049341720435 7.004129570768102 8.951722331340267
Fe 8.214334613490276 6.843336001681096 9.657003184069966
Fe 6.563735421104042 5.08241283072155 10.161115161094088
