23
Energy = -153.91650892 eV
Fe 6.022623888594792 5.23010459481127 8.83437636502724
Fe 4.954013059602253 6.80812069705166 7.19625246239918
Fe 5.580956002873184 9.070022058987533 7.254177485777466
Fe 5.20811775685375 3.3407922568149373 5.3144765660319635
Fe 5.733948426743479 4.949789734128002 3.69630864424652
Fe 7.2397590610976135 8.032593885760207 5.964285024019102
Fe 9.511359867945165 6.775097443893553 8.705381556304266
Fe 7.933178952694179 5.945807376419443 10.109382587610568
Fe 5.449540122092193 7.1723125894891915 4.500738064103165
Fe 9.26944723304478 8.12014302971445 4.738031969899065
Fe 7.7317807093723525 6.246464911398866 4.257106734933037
Fe 6.573510149653921 5.350243398385694 6.1453885872692355
Fe 5.526271832373741 9.660740000651225 4.977722058130475
Fe 2.7982079324178994 3.495329568736852 5.676216631922873
Fe 6.502968820749411 3.3524543052934166 7.4377217268478395
Fe 3.8864520403690985 5.62170934939078 5.271200054194226
Fe 8.33593835338762 4.768543987401487 8.059330722110623
Fe 7.091048068640582 8.558363891016533 3.672165184309182
Fe 3.5598701625561264 3.873741699121829 3.6180658577382947
Fe 7.2228957588292095 7.173323142752023 8.129555808867122
Fe 4.332463569296942 4.434037785625382 7.315214966193253
Fe 8.908917913168521 6.378564682710198 6.439091331935588
Fe 3.7711485520224413 8.263690569071771 5.761695458817523
