20
Energy = -134.35120472 eV
Fe 4.147401437803937 6.908113365455375 4.7091394140094
Fe 6.510538832292412 6.308099888978624 4.268084223648151
Fe 4.867473473736648 4.577631176830857 5.165492250398878
Fe 7.845511680102882 8.287217763042678 4.035882718838704
Fe 7.938792617347044 7.608987978355345 6.110455082214353
Fe 8.757024761306203 5.833203464479016 4.785517485807906
Fe 7.152356610341786 4.1761288879967635 5.664073724851167
Fe 7.564072032616594 9.700575935121712 6.6215370545425545
Fe 5.832635711365882 8.572829057345015 5.356617965313765
Fe 3.398059037087525 5.668140911473959 6.649524069092098
Fe 5.81441506901731 6.349649208899634 6.549315624187506
Fe 9.961897317228807 6.75670322187306 6.760041920467498
Fe 8.093404026011694 5.486722624601973 7.259225952266689
Fe 6.1379546627485055 8.277983120149123 7.930571703151443
Fe 5.491873528656367 4.308066765699718 7.606798285033812
Fe 7.5243060021007855 3.6030434498033523 8.330675644487092
Fe 3.9410649269832674 8.044817263768913 6.8230765212361755
Fe 8.408303718157892 7.77060606490039 8.40235093812317
Fe 4.483146352784833 6.4010301364911335 8.591298489263352
Fe 6.795119992468121 6.025801504891961 9.045672723225334
