25
Energy = -168.17069332 eV
Fe 6.241234122877695 7.543406592208337 3.6016649973821715
Fe 4.207032947831789 6.225591955829237 4.267434925555631
Fe 4.571664007487539 8.51625892242301 4.746273151257473
Fe 6.319411102793226 5.19772773565414 3.9844922973827503
Fe 7.102618181910366 8.740496536875778 5.809837555314025
Fe 8.065591378388259 6.691489101416519 4.780829527567288
Fe 5.847536033978535 6.757344611137239 6.168353115550544
Fe 4.907876238274133 4.519243809825445 5.884905995838968
Fe 9.834954539152635 5.302544229358122 5.571298056390585
Fe 9.760868008381271 7.807184428266276 6.007735639797501
Fe 4.683223723290348 8.940036780387139 7.009346681509331
Fe 7.406193447396323 4.728823239977909 6.062018333157785
Fe 6.399054817176465 3.3433432397245806 7.619591048458785
Fe 9.145983717857142 3.3795228552699426 6.817064441832665
Fe 8.208490392042698 6.734333996402361 7.277339122300758
Fe 3.4188789646277513 6.81698643094767 6.416491503061567
Fe 6.30670320597211 5.576571462053935 8.232692762044055
Fe 8.601586382611508 9.097492701993696 7.708377114097702
Fe 6.575538343160421 8.036989628857617 8.402833294129723
Fe 10.223983607128574 5.729809722075811 7.728362778146865
Fe 4.087837295947378 4.954801884424241 7.961456651077094
Fe 8.356253142921535 4.506589741284117 8.624487112439523
Fe 4.3649387097167525 7.217550420829662 8.650046261931601
Fe 6.515733862905817 10.322050054478678 7.561730244246734
Fe 5.028076222252901 9.495072314382597 9.286599785613394
