29
Energy = -194.6516978 eV
Fe 10.569664569994286 1.561285261957095 6.947189371998845
Fe 4.689474281695509 7.628657051956916 7.109386774225675
Fe 8.993170664993567 5.400049896310078 5.674932787267671
Fe 8.00838705760645 4.860711628407205 7.98852590141712
Fe 5.910154399784488 6.991631083311512 11.0437995954071
Fe 4.335348729854192 7.8284585295624245 9.451595075771221
Fe 6.868772806203676 9.764540974233356 4.587650094064484
Fe 5.959387987880716 6.038365588942816 8.572106196021315
Fe 9.562725068088536 8.041798772085306 9.64739026688896
Fe 10.290934867907515 7.4623137107152875 5.160457139351057
Fe 8.861781037533001 9.721488283682465 8.17376444062166
Fe 8.992151733718872 9.370082767064421 5.842830153924074
Fe 8.07700624171531 6.220041491227162 10.041277390116463
Fe 6.57687878409929 6.1003492568918904 6.171705049036578
Fe 7.955801139113802 7.478050715654767 4.641526692046332
Fe 4.904083274636365 9.868481470428902 5.9373651755052075
Fe 6.978366209765453 8.211827332802685 8.988759398711398
Fe 5.4856272677525775 9.279131913643516 10.921485987465596
Fe 10.81041342828492 8.206127971824365 7.465278551682073
Fe 11.28049042534723 5.953599204115903 6.651678530077231
Fe 5.133507922222392 9.859645016232768 8.385745676771906
Fe 7.781765836080791 8.531408886217298 11.2239439168801
Fe 10.264779013018668 5.85028853807438 8.831309313195213
Fe 5.5175457611750245 7.842650263380832 4.735905672194597
Fe 10.252633834754741 3.9494168366348266 7.36833224784908
Fe 7.012259383393764 10.858218052418279 7.123140532525087
Fe 6.856272312959132 8.552483774545944 6.682007030070102
Fe 7.163445350362562 10.518524678841068 9.671680786276493
Fe 8.62068601827163 7.196682467232537 7.4289746640631735
