29
Energy = -197.84064116 eV
Fe 12.335252529814195 4.434875713527312 6.930295617574434
Fe 10.570487533434678 3.766227425708516 8.427726796199913
Fe 5.585135985528479 6.913502665777122 10.249881106312785
Fe 9.999587903207898 8.254766888340447 8.128179805991987
Fe 9.622434318254705 10.825829163442899 8.082403095170047
Fe 10.001013731010374 7.429010810128176 5.5202052897474205
Fe 8.477647326390823 4.307680373178273 7.449953209398964
Fe 4.528582160678791 7.382277926803569 6.326431920656648
Fe 7.881320759814106 9.368571276165348 8.342802548100728
Fe 6.503351903681804 5.586323962043707 6.45498469208789
Fe 10.567637754103313 5.8659308973409 7.23766172303377
Fe 7.212694778788624 7.5362027800279305 5.265460133751367
Fe 4.708114520547225 5.675126325800883 8.071404706720639
Fe 8.377027040242622 6.873274058684314 7.369065733446219
Fe 5.773191832784118 9.222889037686212 9.582788915808715
Fe 7.698060190956582 11.28197957365432 6.744094193736808
Fe 9.468192370464502 5.792782185111342 9.350022062829293
Fe 6.164070958586323 9.508151911622157 6.3139993622408
Fe 7.712581636163531 11.35556277748277 9.499444250611518
Fe 4.235848694460492 9.447407766302765 7.652398853207957
Fe 10.329025048925343 3.500132835705186 6.054819263145119
Fe 8.818004624182198 5.4172488532382115 5.3209089930445
Fe 7.925296632861945 7.639594103675316 9.830939925286094
Fe 6.995775787433263 5.501773605449425 8.976405431813651
Fe 3.7986736095971865 7.619114913567524 8.915851312816981
Fe 11.236220257310832 5.345029492892546 4.970301053203808
Fe 8.698854683761716 9.261865466608146 6.091303376123932
Fe 5.937373263939271 11.208503005760203 8.240177681889062
Fe 6.18023470488485 7.673840774520198 7.879276652176413
