29
Energy = -196.83795358 eV
Fe 12.22378002938625 5.652733878821458 7.46751587872997
Fe 12.169957228059124 6.9170659274576884 9.435675442482907
Fe 5.384202453019471 8.99329839108748 9.272578495793063
Fe 6.671414557438927 7.205861268492934 7.561724629546505
Fe 9.930801556554162 7.728819558523775 10.180681836697115
Fe 9.129249119284966 7.857566045509595 7.741180720312992
Fe 7.613880111372224 8.420126809880797 9.8812992422454
Fe 4.5195314947154825 5.566481338523871 6.706332525414825
Fe 10.389744782914994 6.358795552776149 6.068714441258145
Fe 11.828483130499139 8.014891500891519 7.034592821474953
Fe 8.06646943525618 6.113077166136897 9.507986544753523
Fe 8.206842412374591 6.904689896850726 5.391146657352646
Fe 9.32396362166175 10.055843099490694 9.067929895342987
Fe 4.004378505363969 7.410621745475944 8.2251383470619
Fe 5.7578904116292495 6.721155257889673 9.951102162910107
Fe 5.7931163536427865 7.2689745456646 5.129583807984708
Fe 5.182544506240683 9.159456777119559 6.776458135685412
Fe 7.35167389320877 9.089353322362475 5.661428434777725
Fe 7.180911291818611 9.880236304635215 7.98804136672385
Fe 8.830324276973414 10.731317086369804 6.571150636670313
Fe 11.594090915856453 9.126703914440895 9.197779803969112
Fe 4.143272005531702 5.229554975480982 9.019160219221982
Fe 3.621526116409645 7.562531878596938 5.924575665349891
Fe 9.87200346269759 8.79656786748748 5.472437652219002
Fe 6.351486904166951 4.79486622920769 8.29503868795561
Fe 10.343013442365296 5.572359828263102 8.830017615726318
Fe 10.95631540264605 10.240825953028176 7.220417939137214
Fe 8.53587370001461 5.347214737698489 7.255413483786029
Fe 6.64622201307514 5.106922994645277 5.826200286797453
