27
Energy = -183.08278964 eV
Fe 7.820472397063519 7.308154524334642 7.35718118913669
Fe 8.14909484672055 5.211441601537708 5.935407912916152
Fe 4.306750267818872 7.784700924955053 6.170502173757148
Fe 6.728822560995503 7.296789432759755 3.0295638642595724
Fe 5.08933046520014 8.83590555184197 4.070504402391158
Fe 8.98786727539532 6.4839433048737085 9.313826098902329
Fe 6.272970552410902 6.214744212404915 9.05965810019347
Fe 9.76055236267611 8.67183990754775 8.175396749940372
Fe 8.716602938313464 9.00847856222189 5.985144175822143
Fe 8.405316937040292 8.540891264948842 11.88897291426891
Fe 6.823518082774874 6.949307356462638 11.245844561181547
Fe 7.528332060170946 8.381710606887351 9.577426037086479
Fe 6.598460362591264 7.460673565929661 5.419431147837967
Fe 9.063836349661889 10.070648110433766 10.067756120018734
Fe 6.522960927406957 5.290061174458713 4.254402192627667
Fe 7.713301604733853 9.95958287880391 7.946124337738021
Fe 10.240417130004603 8.147514084944117 10.40672680294008
Fe 4.60730433164096 6.506069020485094 4.2728391697816175
Fe 5.77254023953769 5.759289626962852 6.712782057188743
Fe 8.690944588488945 7.044831888723053 4.602441032266192
Fe 5.8169737149620335 8.199768867756092 7.928638119338733
Fe 6.201478844090323 9.725270080217859 6.011138312593077
Fe 9.873863587884083 6.516073071864949 7.009644048600811
Fe 7.505510278996143 9.305776599384918 4.003997229828917
Fe 7.848070568244313 4.80526059571252 8.172802805811301
Fe 9.224647552972453 6.390888316500237 11.748288444321513
Fe 7.763208204663533 4.931619422872526 10.67510597451514
