26
Energy = -175.5362248 eV
Fe 4.770924480193915 4.688442704418474 10.009063339590863
Fe 7.85096065380928 8.65777326591994 6.170843672577101
Fe 6.07415346323604 6.592887160829834 9.977794521357199
Fe 8.788355459718124 10.348122651051543 4.159546306927043
Fe 7.014838933088331 8.793481441166886 3.970555867603724
Fe 9.110272548201035 6.5689494409658264 6.4291178246980785
Fe 5.07053077950882 5.888330743394333 7.822184538986795
Fe 7.183832288786796 4.9395912898999255 6.34836143818959
Fe 7.458658581841415 6.769366164098388 8.124394182982993
Fe 9.925815165237843 6.620360869918124 8.732285435001799
Fe 8.962240016489536 4.6046663962139505 7.943656623048231
Fe 6.612125326979926 4.313384129337298 8.548488517696013
Fe 6.14786502067824 6.991658375598841 5.819686920123414
Fe 8.090436087804317 5.238476320652962 10.100851237404875
Fe 7.953403650795509 6.616391769278339 4.340523095117363
Fe 5.432728864529577 9.350727504410195 5.727381711180073
Fe 6.774113829202114 8.87202378677808 9.780667059248664
Fe 6.996861252810744 11.023607981750125 5.408359946373123
Fe 9.69838140832842 8.253735584851416 4.563199717108936
Fe 10.549130394759576 8.443108432618642 6.773697987465266
Fe 3.1545273847056094 3.8546586985938287 11.387452582459437
Fe 6.998621621437609 10.389543729958694 7.660455542047908
Fe 8.526528242020316 7.505976234023081 10.438197407421992
Fe 5.599204078485071 8.322530114520044 7.874015602164281
Fe 9.303856133401908 10.509989745969087 6.463348331611682
Fe 8.831315358619037 8.804255629384352 8.360229438844225
