28
Energy = -192.0130291 eV
Fe 3.0765179394195115 6.966678897821419 11.051100316698273
Fe 6.389692096158304 7.1837866113740265 9.132329205973605
Fe 7.967498923757242 8.244438409433144 10.712581303493836
Fe 7.184260899047574 7.120904150116489 6.843988756861598
Fe 8.06304096788985 8.258991704093392 4.455954890475468
Fe 5.964719659608803 9.577710337091865 9.73650267983163
Fe 9.856132871389798 9.843246062704795 5.3429255482070275
Fe 4.823270799081219 6.4343466479539275 7.311664262397683
Fe 9.350311867100729 7.8396843169883805 6.727239186519079
Fe 7.493618484308084 9.740517043963367 6.066578894731911
Fe 8.679436246831942 6.638864279227018 8.946068519427552
Fe 10.97377157728647 6.591800654582768 8.14965820093314
Fe 8.46842832648032 10.355831436652002 9.94948515299145
Fe 5.784939125696463 7.540192353535029 5.157214512381885
Fe 6.4515973623470595 5.131772675616932 5.920745118758298
Fe 8.573069766656673 6.053565748833147 4.906812797931361
Fe 7.750638129256099 8.96126853600053 8.26799664155579
Fe 10.48462952103994 7.685378752378453 4.508884677583531
Fe 4.708438763953021 5.743890490466551 9.612417098824956
Fe 10.883755071483174 5.944194000613659 5.9158346002875
Fe 8.893916366074802 5.238758695068754 7.070302498359816
Fe 10.084991680472088 8.629328594901628 9.130849664154093
Fe 5.363950767950979 7.796170115394378 11.061523159200789
Fe 5.466282901783828 8.85475651408497 7.348268495009018
Fe 6.782666722433699 4.996707410780214 8.27721472035204
Fe 11.473600033559517 8.52470172511363 6.684244209254396
Fe 4.021804461591373 8.02266002939196 9.044662363329978
Fe 9.561523673194525 10.310046334128165 7.590885352967904
