23
Energy = -155.30496684 eV
Fe 9.725302947737616 11.036465054095368 6.2882213828818045
Fe 9.317037490307442 9.02532471205868 7.4232919157373125
Fe 4.555425864394806 7.978953486470589 8.333158798031633
Fe 6.764126210998875 5.764058509543909 5.783685895199552
Fe 10.422906918265102 7.0427996359627825 6.921912038683873
Fe 6.3140557769664065 8.052054390065654 4.9186674361428
Fe 7.550242886066772 10.510787006390615 7.7399549167832395
Fe 10.308135264936134 9.277383946651096 5.270339434237896
Fe 8.553971268493786 7.45575244556533 5.507582523915595
Fe 9.365223680864665 5.507927923664568 8.683771451139952
Fe 7.232813560598667 5.227205959171613 9.797206157869335
Fe 7.433973392747494 7.429254122726316 7.772833024283422
Fe 8.483526188795683 7.024251037098159 10.55507787496396
Fe 5.603286942712107 9.383464980829713 6.745160550371679
Fe 7.761741888477956 9.704304046864655 5.570165690778596
Fe 5.55336159525159 5.781652642484417 8.14171136090832
Fe 10.188101407104329 7.684836361615492 9.145664141924607
Fe 6.006686729919313 9.61483735671441 9.21187215274892
Fe 6.252412640963816 7.434833291668753 10.016443936376211
Fe 9.109732000422888 5.261592137140963 6.301829894753125
Fe 7.377373714232613 4.437386911717478 7.615190911605969
Fe 8.251151362586281 9.169801486737265 9.663461297583462
Fe 4.824995506497218 6.959726102879117 6.285856153082423
