26
Energy = -175.39382752 eV
Fe 8.35600844086607 4.189001789285596 9.55217243930233
Fe 8.204573255294457 6.488758480564743 9.324503186863417
Fe 5.99967542048472 7.706608275555038 8.4927555255456
Fe 8.010835501876985 8.840430918468675 8.771738787379906
Fe 6.346650564217433 5.255514900849693 8.464028906939193
Fe 8.43274704734899 4.784046056705586 7.241309680198392
Fe 6.880776528075426 2.952142271827789 8.35718442213806
Fe 4.083780781921035 6.3107080892065595 7.496815813201301
Fe 7.907540266500827 7.272742895574926 7.061923080953587
Fe 5.2986180124349 8.171596261412105 6.2550082559961275
Fe 4.549791920234449 3.9755035148630067 7.420977295077621
Fe 7.044812039295157 9.553787811725412 6.776954353278927
Fe 6.597259266424324 3.6395095613135235 6.134015538696032
Fe 2.472085739764583 5.309451709000994 6.158588503838642
Fe 8.119818638543212 5.788262359494466 5.019761528987171
Fe 6.0659774449800405 5.962892929444132 6.211049748906562
Fe 3.4404430907670447 7.19109305712606 5.104761045590327
Fe 8.576502029992914 3.5258101249323266 4.931658604767163
Fe 6.576045177099991 4.437992189648081 3.8037814328900295
Fe 5.223611207241708 9.16908977871902 4.121316991405895
Fe 4.431415723102092 4.684651588479075 5.154657919216125
Fe 7.314310038829861 8.131944576384576 4.772324024331835
Fe 3.0545406641157467 5.694487520734393 3.5979153609791723
Fe 7.530072465951879 6.523971039170047 2.8787784779276397
Fe 5.515805088404275 6.692096157550943 3.9500700269617584
Fe 3.794227907991024 7.907229093100648 2.8645374927709244
