27
Energy = -178.83141551 eV
Fe 5.72916670298034 5.5464281847406545 10.501375697981674
Fe 6.606865755384912 4.763836707077965 8.354329702901394
Fe 6.889717060220858 11.463044989415383 6.064563482033543
Fe 6.838387880905375 8.979998152316568 5.790043279901838
Fe 7.013387743426532 4.709720719445369 4.569365049414716
Fe 9.503886522531264 7.277336206881625 8.573229426137594
Fe 8.392306988073285 11.216674175089006 7.811676915794815
Fe 8.915418017192625 6.024741681386763 4.6996783718622615
Fe 6.228974555617429 10.639977354645291 8.329491401322876
Fe 4.769199375535122 7.4406726820414155 6.019176784152441
Fe 8.871073713497639 4.998109067974228 8.727925088559711
Fe 8.414549284571356 8.314372815914775 4.264811766084723
Fe 7.258250512874895 3.621605016184915 10.22542781669925
Fe 8.859310329887156 10.267123087458259 5.734757461072389
Fe 7.423339126094994 6.650267543797165 6.7144272421743345
Fe 8.126741139591294 4.3030894737857555 6.517916406139419
Fe 6.446322228714405 6.940864495122763 4.473264481144592
Fe 5.778062156718394 8.438920628660288 7.901514029415975
Fe 8.045931051136547 5.706914321234185 10.778348498993928
Fe 9.618247221121928 7.96761447963972 6.242382702212354
Fe 7.21453147494794 7.113622100833897 9.186668910173058
Fe 4.830138805361411 6.3173640995444655 8.284805621454488
Fe 8.099034633065013 8.98400540111999 7.781254002186267
Fe 10.043755390024359 5.708066307540682 6.723954611078286
Fe 5.188292245878174 7.903582034694913 10.02992377591892
Fe 5.467420713719187 5.178067860954748 6.216033395693599
Fe 4.943785926413547 10.137094520465428 6.407664712285233
