20
Energy = -131.69982969 eV
Fe 9.948310977135211 6.988504274622517 9.212055412709812
Fe 5.493491835606518 5.932743048913473 5.999549866695123
Fe 7.809522165684508 6.875920390018729 5.405616539968464
Fe 3.7479327009561625 7.639699030875072 5.42326641649004
Fe 3.1667900739469976 5.6633590552485735 6.454512441886152
Fe 6.9541600531962455 6.9960672242067785 7.758282853666919
Fe 5.617901840552605 5.807949504889579 2.39017232918589
Fe 7.834978507325728 5.274862332582875 9.079432543903252
Fe 5.351601687760652 5.003618588975364 8.188782959144898
Fe 3.927156831249037 5.714558921745954 4.250273222608035
Fe 5.864425899606812 6.563686117895097 9.807530682306774
Fe 6.1584273939513405 8.423031667780558 6.226627320739709
Fe 8.705122802297991 8.347889672384 7.180117858901702
Fe 8.043042344104952 7.823814173233875 9.646590304922436
Fe 5.802929245539101 7.418309414385235 4.002653955432793
Fe 9.210947517910713 6.0442488121904825 7.201788078835843
Fe 4.547347032966903 7.186844006146791 7.845281174890109
Fe 7.3801393688777335 4.688217727489138 6.755848147376914
Fe 7.764847086821674 6.672537366436272 2.9834921146669573
Fe 6.702551432345772 4.965765467817167 4.219752573505559
