22
Energy = -147.3401186 eV
Fe 2.739170560600103 7.694270560148101 6.194976462463602
Fe 4.205447180548303 8.36856249436193 8.33314588487342
Fe 4.805220321128927 9.121276196522038 6.076624639016865
Fe 3.187605838428794 6.1152469596055345 8.080022522678474
Fe 3.5410796466354113 5.372941859260699 5.546635304662189
Fe 4.555501250887693 7.196811414876746 4.333731078965238
Fe 4.963415067417083 6.85309397604443 6.765628957493611
Fe 6.643274360510693 8.102117076730165 7.753411883586924
Fe 4.89177566233038 4.509581433329176 7.594006606943105
Fe 6.581990962992157 7.944773406210715 5.218123082579803
Fe 5.393060019502751 6.393538287607928 9.222938736239184
Fe 5.069166207115896 4.88365596763896 3.576553542621253
Fe 7.084149315393428 5.710183401302859 7.73550389289698
Fe 6.195000399139838 5.439505455073193 5.498510679006954
Fe 4.724818212795754 3.3575786783196104 5.379837752423462
Fe 8.489184833786261 7.008467849283281 6.129636275600735
Fe 7.740279010442904 6.080828548713201 3.8968643293876575
Fe 6.816918846605596 3.408196942641808 6.720342409174999
Fe 7.001456730344316 3.5228714701647035 4.293110870208496
Fe 8.652038866708164 4.804385297185131 5.80566642865394
Fe 9.98049887307249 6.208671556621152 4.510111926632874
Fe 9.130772466730006 4.059739523329076 3.561913848698456
