24
Energy = -157.00436607 eV
Fe 4.454710827393955 12.42016685787448 4.575149765667128
Fe 5.661884476607454 7.6772178522480745 9.805784830284855
Fe 9.64260000827544 8.705920533284807 7.770362971003205
Fe 7.188714150620357 5.718936605672941 10.018420513529525
Fe 11.615579081843432 8.312906788272608 6.2440466213947845
Fe 7.665330410653297 9.568745745733471 6.747900344288111
Fe 6.227383746418081 5.925501066616094 5.783286238592873
Fe 5.781096844383643 8.25938716147544 5.848519987937191
Fe 9.730051586522217 9.24338306846117 5.296261367498251
Fe 5.6118883247599 10.744818527219332 5.98554510351096
Fe 6.759025458565888 4.602607300745079 7.767428280424854
Fe 4.497724226189494 4.814385734092777 6.992587699333131
Fe 10.288931759090055 6.891498751569246 5.007789951505689
Fe 8.972364978479929 5.061751749559956 8.585436212377294
Fe 5.670087920676239 9.290164715503554 8.00878375704522
Fe 9.246184379204536 7.163144205734823 9.6215530436365
Fe 7.592097295096371 7.726871521635731 11.220734518730914
Fe 4.584484260513546 7.090293857955446 7.565116376728061
Fe 10.486820199449388 6.4533687285634835 7.4344745610912755
Fe 4.947999072375221 5.4355307054324005 9.24394110304522
Fe 7.259131660880239 7.1481753833973025 7.773348717874202
Fe 7.719393123162713 9.133319836057941 9.305512196814215
Fe 8.004151407715097 7.555911358586277 5.244688342169071
Fe 8.614829277335723 5.367537018113021 6.184954297090826
