29
Energy = -199.13409982 eV
Fe 10.358845305605888 6.469627916150597 8.638407417258694
Fe 8.9730967766156 6.554905494988583 10.49033013462157
Fe 9.561291232686596 5.636959256425583 6.482373299932411
Fe 9.10877473768808 4.524167483359919 8.781151490655127
Fe 7.424019377118512 5.290961991495236 4.480030434311773
Fe 9.362619895874207 8.664723136789837 9.023911399364277
Fe 7.87720936171447 4.5265036132543885 10.746691524308444
Fe 9.217428818158224 6.983920084135958 4.376373150775856
Fe 9.586596429730244 7.939243203590164 6.8216553679398695
Fe 7.702823277853345 4.2806810938077 6.819762092455065
Fe 7.433659107811707 8.417851678539769 10.295396782981195
Fe 7.474128404638938 6.452970928636797 8.424399819346018
Fe 6.475005481518148 4.2176508794539025 8.912168722885081
Fe 7.484024974243424 6.882044465804111 6.011109745593932
Fe 6.340164893336451 6.273024989865112 10.637828748593947
Fe 7.361044008830164 8.750286508697082 7.579831167665414
Fe 8.36818033411447 9.216163155120062 5.2006550667881735
Fe 8.99037761880747 10.472258466935342 7.301541261437096
Fe 5.6057846564267635 5.12022101564352 6.673902184273382
Fe 7.0862646695710625 10.521747846503395 8.871598577349959
Fe 7.115624498342805 7.803507117129963 3.591170103555761
Fe 5.406123406163909 8.25025399244635 9.3027566852908
Fe 4.8286411930371544 5.864768435747449 8.912117973770124
Fe 5.402738743065065 6.5487392889844145 4.713714262047442
Fe 5.4569239233032185 7.356695862579568 7.186418507118999
Fe 6.910839855372475 10.944330400724008 6.228447399029242
Fe 6.718325885814626 10.23044856151047 3.8694947295710853
Fe 5.18336190929655 9.919678636962228 7.546431828338857
Fe 5.83259287725566 8.847683105705634 5.442715693560254
