25
Energy = -166.2118141 eV
Fe 8.07940053569783 6.615701912395018 2.863307064265679
Fe 4.618951549455323 7.033072041490892 7.263264273438562
Fe 9.682504161786541 6.1308562699090325 4.6101527775730435
Fe 4.439135047280191 4.731016428802108 7.583691126817862
Fe 9.048945455113923 6.139261534488081 8.683365564630948
Fe 7.776621971313246 4.705276432912341 4.3843021233236765
Fe 7.469992752237238 5.424338403888603 10.30248768929643
Fe 6.145392660130521 6.01860375931007 5.778606216868444
Fe 6.522822943703001 5.55871575508654 8.259061875942797
Fe 4.174926859407562 7.3402689970037 4.693924596369781
Fe 5.360572575118474 7.194977842089821 9.484315682709026
Fe 5.958777720439381 5.777140291308274 3.4666554841123958
Fe 8.126074717813738 3.8797488322651126 8.236421960524591
Fe 5.643263328161336 9.136924643293332 8.118852025899935
Fe 8.433213264333979 5.462197609207682 6.540404590428913
Fe 5.862494757804431 8.67408005593196 5.756264581754952
Fe 9.46495580425818 7.642835592269839 6.719708931071047
Fe 4.182250525061643 4.95342861154097 5.305663453082994
Fe 7.243791230411909 7.614454010800829 7.398647916872729
Fe 6.189824010602689 8.14955563755091 3.45788847093175
Fe 3.6536120537247267 8.928032265288646 6.4095325417506865
Fe 7.624056770453356 7.729163650685225 9.643271448163953
Fe 7.880613251287154 7.464003157159441 4.987536110722977
Fe 2.638067871598693 6.531984716094609 6.24432991178609
Fe 6.420672058160546 3.805295424583013 6.449277457016794
