27
Energy = -183.4092481 eV
Fe 9.207492030549401 4.880281010224821 5.186469958670517
Fe 8.972978946320472 7.044057880121083 4.097625624499092
Fe 7.395546496057069 5.2347738426182255 3.0747340565073733
Fe 7.246016359509681 8.449929531440116 5.482259479167253
Fe 8.980955162497615 7.044602361691793 6.545296052997508
Fe 7.013439269103271 7.849428123389617 3.1945176537741435
Fe 7.743938387817205 8.94361975013114 7.804923448155052
Fe 7.975162451997688 4.9810944135007515 7.330527311300413
Fe 7.088980637646261 5.96487557398877 5.125263772244697
Fe 7.167323716591228 3.46268573148741 5.2510409246327905
Fe 8.986785591884198 3.019929054839624 6.68734365166638
Fe 5.298640636447212 6.392696822133251 3.150010702444196
Fe 8.24467424183351 6.84711327963718 8.95776925084738
Fe 6.749311187850257 2.966842778281298 7.539304036721136
Fe 6.55659264289963 6.91327717220718 7.217139529558971
Fe 5.155931082820792 4.483087473833346 4.397817654850053
Fe 6.014548544042513 7.96513915217131 9.302014754797082
Fe 4.929236395236613 6.893415935858994 5.4038175448150945
Fe 5.159373035262608 8.860409276343265 4.437395006303055
Fe 5.3218533904964715 8.915797183147246 7.029302653643534
Fe 6.208107627158879 5.414422654699795 9.008263767287454
Fe 5.500774444110774 4.734270883513836 6.702349074581195
Fe 3.3334141026118984 5.442159592192352 5.955377773012872
Fe 4.263200102791432 6.522661097580111 7.816889927734209
Fe 3.235596860450347 8.123776557857031 6.359240912053824
Fe 4.321898857675017 6.606003302077653 10.08749708189511
Fe 3.8239842355537585 8.674970240182022 8.836631641814272
