25
Energy = -169.54590902 eV
Fe 7.172844935270245 6.005380704154392 3.314402958571205
Fe 4.726384944953205 5.516850178142933 3.581819218500346
Fe 8.089389506319842 7.976370249158368 4.0618663726633
Fe 8.989435279204681 5.58194511599926 4.847772583057188
Fe 4.09255998815935 3.91278341987721 5.20611802769208
Fe 5.693500044475152 7.725740576632035 4.360814709949393
Fe 6.4829949316406825 4.412999435706931 4.806083499555783
Fe 6.963054031766525 8.976683731481268 5.980741268913991
Fe 9.374128802731482 7.840457892882627 5.957411207245562
Fe 4.488014226735243 6.2658873045064825 5.759882079782245
Fe 7.207658477450676 6.4163160680719145 5.98989603711914
Fe 8.077816680370306 4.09715849006527 6.584682396216457
Fe 4.447197107168049 8.807678862875836 6.1940798686057885
Fe 9.429657696630372 5.93341950213052 7.398319570402462
Fe 5.660683987934098 7.231478786998083 7.62243896259734
Fe 3.045739792433902 4.905241350501421 7.0418419026471435
Fe 5.62868927824498 4.451958629374985 7.0211257746987785
Fe 8.001831759391623 8.016325029161624 7.921361028628824
Fe 3.2266093114490895 7.305884784156517 7.569767370599341
Fe 10.252357353656501 7.941336258637797 8.366470283598227
Fe 7.238383221543464 5.550415866057092 8.409926531837405
Fe 5.924662263987429 9.495189768471622 8.016295399691142
Fe 4.486107734035949 5.642561698589904 8.733539621124933
Fe 8.912229426325181 6.594280426889644 9.698191917160848
Fe 6.546656433576495 7.554243084930787 9.713738624596205
