29
Energy = -200.74224426 eV
Fe 6.734563387396256 7.264249086199456 2.6854515274639303
Fe 8.411716870873923 7.410399396071743 4.487241014643649
Fe 6.669919433513433 8.652250979647752 5.390115337858914
Fe 4.817708066969852 8.708189984416038 3.8064979227542275
Fe 8.62975500293748 8.041621767020942 6.85908607570155
Fe 4.321980491291661 6.660248837333091 2.6019840413580395
Fe 5.980514956839211 4.820717317726033 2.738153187214135
Fe 7.841467110017179 5.197239109845723 4.051405965465192
Fe 8.29491596598081 6.280866677057824 8.505940935576302
Fe 5.725660167276786 6.614287586343343 4.570328264339738
Fe 9.414023028596677 5.769100675383979 6.16250389738985
Fe 7.210352465319042 6.132950478804907 6.3870218720282725
Fe 6.395698252416004 7.976012822846454 7.75042441831107
Fe 4.323722261099546 8.449377911311133 6.183976127115255
Fe 4.147306467795923 7.721579965760214 8.528906188850192
Fe 8.283893797843568 3.6359699336678006 5.700687008866344
Fe 5.817550720940861 4.37489494943721 5.506774021107021
Fe 3.2848280122545788 6.779922959871203 4.76976171554839
Fe 6.529901842853836 2.8196541384623894 4.052346231231755
Fe 4.831047389499738 6.158495409180653 6.741191172865131
Fe 4.013663513440828 4.5549880964051415 3.957102380809662
Fe 2.4672445905228724 6.848746669107253 7.005663949652493
Fe 5.908684949033109 5.870718599282066 8.843728388046001
Fe 7.345827459939686 4.168083966157119 7.764910055977292
Fe 3.5000667305351585 5.363474035210783 8.673265308816932
Fe 6.388770816681126 2.2329224782791828 6.478996686757876
Fe 4.24233845450069 2.5899086778544094 5.388687605628234
Fe 3.1146900617587736 4.581616553695615 6.263044596593313
Fe 4.907960065969485 3.7218753687815815 7.680861376937343
