25
Energy = -172.13218738 eV
Fe 3.3721952222435276 3.334143142839505 5.267149041821461
Fe 3.7169102540733836 3.4587793472154194 7.611197458821966
Fe 2.755009231033207 5.6148112438266 6.74017409187335
Fe 5.503905525677867 2.476262735692635 5.933136382710057
Fe 5.510032845982527 4.051052636309314 3.907073522938547
Fe 3.5726018391027217 5.693951428099536 4.386067396960151
Fe 4.120728739998501 7.8319483426251955 3.7494196018011694
Fe 4.9182982160988935 4.846421157078957 6.108141112620888
Fe 4.52886482422362 5.718127996461237 8.370294650214925
Fe 5.113320804954086 5.886755292479492 2.468041556518539
Fe 6.205809870329832 3.7584966639611035 7.9209072754962015
Fe 4.521933885126669 7.419060067523813 6.286251020697022
Fe 6.594895073952148 6.048712639113655 7.076693328600075
Fe 5.81416596939408 9.047748435625222 4.747492072263389
Fe 6.348263582660121 7.812437744089356 2.64034933337168
Fe 8.504800565638998 4.625009442098289 7.645616675430669
Fe 6.089621545357321 6.491515224074307 4.730956346302863
Fe 6.830695640887388 5.708445864890705 9.401903231822187
Fe 7.245213812848143 4.209598856642209 5.545613965616957
Fe 5.770427454804549 7.788163845732261 8.486388816164562
Fe 7.589150880503765 5.532280971762631 3.311923864590344
Fe 7.131318112053111 8.239117740871912 6.446666858300497
Fe 8.045515586708174 7.996861540293572 4.170045743437688
Fe 8.423850328372751 6.955775336978391 8.175955663355287
Fe 8.54550542950264 6.22396649320011 5.656257011662192
