20
Energy = -134.81789617 eV
Fe 8.180233148673862 7.601948278247562 5.460992417495862
Fe 6.755696017387272 7.586699582622914 3.3030090322188017
Fe 5.697669600345489 8.675672707750897 5.245974585416759
Fe 8.216809375150264 5.507734595397339 4.164075613461732
Fe 6.4913501235007 7.61743922534909 7.359069312660436
Fe 8.060735316965417 5.4852025325338865 6.720576829624507
Fe 6.255663045950317 6.377094109339807 5.217457677203384
Fe 4.582178759689082 6.682916293686052 8.65736243879421
Fe 4.38435135560785 7.095340856908134 3.8216355102169275
Fe 5.995650939582345 5.243075411871566 3.1364075142129715
Fe 5.194908210291803 6.896337292715903 1.520453087955102
Fe 5.613702784123562 5.274962402037637 7.062026573318794
Fe 6.956704975597978 5.6989302152571595 8.890326114034874
Fe 4.107763189726957 7.144781349443723 6.322574408064441
Fe 4.302136767660435 4.931277493430798 4.987041022161361
Fe 3.2912503602533754 4.892890194843246 7.270792706785936
Fe 6.926288687307393 3.3878673167932756 7.628934732358502
Fe 6.657691162854948 3.9072113693298913 5.216021703518358
Fe 4.94690157106847 4.215408116896941 8.976622412426678
Fe 4.747845025464727 3.042559826123455 6.582081460620492
