29
Energy = -196.97562576 eV
Fe 8.71199509498362 5.926988570251829 8.795229091465485
Fe 8.930130817639293 3.7649343589749575 7.82790217251102
Fe 9.675570189056847 5.325002304840883 6.258840084555793
Fe 9.432895020066931 7.462528220426696 7.048587159448225
Fe 8.947634017604496 2.13407002621508 6.044983281008735
Fe 6.122754324002128 6.485708174383954 9.219853152854528
Fe 7.010323224444519 4.270503393317062 9.242487733189481
Fe 7.112048623601172 5.563669844509334 7.081401060754591
Fe 7.271862372849884 7.900756317647919 7.703339219731602
Fe 5.0236439079627475 4.532394908472697 7.805124631388896
Fe 6.845446877109089 2.89807885449833 7.260184411284571
Fe 8.178655222407789 9.025676801815345 5.6438071468889435
Fe 7.890822812449211 6.709704670510697 5.1842384727003585
Fe 8.006056895731875 4.073390669313944 5.3034535564538485
Fe 5.672030720329402 3.9975508849216097 5.454822500494022
Fe 5.1932673840291494 8.894610396675386 8.415022053054383
Fe 5.28888692411565 6.4483814761846805 5.250171033884475
Fe 6.628364990476589 8.088898431586642 3.730207593919998
Fe 4.582177128930371 6.9101281936806735 7.44666476398875
Fe 5.055886681857471 6.7932341769943285 2.6181348754289306
Fe 6.689438429073237 5.326016807147251 3.5135484492436992
Fe 5.898972177551749 8.701722126304011 5.985963115340908
Fe 3.485975504252552 5.0044569741976845 5.9284122113906355
Fe 3.6808253694854804 9.159784131862322 6.622101156383568
Fe 3.0593764337611313 6.613538402713704 3.768256490953937
Fe 4.298717488756429 4.626060148988671 3.5997550127500126
Fe 4.202995565466075 8.588754388075984 4.220374880703205
Fe 2.6532304139350567 7.1791096322255195 5.966009344553921
Fe 1.7204205503451526 4.814329219443636 4.473641509682586
