25
Energy = -170.6944882 eV
Fe 8.391286902391814 6.048871494123102 3.962704036659893
Fe 9.354503409534868 8.126576779073256 4.4180640450649244
Fe 5.706556781320855 6.071406896961893 3.9381145770357433
Fe 6.991584636290808 7.619565792853123 5.086616346427597
Fe 4.415795241821369 4.69286450876869 5.532839715553253
Fe 2.9646857840384375 6.327609570283684 6.371528858854607
Fe 7.0647758207882445 4.729021246962709 5.367732655836323
Fe 4.403568070255488 7.6873739848049025 5.1670626815363105
Fe 10.728451070907932 8.287335787462787 6.3769442778443715
Fe 8.414380564555206 9.162462599677196 6.316934405964592
Fe 8.896213072260847 6.558260958129021 6.3082672169348015
Fe 5.716565094034809 6.250258414157226 6.598903310476158
Fe 5.823542483331363 9.174932936958408 6.706670908683808
Fe 10.626724604690702 6.351482662505749 7.829085831160582
Fe 7.406876048720161 9.919275283770418 8.436902582468251
Fe 7.794355865741245 4.882563375535241 7.601874642680566
Fe 4.329651038008698 7.68744918353028 7.83338424991273
Fe 3.9614160230303113 5.276087920272864 8.165231795582521
Fe 7.241951710334407 7.570619462453635 7.7770798960068745
Fe 5.684976275459503 3.914520900219469 7.526375657290752
Fe 6.109882125322696 6.099047026481609 9.141649523123828
Fe 8.709726009765483 6.179918963114535 9.290774597044074
Fe 9.492092993990397 8.373582957447876 8.380260191453502
Fe 5.702761563014526 8.646463993220145 9.45249908934931
Fe 7.8176448038621205 8.11241529470494 10.162466900527372
