21
Energy = -139.93110921 eV
Fe 3.394137791575039 4.853814831414838 6.210129581098596
Fe 3.666787468829334 7.051335048531796 7.107932739880579
Fe 3.9063625657035206 4.882422376263611 8.438209005308957
Fe 5.198460191971316 8.740957675039313 8.274654753800913
Fe 5.473906310803035 6.382893099545664 5.5798068176305256
Fe 4.854190366455073 4.29596798725181 4.4930672897458495
Fe 4.744570114179368 8.895275958701971 6.037963591191502
Fe 4.025303288278558 7.029454439886555 9.36946604673828
Fe 6.262707143806317 6.008489800974514 3.2892771178846982
Fe 6.187094995507638 8.32266689837307 4.303660876584564
Fe 6.213544163232562 2.533100504109316 5.372947387841848
Fe 5.7022178893138955 4.22114674448664 6.864876438385957
Fe 5.870034861034282 6.366774176819816 8.049665886603552
Fe 7.967017616311236 6.7479757735409445 4.65742487248716
Fe 8.358702437003274 8.996526811369048 5.058707725687012
Fe 6.990248361979876 8.084690709047589 6.679753318125373
Fe 7.231569142166971 4.525363865297313 4.76165287548374
Fe 7.681348233376158 5.714312601584885 6.908416712489798
Fe 7.990463387771229 3.420954010352986 6.736986399601563
Fe 9.294411853251367 7.345676066974103 6.550972785700501
Fe 9.454789861791841 5.059221563017122 5.478180916336533
