26
Energy = -175.94450825 eV
Fe 10.78808893665998 6.25650386747398 10.686151952422264
Fe 8.928947051004773 4.885710891132597 10.976601133926826
Fe 9.120411078968 5.964441784127002 8.961156294212575
Fe 8.792056608597278 7.381982414696167 11.135707079067387
Fe 6.750543953484051 5.387563619733916 8.288970921317604
Fe 8.204319631131717 6.059149631737676 6.617876358120542
Fe 10.276790949104432 8.176087122213984 9.412454059425539
Fe 6.914387825848192 6.01502969621848 10.513773761308983
Fe 9.99181985912718 7.486995759543438 7.252474741508855
Fe 6.596930356818018 8.275278993081207 11.16877111096002
Fe 7.662495259381772 7.912991849092932 8.735606804444084
Fe 6.2473361603150845 5.001658868077015 5.90280514127323
Fe 9.370316156448611 7.202330449014004 4.797199139628523
Fe 8.456854341330725 9.737622648816922 10.092889405599516
Fe 5.378673812507743 7.433302499801985 9.253890381725999
Fe 6.929609427728692 7.015734093154472 4.681546729352208
Fe 7.92519346599836 8.491065416942657 6.459078665616009
Fe 5.878146057640874 7.113507872824883 6.808581654830563
Fe 9.500061294202709 9.844822079982968 7.8657988564370624
Fe 10.1785203846761 9.28543094739244 5.586914476003848
Fe 6.154060378415834 9.928085458180247 9.719918746325702
Fe 8.115420458908261 9.090351555468002 4.083405725292128
Fe 6.17346574502687 9.46159016562085 5.4325580178472475
Fe 7.27630644492757 10.472467064398325 7.7521865825664555
Fe 5.256255269170179 9.2012380382665 7.654619023596396
Fe 8.432353374436953 10.820855873620507 5.6800221298830875
