21
Energy = -141.83288379 eV
Fe 4.322664535195057 6.585091224537165 6.855853778452072
Fe 5.601152393325853 6.531510498245985 8.937380446648161
Fe 5.485078759255233 6.6481156934711425 4.698029946071426
Fe 8.047723529855732 6.538894051993681 8.87442186348223
Fe 7.931208897528427 6.6585953178857755 4.62576454975787
Fe 9.203203176551932 6.604715634369982 6.710611882093889
Fe 4.606146959023826 4.495749121877873 5.56020034879032
Fe 4.675963885288586 4.4289792174503875 8.022311024278151
Fe 6.693428165537017 4.5398643438243536 4.253582481153797
Fe 6.834394239079047 4.418078625514905 9.182540725061006
Fe 8.857774373826555 4.509078538343241 5.419503425050899
Fe 8.925056367008967 4.437036737574595 7.883618960511751
Fe 4.660592066776522 8.7967110026348 5.714510735487756
Fe 4.721240835415223 8.727313601537025 8.088104399285495
Fe 6.687380812631198 8.834803417921501 4.463789522312292
Fe 6.823189547834159 8.718425759986157 9.224646881769642
Fe 8.79371877038378 8.811765184149042 5.60896679122893
Fe 8.859380605177995 8.752763499720709 7.988245485072466
Fe 6.754308323344254 9.974626262432958 6.886580564432346
Fe 6.761583842035667 7.6445661547162365 6.810738304737694
Fe 6.764912910553439 5.0448345488179385 6.7369273376170264
