24
Energy = -159.86975323 eV
Fe 7.666003421156156 6.1627914465670655 8.016582176852838
Fe 4.489645114393194 6.502550230726336 10.267046349262635
Fe 8.491521595379421 3.99550270365918 7.474858748032338
Fe 6.2425373738569565 4.651260163836437 4.146880940809515
Fe 10.408647314567542 7.429080986378673 4.894597338022773
Fe 5.652484681928723 5.0213173625764185 8.861159289240954
Fe 6.5721414571909165 6.920123057902538 3.3584431641330075
Fe 7.1661102623447395 6.351624338135459 5.691588852792397
Fe 9.484134142124018 5.643895099030383 6.178931422378938
Fe 9.057422356813571 7.7937216355622985 6.990155159630604
Fe 8.219380794070055 3.8709414886708235 5.101403981330671
Fe 6.413272022382276 4.397899092784511 6.69327380360024
Fe 5.6483318012322945 8.415957539602552 5.0729314749648315
Fe 4.478040838882737 8.166617318899538 8.487474200248691
Fe 8.121764027276948 8.263524204164705 4.811655246978609
Fe 3.460170962117019 7.917002949939836 6.177024606516148
Fe 4.782534672766797 9.697624971054518 6.773223792719421
Fe 5.269524677106636 6.65532787721065 7.032927970192227
Fe 4.637128946152257 6.2467020654731495 4.820988008464231
Fe 6.449640471768817 7.394195647486169 9.531539076769246
Fe 6.821844062809194 8.437125773307475 7.2203738508783575
Fe 8.673657902824818 5.862120647593345 3.851110128450544
Fe 4.344796424358063 4.410672318588639 6.354517730653136
Fe 3.5301580329560243 5.873314437307197 8.272206043536249
