24
Energy = -161.43697778 eV
Fe 8.11188035761099 6.243091297287499 4.851621660873769
Fe 6.1799927468959295 4.519567792645305 5.110121138526887
Fe 5.953431396194041 3.7639128590250808 7.378971269752396
Fe 8.396967584921788 4.1353969936515025 4.059342809282134
Fe 4.529828615125656 5.6636052757048825 6.745314819400976
Fe 7.708000585084123 4.619056617488836 8.803287692871544
Fe 8.224389303578716 7.993303531496894 6.824087973821792
Fe 4.698908874734723 9.791012189406473 7.889786521511735
Fe 5.523848333781595 8.13725556721673 9.708746645596259
Fe 10.127826738961673 5.143562369888673 5.418407623999789
Fe 9.429478538731601 6.147652864254148 7.63600892567185
Fe 5.85742969212406 7.856745708602211 7.384591513098201
Fe 3.712226148860229 7.331235029856005 8.448070245360398
Fe 5.277078409870274 9.278024700945615 5.447558532833092
Fe 5.728941683881393 6.9484835206603925 5.086364796505051
Fe 3.6318848894101774 7.871955484849851 6.180214728248913
Fe 7.24414472685063 9.445686312849318 8.805787171375458
Fe 5.590679339958152 5.7853814949668205 8.93616382532346
Fe 7.093143431861018 10.037844113603823 6.6723692182908705
Fe 9.929915794810277 7.535225770745987 5.361963590965259
Fe 7.0733828436223 5.923128573647772 6.94737836580912
Fe 7.584191643114843 8.542170455673613 4.686375407153317
Fe 7.836477025930961 7.049997686712031 8.978510045535696
Fe 8.300732562394824 3.9814850571297975 6.383736746501279
