22
Energy = -146.27154765 eV
Fe 6.193014951059446 5.523300814977763 8.839594466104247
Fe 7.940327395468078 5.011230318172231 7.6730608903458375
Fe 5.841900705674936 3.498367268428256 7.5885641798646075
Fe 7.476111308216442 7.4444468771405425 7.855612711427885
Fe 3.9771429868918298 5.4051706286016215 7.888104430221252
Fe 7.944331166757596 3.6472439234106133 5.86172282449915
Fe 5.128672398976784 7.481531839396106 8.89683500964795
Fe 6.101917957325466 5.0332726125476865 5.918331201665254
Fe 8.181064041935404 6.26025459274862 5.481424375377626
Fe 3.9067123801674146 3.9665486836464874 6.0345197637035035
Fe 5.716618963189878 2.9117890611946984 5.10066169139747
Fe 3.4739331151506354 7.833873260582516 7.223756277436495
Fe 5.542373763987495 6.880359589562306 6.626177204890599
Fe 5.544451487298046 9.116157946475667 7.2523225967666916
Fe 7.078425265604604 4.499960297004665 3.8082285973891032
Fe 3.431030219700039 6.168937701339082 5.548270280750518
Fe 4.680738801829962 4.830776200026084 3.9250298413633167
Fe 6.9619927502865 8.493106478992209 5.5241022547925684
Fe 8.604098408668218 6.185646635597571 3.0010994321015376
Fe 6.322633147087436 6.835167813075747 3.9649611710392474
Fe 4.566469045229368 8.39740247506269 5.097100728447121
Fe 8.568395847781863 7.990314006313657 3.7218708809900587
