23
Energy = -153.63567703 eV
Fe 6.165903102121032 10.416313939509978 6.69396459280152
Fe 4.179607712140746 9.003750253418993 6.921461760546621
Fe 5.741496531528334 8.789728761591107 8.760788148559088
Fe 7.3739058024052095 8.879542326530867 4.242894831639498
Fe 4.975416804015998 6.910593143907399 7.672909809643633
Fe 7.749249719498416 7.878955478863493 7.939145955195488
Fe 8.941134643326862 4.3876617207454105 6.417866565831674
Fe 6.295073035171758 8.14429142133227 6.074460982178783
Fe 4.383494970922328 3.2016746883012455 6.231366277167984
Fe 7.183442985577921 5.849832619617052 7.056635478562975
Fe 4.197509862625697 7.494378591290279 5.152911808519671
Fe 6.202605490433873 6.66415891060955 4.141368085744205
Fe 8.426548383557332 7.027434728205292 5.45374251120851
Fe 5.5858330142063055 3.7710533997106355 4.2243579080272395
Fe 6.624051369050007 3.3369273087651945 6.569579093002041
Fe 6.325806057487297 6.421366473185979 9.35083401101421
Fe 7.621283032014396 10.247840694751279 8.341139337496536
Fe 5.142182732951563 5.41931523752402 5.814559732855275
Fe 7.372012052850179 4.202353546218805 8.6126165789005
Fe 8.461494148663142 9.364482600839198 6.193655941964985
Fe 7.483300138244064 4.908413830744566 4.829863716475161
Fe 8.046621822025406 2.7967923866700857 4.756641591475284
Fe 5.1288451857549315 4.489956534239817 8.154053877761337
