25
Energy = -171.16878626 eV
Fe 8.287236553109457 9.087178345329464 4.861199388439165
Fe 6.133628312100593 8.320544912585497 6.043427194532791
Fe 6.981992385395564 6.870954427012683 4.5170981737691465
Fe 4.410182678613127 7.068446795609511 4.980439036262165
Fe 9.208747851072804 6.244415736182872 5.020168146996625
Fe 5.456216969336061 4.992380959348092 5.199801101369777
Fe 10.491419392207929 8.261941168021906 5.232476160120125
Fe 8.544782172595992 7.700120379192375 6.655046060857458
Fe 4.794401336637922 6.747410966926475 7.437042676565186
Fe 7.161505727201515 5.757524726810472 6.728197972308534
Fe 9.542019869181726 5.222765829433056 7.115370749529787
Fe 5.048126412445542 7.838799494284561 9.774302055390995
Fe 10.64813178290609 7.390665694000621 7.448229046208769
Fe 9.915485209572822 9.798788232465565 6.89121718309326
Fe 7.652623593061676 4.139640576949452 8.345046600500241
Fe 3.411755979744938 5.333502039575061 6.270590927862325
Fe 7.542363550061139 9.979566189098113 7.172830461201835
Fe 5.299073111784789 4.321955965579639 7.458261342750648
Fe 6.838213146988397 7.776960508865584 8.24574953741963
Fe 5.097384459395772 9.373670595247424 7.97902748046424
Fe 6.191093309621983 5.689571554434181 9.266328372932914
Fe 9.029141352181641 8.785184002394915 8.864798768208747
Fe 8.62612141618804 6.326869998552514 8.898836252322841
Fe 6.872344437687413 9.810273913975193 9.540809353198389
Fe 7.318392002954637 7.66325000017264 10.556088969742724
