22
Energy = -147.47676581 eV
Fe 7.572515608865679 6.713979496449297 4.9920776971702
Fe 6.109643444854216 5.498095854278278 6.484888642603062
Fe 9.556791401836206 6.147066280807888 6.125387105816821
Fe 6.56087138638077 3.6969947642150074 8.132401978813492
Fe 8.321261382372276 5.213315572541399 8.152684306508055
Fe 5.731978706012844 3.0617213266593706 5.829657845200172
Fe 5.246587599960196 7.037737003134592 4.354319380784021
Fe 5.354110986448938 7.781516389794997 6.856809393441529
Fe 7.531505452312347 7.378268719027673 7.532544992405859
Fe 6.251093118037978 4.834735470059661 4.245081610988114
Fe 9.762386418384024 7.2174720518771585 8.151495864576653
Fe 3.7319938921638895 6.259179545464868 7.6832594417947595
Fe 8.964847027402655 8.557398682933488 6.025828303038579
Fe 8.004803992484826 4.242403430927462 6.017955741742161
Fe 6.854842833149762 8.972230015989256 4.766563019177202
Fe 8.672026228646915 9.312241034984314 8.186018680948898
Fe 4.616975671278231 9.271700522073386 5.312472186801651
Fe 4.35783802291308 4.061476134521428 7.599871209722057
Fe 5.887084277476537 5.96603210235753 8.738397686568367
Fe 3.282187028777232 7.214738356346143 5.560123299476333
Fe 4.0457825496629605 4.964593768095587 5.402404864140606
Fe 6.706323699335732 9.720554206218512 6.9732074770381365
