20
Energy = -135.05307299 eV
Fe 8.915980506920326 4.104598363033215 6.63019343722529
Fe 7.332053481291332 4.851430313740123 8.98276438902239
Fe 6.750381967937278 4.364717304715254 6.923637528680463
Fe 8.567961930850942 6.218846814015161 7.500359018699801
Fe 6.696818765798299 3.668284999122463 4.733155329958772
Fe 7.962191933967675 5.641108326715875 5.098872780722308
Fe 5.5017558570499805 6.029288259174703 5.504027557290436
Fe 6.130119540448049 6.595827854615217 7.975741662406932
Fe 4.720250326689584 4.69422302309086 7.9426135300257386
Fe 4.708966672903591 3.350357872298888 5.980098559922313
Fe 6.4087857933923535 5.262140321362213 3.059499660272377
Fe 4.295033252029316 4.637397752637026 4.01759012449226
Fe 7.246508722453998 7.755742364425989 6.11302381793056
Fe 3.5846306417127685 6.667853734275503 7.483078008411309
Fe 5.065494131020125 8.357181573290445 6.866497712602908
Fe 3.034528845626106 4.950521789014557 6.0341965780510725
Fe 7.109060535369951 7.396026728600597 3.733408888939627
Fe 4.676492760893163 6.838547867050166 3.1449979268857646
Fe 3.397441896608234 7.169025921404681 5.149790594590023
Fe 5.3100195182692715 8.563838999926814 4.5775675313804305
