26
Energy = -174.87567879 eV
Fe 7.734327939443536 8.668932447526293 10.937796837341047
Fe 9.529994028970396 5.736278279801902 8.254259848737433
Fe 5.020982258326099 6.981129293931042 7.512966955528207
Fe 4.0635298898844585 8.22694407175522 9.386717666966991
Fe 6.459187919817792 7.979839526052629 9.192177097068875
Fe 5.742066937713228 10.128620771350297 10.19744781819314
Fe 10.090793432298785 8.664424416157376 4.743001980948662
Fe 8.7936773152209 7.986780678100498 8.509262217739103
Fe 8.860329242390335 7.157988383222438 6.196598669467744
Fe 8.61505333145933 4.97539444496746 5.708993013017233
Fe 6.949856239406232 6.393345413398874 11.916433095571088
Fe 10.960571267798214 7.652597384486386 6.950972835666254
Fe 7.661891313675879 10.112836777456375 8.758512401249025
Fe 10.627742486548902 6.452935933337241 4.537406000003143
Fe 7.740429450580913 8.891757382148741 4.717330451793805
Fe 6.906700177899288 8.427984238949234 6.823656857625513
Fe 7.035272635642432 10.741956123337719 6.573434727126046
Fe 5.494072826970575 6.067500479323063 9.784815025459165
Fe 10.897399531748835 5.291156134616264 6.480809911053829
Fe 9.156977812329664 9.533943225633434 6.849232290806177
Fe 7.237892395575965 6.138381233109244 7.821685114197205
Fe 5.250689781318893 9.715346600732735 7.87426682541438
Fe 7.986055628540968 6.27276860167102 10.065328157485895
Fe 6.640696577261919 6.528456974971829 5.386622874257982
Fe 8.461923592257325 6.755525182156123 3.829794163500657
Fe 5.456627903452964 8.02043259085063 11.283005310183809
