29
Energy = -197.5150967 eV
Fe 9.019642181979163 3.1281287883995796 10.306887812970972
Fe 6.864480278641411 7.48931267522508 7.6216626633990785
Fe 7.528102837168471 6.3241618848893255 4.905018990564722
Fe 4.914967525203606 8.118683288170308 9.084691419339755
Fe 5.932841502455384 5.698171673630768 9.07639729723382
Fe 5.865567981666697 7.948385742766788 5.265640872739279
Fe 6.486977553518375 9.943107312483848 8.914826709204767
Fe 4.608986889893015 6.895928142947148 7.109611708355049
Fe 10.704105265345424 6.213165190842955 8.039520662312402
Fe 9.954671538725556 9.525129774807887 6.211390905287486
Fe 6.4211806830057485 5.220277579835292 6.728482832233276
Fe 8.472177645860402 9.584809645965162 10.127391923095722
Fe 9.422177552852952 7.220982120305977 10.483927176990795
Fe 7.817950773582544 5.200816048753804 10.698997104268035
Fe 8.438450749939866 6.004862692272558 8.525106553276716
Fe 6.433984311906632 11.497972135480563 6.976925325708622
Fe 6.147158542047316 10.358468506379806 4.944545587009894
Fe 7.63837627812 9.344726666874449 6.660849148191425
Fe 8.77937867476275 4.726265738569874 6.434830721097093
Fe 9.247958509176714 7.190426591680697 6.276226204792039
Fe 5.000203974038287 9.42412218149346 6.984765071475868
Fe 8.714890910154564 10.903628788961555 8.041463347258421
Fe 7.5052179100266345 3.791558901999465 8.546145957310154
Fe 9.426424854818043 8.377563964167827 8.30520877131547
Fe 8.147521410186991 8.705661184476863 4.485011765483024
Fe 10.324871384507446 5.052452408254607 10.205942579050978
Fe 7.066304067806288 7.648380667868406 10.145684428566963
Fe 10.004632346657349 3.8240778228326104 8.275378690039666
Fe 8.332033475077305 11.234202096360125 5.482875316329499
