21
Energy = -140.44467299 eV
Fe 4.783127832802611 6.890042808906107 3.8103322010417457
Fe 4.900390074211833 4.704648665646577 4.583419825639454
Fe 7.1589313206830205 6.723357375859394 3.312248767851556
Fe 3.88061022264219 7.593233485414381 5.913973980297209
Fe 5.446111520451881 9.00291418880919 6.799891910933188
Fe 5.843020998628339 5.027261194111118 2.5229948596950793
Fe 2.8192461342301707 5.585344982102761 5.013617293857555
Fe 8.578310704253227 6.8051831505978315 5.183312212038213
Fe 6.44115260423467 8.473520241961257 4.7882343679319765
Fe 7.387032578045132 4.6484222853949575 4.4067154805859845
Fe 9.61642072102904 6.647086900132451 7.335333296570394
Fe 6.1148350655576404 6.356728646946337 5.957169226804909
Fe 4.1012123134995235 5.397192562378962 7.019295441711672
Fe 5.329389703486516 7.20687411559099 8.238140975032819
Fe 6.047033168327696 3.6198593810295274 6.300618020771158
Fe 7.60436237709019 8.004379141130363 7.0107609289948885
Fe 3.4907083376208514 3.340653916864972 5.757269154340612
Fe 6.081168691582306 4.9008000277538075 8.316132374760071
Fe 7.726258799349435 6.515667303343519 8.781171740436532
Fe 4.352431926772672 3.2330208017674087 7.9090958815879135
Fe 8.059550821764178 5.064559752356736 6.801813842865883
