23
Energy = -153.07100739 eV
Fe 9.336013947008057 3.887243151369432 6.190972584172529
Fe 3.6697163783407882 7.062050373486021 6.499264210768267
Fe 5.8635154440403685 4.497285357093893 4.142785135646175
Fe 5.688119088515498 5.612007687282428 7.384015838354848
Fe 4.150013471095447 4.939929167244432 5.708528749255529
Fe 6.349419120765487 6.513468873494004 3.0448654303874823
Fe 8.15712156520756 5.07428838533228 8.025530734234797
Fe 9.74770592437516 6.08391270059034 6.457455683599636
Fe 6.859494676219159 8.58680419635012 4.382522648399464
Fe 7.332142018277856 4.819942315699322 5.807112971492678
Fe 9.202671071136244 7.297356927475702 8.506876733278665
Fe 4.498879627998305 7.004872357576163 8.849414854088412
Fe 6.015257887891517 5.2049371391672 9.762598924360104
Fe 4.059873041831156 6.588203547645859 3.9517171619552505
Fe 6.10722012061142 7.2627757185730655 10.833502146167763
Fe 5.553954462299712 8.269985929477382 7.125845046936403
Fe 4.619094124271821 8.830169438338622 4.8769388486825225
Fe 5.890705371613268 6.677948381115128 5.277932386091728
Fe 7.716465598778991 7.298549597330315 6.560383343833157
Fe 8.273104564184178 5.981672981907535 10.26254080682697
Fe 8.317994692461887 6.324883693269688 4.401899149020394
Fe 5.2419102952367265 8.55119484463598 2.7259663397250207
Fe 6.915575371108039 7.196485098814331 8.787298135990996
