24
Energy = -158.48422804 eV
Fe 7.224851055441291 8.585557983499521 7.518638905441122
Fe 7.779453750667419 6.7573645507732625 8.899744667118869
Fe 5.614018386809246 6.499613461134459 5.233122564199426
Fe 5.543082294650398 6.025310792118085 2.845772055896426
Fe 7.554297991324525 6.959125403596292 4.028855840521329
Fe 9.538751463390868 7.223234706114598 7.294952909858035
Fe 8.78780969538287 8.321536415544688 5.5006692562470745
Fe 3.4952797170369765 5.517715377892734 2.5358264015954894
Fe 3.473697946107487 6.675062852445519 4.654750840425485
Fe 8.110172047457757 3.862276902835697 6.42577863761189
Fe 6.422064784442996 8.712011611525583 5.360112971476349
Fe 7.601736550131973 6.12880537226215 6.5340758428969865
Fe 5.7251137724672985 4.188369036123654 6.564399071533307
Fe 9.400572855426763 5.862647809711317 5.2457058055977965
Fe 4.547341967415293 4.44047497524437 4.528206273233011
Fe 7.153804426098159 8.47278015719139 10.257682616333865
Fe 5.270339452725766 8.321593587180153 8.997813765560725
Fe 7.008310327983776 4.658704649143545 4.486796792151714
Fe 9.514416632557781 8.02883037274293 9.615282689398114
Fe 5.528686415270645 6.36657027561413 7.726767201235076
Fe 3.618893235583966 5.492966035553159 6.606176861328578
Fe 5.892670903850269 6.394731590722873 10.185272138665999
Fe 6.96566667072875 4.614474507469769 8.545366564465212
Fe 4.368467118212502 8.029741034724896 6.547728788372463
