24
Energy = -161.43468096 eV
Fe 4.62803723223941 6.918242940031196 10.55316103954469
Fe 9.391399954958867 6.670688127558762 6.172251960900707
Fe 10.210954969844675 8.31852400548311 4.565870999580858
Fe 6.216854670483032 6.0073621871272875 8.903225783211587
Fe 9.008094751002856 10.25636270183492 4.675522717513066
Fe 7.624780932024449 4.592956557853879 10.252942736859605
Fe 9.065747654717514 9.20206749471095 6.7913524667976946
Fe 11.098603412450101 10.183704871374744 5.794334531015497
Fe 8.404285767037111 6.875957403000534 10.071640342127345
Fe 4.745300882845385 9.700976453191597 6.660426652945879
Fe 4.901144496687692 7.878915331607947 8.295375923301272
Fe 8.521808857630372 5.380875949292105 8.171811699950792
Fe 9.964086220798642 7.346765626134072 8.373922425081737
Fe 11.456003694360364 7.970828264364734 6.594343659831787
Fe 6.5708008251404655 6.251658627132552 11.573423303337137
Fe 7.843175126982597 7.883665069034672 4.905655613272342
Fe 5.69303975693642 7.650397855159126 6.146785339421911
Fe 6.604280938010982 9.595209549605121 7.971309252192323
Fe 5.248789457259223 4.625046117161009 10.443538912900705
Fe 6.875925895667966 9.780996343555943 5.720020458797387
Fe 10.859368180971165 9.622957288645475 8.142372030953004
Fe 6.522936592611626 8.288486593325743 10.044817599914307
Fe 8.561446235632308 9.186291189922493 9.156012486500947
Fe 7.507871349747824 7.499776375673134 7.564292401674956
