25
Energy = -169.03757004 eV
Fe 7.822031873523776 4.407013229944531 9.023929690005916
Fe 9.16101031899632 5.319396822620637 5.200805813172733
Fe 3.235014534684072 9.017063281396585 8.51303693291359
Fe 7.351461832327169 6.780597110545226 8.565184817944331
Fe 8.46179753509744 7.3411738320773 3.937961224122236
Fe 6.91498590718465 8.914466682122384 7.4249700438690365
Fe 6.32867916371969 8.446024419885044 4.957784455236114
Fe 5.632294116424948 6.889927249187751 6.57476882867124
Fe 3.4916283051635086 6.700237455741612 7.432985721239189
Fe 5.363982550755484 5.207406085486796 8.3943426898797
Fe 7.171649349377447 4.986010224156708 6.818195828576953
Fe 8.165833622144465 5.125287935013531 3.076538212632653
Fe 7.282821025335418 3.7247433479351777 4.8806462258768075
Fe 4.886507775130041 4.800092518412924 6.08127252261073
Fe 6.563113368307748 5.960548437450838 4.548927877538932
Fe 4.372263912777251 8.926744490560775 6.4843922015381805
Fe 8.35908058055113 9.491263442446174 5.5282595235699645
Fe 6.728726638489371 9.054932149764868 9.744295945730551
Fe 10.012149663911568 3.875248946185848 8.834825184358614
Fe 6.0061614165912145 10.574907821172197 6.1199841083112245
Fe 8.082358378555698 7.232604207806685 6.227798133491589
Fe 5.1144325029730595 7.73291830967918 8.812913694991163
Fe 5.183333677277082 10.334194709301121 8.427675754121607
Fe 9.42127445766917 5.788890104320122 7.646574495568998
Fe 8.979402270551278 3.4603019643055744 6.833924851546816
