24
Energy = -160.77518887 eV
Fe 5.882936734908565 4.595891869573261 8.727079326720967
Fe 4.786006374233608 7.245127180908282 4.925578504204179
Fe 9.265807470177789 6.8567714050359685 6.2873290543230205
Fe 6.0929686788466615 8.662823323497939 7.681749533744562
Fe 4.853688377881516 9.35867130443232 5.72257364224185
Fe 7.666359999038891 8.287643059055144 9.806477112243927
Fe 8.065597008935363 4.262979940427082 9.343494233649784
Fe 8.849075169706623 8.968093547430225 5.187228580318841
Fe 3.876839709166386 7.662783634963671 6.9981532609014305
Fe 9.439277809396266 10.732568540744946 6.566881579955854
Fe 7.548539115610235 6.580037313087247 8.178307681500646
Fe 9.982675435686865 9.761445379188363 8.795419148719914
Fe 6.658825366818175 8.853345232858414 4.120626596135771
Fe 6.731357307829025 6.112524871933357 10.510684058720772
Fe 7.703565849895249 4.77793070001496 6.795516158544006
Fe 9.711241916608342 5.1638172145403844 8.01464796313201
Fe 10.773507339074845 8.63884708997687 6.8631009305990345
Fe 7.112616166418416 10.291850960304208 6.077622254921062
Fe 6.961638471441397 7.485924599948541 5.8362389134535855
Fe 9.83271529585729 7.4079681457733 8.723633087123485
Fe 5.172241896525847 6.931259942058595 9.029791230903776
Fe 9.050079631816198 6.13421180645199 10.37000606518044
Fe 5.495051820414469 5.919637729787835 6.864951685775618
Fe 8.350541459609351 8.880529105901532 7.51918962879602
