25
Energy = -168.2300178 eV
Fe 8.240801891180586 5.188466667631467 4.053375015966207
Fe 5.658165441989644 5.692217132970071 4.067376319172171
Fe 5.076089637759214 8.366561120962647 4.0916870229078
Fe 6.300211406117903 9.330727745893322 5.613321779391041
Fe 7.292529423197593 7.298284841163699 4.449714022296507
Fe 9.304570364076481 6.410736611009952 5.788567283815369
Fe 8.977387295991216 4.128855405925135 6.228524544350458
Fe 8.857769336043495 8.926714255380993 5.540818871094146
Fe 6.8199609782756605 5.165782316303105 6.003546518909392
Fe 4.618016723779316 4.882810136773742 6.745218684744897
Fe 5.141054772930653 7.000910074564692 5.995896721531643
Fe 7.406628618469927 7.439900688912797 6.8117228190154115
Fe 10.412452145486771 6.01646315680525 8.10809545597747
Fe 3.9796371831148383 8.960055420498243 6.455550134388284
Fe 6.890280153279138 3.8314937241683724 7.909085679555474
Fe 5.7162556965392355 8.671206881503185 7.967509668424448
Fe 8.356234375474239 5.54752145212483 7.970489226513463
Fe 5.963637254622961 6.040764118981803 8.262590474599591
Fe 3.902485179390261 7.185273382724154 8.114298693164178
Fe 7.893580181324853 9.742527204812495 7.538552544875188
Fe 9.663849701994247 8.276291727906674 7.620094331188375
Fe 7.895567046295859 7.624926321468056 9.107502239306134
Fe 7.39016547305661 5.447778976457313 10.014237788275079
Fe 6.842494324439891 9.624726962480574 9.805815472731936
Fe 5.67999880235054 7.4788270797586645 10.016232094986911
