28
Energy = -190.52956583 eV
Fe 5.830953449062876 7.531813611555772 3.2637660285735253
Fe 6.581346690610832 5.388334953895137 2.518457168049152
Fe 3.650533487965913 7.7620802823769885 4.6002728554941825
Fe 8.240423097741987 4.451389325502482 3.778866200756883
Fe 5.110345848356464 9.608398180657602 4.382212123483133
Fe 8.035297911253119 6.9044935499904545 4.1213558868337685
Fe 7.495275952279266 9.252771423494671 4.396301304077165
Fe 6.019573994509325 7.685634852281641 5.628501752539981
Fe 4.3359649536681815 5.607409620031601 3.729432828207804
Fe 6.379815125983205 5.542363937971383 4.963808763419149
Fe 4.268800647034715 8.720365868900616 6.779991205087613
Fe 6.651682537313638 6.23247989621435 7.369314429718239
Fe 6.283806132499577 10.01108011553411 6.382911833112309
Fe 6.485929616777431 8.416550604393128 8.080933392039752
Fe 8.552099001517844 5.588832074665486 6.080760763435043
Fe 8.228192044446867 8.104695507891398 6.375014918231495
Fe 7.691365926244012 4.302220041580986 8.086622466437147
Fe 4.664048250855739 6.869583133447718 8.411599823026181
Fe 7.537465074617933 3.366225709147224 5.840271304093981
Fe 4.270243509784608 6.191875255265329 6.159272651830323
Fe 5.552470608373051 4.291878174763235 6.699014602940437
Fe 5.3916087815616125 4.564035632598947 9.002369481254465
Fe 5.7115834040252125 3.5643895263960896 4.0899771034634655
Fe 6.257166217060444 2.4109046002845265 8.028875043693226
Fe 3.3327583837747006 4.942503976155563 7.87402906638867
Fe 5.483515574782661 1.9708824507792744 5.816878408529895
Fe 3.61354290598192 3.8816511444798167 5.456089357440922
Fe 3.956803147302065 2.7061383471997438 7.562964920131469
