21
Energy = -142.04782503 eV
Fe 7.305494116584898 5.03194487800789 2.401457548883565
Fe 5.58119077884865 6.803621358285247 2.3572424874200313
Fe 5.07603637687058 4.282032177580734 2.4085993636820437
Fe 3.7129061241434536 5.9841853997178145 3.4099144704754796
Fe 7.490847683028431 7.105371191570997 3.6703175831623227
Fe 6.743847971800049 3.18713493772297 4.041738796417914
Fe 8.345361317942373 4.781651099613452 4.638993074707021
Fe 5.0615029853013045 7.4985694314146585 4.919418027231685
Fe 4.497481530897039 3.726366789146311 4.715086536567009
Fe 5.961488444837262 5.456792560264978 4.416706248344324
Fe 7.478540261443192 6.591648256425078 5.998215583587225
Fe 3.2322597484187927 5.578300577875106 5.7026381187692055
Fe 5.2530820705037415 5.689203438768468 6.743126850106608
Fe 6.01120206632931 8.012263210393193 7.25952474744564
Fe 4.063241423930854 3.4298095264254274 7.011414934742663
Fe 6.811497763321912 4.02384244450419 6.421953263797412
Fe 7.182700799189328 5.871919786124474 8.22950291527714
Fe 3.7295102019529724 7.6059127212420625 7.006151083680177
Fe 5.442806976428745 4.416044795991623 8.745200280098913
Fe 3.317367240534205 5.471435369365013 8.213655839730754
Fe 5.070302325095207 6.820618256963879 9.057810453276467
