27
Energy = -180.56532316 eV
Fe 10.220296984213961 9.808289698492361 5.84177881873497
Fe 10.265925560577791 5.798655564374756 6.31411392944806
Fe 4.978507241760834 7.875038066028015 8.982117737828549
Fe 10.759579698921659 8.039063659394442 7.551752672104822
Fe 9.051982196470025 6.326471695010264 4.126776941293569
Fe 6.034488493560279 3.987713007407324 7.224283477518661
Fe 6.942852914015274 7.516992370718986 4.420911588866919
Fe 7.234382758703906 8.282869798700498 9.179333261489214
Fe 6.310686835100105 6.54942357665663 10.51853412221168
Fe 8.801909430444047 6.707900473814263 8.15393074058998
Fe 6.397372411214802 6.099362090257898 8.122673961924376
Fe 6.758878560554483 7.8816136431885395 6.795110757644905
Fe 4.732940855699187 4.893757559528769 9.242319044850321
Fe 5.473325410738067 5.677304419211939 5.653274163188335
Fe 3.7607295830858734 4.026846261614616 7.0995037535372125
Fe 6.226504486332242 9.925409834158302 7.5337964006615135
Fe 4.0464384697489955 6.208091583548954 7.435767409042811
Fe 8.893607076774428 7.7587548709982945 5.959606832123422
Fe 4.761329735457343 8.132369175061308 6.025381965864314
Fe 9.484539274175257 8.431889980091084 9.708228876751457
Fe 8.664478281861454 9.471155613480649 7.667297829633615
Fe 6.913601372867128 8.763488889119088 11.40014898129698
Fe 11.100175879063737 7.683074743865661 5.095842169031968
Fe 7.617829939078921 9.76972890688106 5.395563157907287
Fe 7.808114135297545 5.552023073481843 6.124816443677837
Fe 6.40864825611845 9.009362883370224 13.467242058465489
Fe 9.231935969085919 8.704410372465436 3.8409547152332646
