28
Energy = -183.33205811 eV
Fe 2.8363779779195215 5.314790064953127 8.45269734994965
Fe 2.268411488843899 7.265893995586592 7.417603810602987
Fe 5.208916817117829 4.824697419358866 8.802074212497757
Fe 4.395750243137153 7.0551334821848295 8.93857579019083
Fe 3.649241283564216 3.8085271012256667 6.921656614420191
Fe 3.9683684146198317 8.909422761818389 7.412068672214583
Fe 7.796254550612894 4.571559642938283 8.498276974590942
Fe 6.787889873623218 6.476015388782484 7.630529390635725
Fe 6.0962529068672096 8.636122894863226 8.249021203996483
Fe 2.617115823153144 5.65179508612765 5.700518827823164
Fe 5.98030986696096 4.085828745740697 6.7992943006629325
Fe 4.676157953288448 4.360962009243423 4.799302646509166
Fe 4.592223013593528 6.260088218082697 6.67541686485402
Fe 8.105194441277936 8.635547764093298 7.165412619243373
Fe 9.444000533395318 3.175354556757069 5.152609629549235
Fe 4.523798730005116 6.601829496523816 4.124740148138667
Fe 6.779090454028661 3.2078437783726264 4.691778547236344
Fe 8.196032501702064 4.388907805951549 6.288972959773348
Fe 6.766576534535302 5.893225604966233 5.161502837735091
Fe 5.88704836600767 8.202965388880683 5.812484441592335
Fe 9.04207102759109 6.456359013448182 7.066873918920634
Fe 3.313665851795634 8.09381777931528 5.373152151245722
Fe 9.524472181297515 5.800529588866311 4.8419852240207
Fe 6.121449279768865 5.223163000268135 2.9580048127266965
Fe 6.310188056213293 7.8789308296778895 3.4387747738170433
Fe 8.285359686927565 4.3553647328140475 3.432349881364552
Fe 8.233195866487204 7.813896875702504 5.0349836781567685
Fe 8.12163166703043 6.60602908674231 2.934071859852289
