29
Energy = -197.92042441 eV
Fe 9.18650248009848 6.450594422050677 8.218153218475203
Fe 8.297395814255303 8.379539456119687 7.200863481316544
Fe 9.029359736112431 6.572660338410746 5.765015697590474
Fe 8.620246218551515 8.58797230971519 4.508486163328989
Fe 8.803572030006931 4.391579918255593 7.256719967940818
Fe 7.196206488575642 7.337530924913013 9.249955997614723
Fe 7.223621277195371 4.967469661954365 9.11335412331684
Fe 5.8827632466594695 8.537252578442471 7.620933561854177
Fe 7.877553643138651 6.487322661040888 3.5944883978030697
Fe 6.90060123534783 6.206308326314777 7.024525650950556
Fe 7.612117877675607 4.778438726658927 5.220747679487721
Fe 6.210547944681636 8.211244144418206 3.29035271891226
Fe 6.751471802127297 8.031340910231089 5.527914284591624
Fe 6.578887354029854 3.5861561046179085 7.213206657607252
Fe 5.667972087250227 6.108574939326071 4.68456580561086
Fe 5.058423380401468 6.44239251022187 8.841351480741627
Fe 5.419295924653608 3.552248315180383 5.048248051054339
Fe 4.236440185261237 2.8884317371042383 7.075917338672562
Fe 6.646259415731133 4.223721170308775 3.123368161897002
Fe 4.891842657613273 5.236841712269724 6.648053098129154
Fe 4.854043929407297 4.142050421813661 8.991625238815017
Fe 4.5200155413479255 8.411476482895827 5.050848927750907
Fe 3.766211177893919 7.485234874988335 7.150739873139448
Fe 5.931915789823579 6.184757439352488 2.110468433000134
Fe 2.9344912771349567 3.995274823621277 5.468266880189535
Fe 3.937706673957023 7.051774708762974 3.127075627980975
Fe 2.9410618224964473 5.122806935241028 7.70521490168361
Fe 4.173612984532384 4.68825863937966 3.3667093759750073
Fe 3.1536319375549198 6.277263423109641 5.212993328120705
