20
Energy = -133.04522667 eV
Fe 5.1699342145061555 4.355488629569989 7.293404681581827
Fe 2.3937681319056288 8.016507661357421 6.469246827335968
Fe 6.278104628238473 5.677188935084765 5.803464086051584
Fe 6.873975019992497 8.823003103454969 8.001453103347092
Fe 5.815926238671506 6.6801805620557015 8.03540644128402
Fe 3.9877926375566934 8.6221829476008 4.962464039407511
Fe 9.70641009210015 5.6531571448026385 7.8787226974638855
Fe 8.722413044278523 5.006902231112101 5.556727417935833
Fe 7.978099818413568 9.186142926121583 5.845797803864797
Fe 4.377839749589373 8.624840551437034 7.498161846766069
Fe 8.006748653551108 6.865888111180606 9.209848889054175
Fe 8.121557575086351 7.067381430654638 6.81383021391089
Fe 7.0202301401351885 3.390832296944472 5.836649656169756
Fe 5.315218622966779 6.740447054723322 3.937162516006868
Fe 8.670538948396647 4.677286819223797 9.68476393730568
Fe 7.1111443179869696 4.8589596404182345 3.804023009634295
Fe 6.009561183072088 8.144907396405968 5.867691899613729
Fe 7.701342514845214 7.125821371156531 4.367973448417014
Fe 4.086072234709597 6.487685872491969 6.205109789563473
Fe 7.462948704475846 4.804821784680957 7.7377241657633276
