26
Energy = -173.33909606 eV
Fe 9.290754922130628 8.333347339742112 6.051742159885235
Fe 9.055323541446047 6.411033289986953 4.5201888324723924
Fe 8.963397174763148 5.839057528635496 7.043926744884916
Fe 7.880478361124121 8.492233797735897 4.012735600045403
Fe 8.16384503688961 7.730917949136277 8.069909666278676
Fe 6.83952854530937 9.310871636597865 6.267687595267641
Fe 7.176952230619507 7.154175983447507 5.8097022752299665
Fe 7.3704694525904815 5.794864078009254 9.306561385405676
Fe 6.862409729782402 6.280596538436511 3.431170136216304
Fe 7.592122782783822 4.76477797135898 5.347379839264216
Fe 6.020512211949226 8.10523405762046 8.483283083139664
Fe 5.522215153901463 8.05629880618954 4.1679398286023845
Fe 7.924199441976662 3.8798655912602356 7.7331175736174504
Fe 6.29122761044944 5.719914936477769 7.340529361227771
Fe 6.1896258919620095 3.909744788759319 3.683503061748647
Fe 4.8444462872551926 7.75886783810182 6.502254759134443
Fe 5.654755076454487 4.03526954727971 8.850920441090025
Fe 5.176177996257561 5.657223745946902 5.29419840928981
Fe 4.5893136868623 6.2082794931527285 8.849239692446831
Fe 5.998243474260303 3.3748619821307635 6.346540234990074
Fe 3.341757648501364 7.297946266394582 4.600986791532858
Fe 4.157570358345962 3.44900528977262 4.7724889300689055
Fe 4.3805893710478125 5.626024675341135 3.2195128226380634
Fe 3.027004617564618 6.3638506835198285 6.939406453628244
Fe 3.9277611246695 4.252872344064127 7.119731641289247
Fe 2.6476347293752722 5.06136456708462 5.006075680338267
