26
Energy = -176.20732667 eV
Fe 10.739445861712301 8.8197003790936 10.028892217450629
Fe 6.107342812220701 9.930164380226486 6.399007063101279
Fe 7.687986473092168 5.422342741409359 8.402688521381949
Fe 9.34013474014936 7.885961468144906 5.574326207204192
Fe 7.496698901924704 11.299751002346504 10.5409727537333
Fe 9.635408012483895 6.2499496284716605 7.226961294669543
Fe 9.153234039643811 5.550036900160744 4.770254495108928
Fe 7.289083942317215 6.175942225665904 5.98164370070687
Fe 6.284990414110033 3.9525915174643336 6.999896862238473
Fe 9.595498833550492 10.840709820105767 8.949653245678903
Fe 6.62692034435824 7.155939034068587 9.810298874086412
Fe 5.263991884991015 7.678035120939416 6.0852956731496555
Fe 5.058101086600534 5.279654533416189 5.554107652587058
Fe 7.196305869870437 8.428720172238547 4.976948983569253
Fe 8.721844121763379 4.097075075788346 6.553717673752087
Fe 5.368883185003873 8.686917294573062 8.384086952856658
Fe 9.629038114603773 10.410993479249434 11.245859818834745
Fe 8.517926449412307 10.042335487922045 6.42313772177077
Fe 7.088847685573058 4.125693393208251 4.788926694007542
Fe 9.811397730204359 8.679813793304405 7.945583751441427
Fe 5.488951869369567 6.175778870342545 7.8469970167911285
Fe 9.250681784730602 6.853955318523423 9.549217801131084
Fe 6.107533049501246 9.674608506709127 10.52656283126793
Fe 7.536669092220591 7.92202498441313 7.6088176505630285
Fe 7.353449660184851 10.23681995747678 8.438756493332168
Fe 8.307730846170823 8.870072247402584 10.15127983558311
