24
Energy = -163.78120975 eV
Fe 6.33501056068873 12.294059517597852 7.8556379048891305
Fe 6.06255193392454 6.259647785108765 9.892492086254741
Fe 11.762158308695268 7.856684959425147 9.127468009390084
Fe 6.590504865064808 8.161177092614698 6.1842953761806445
Fe 10.235911730852393 8.665355064636547 10.887113494373844
Fe 8.561832351318822 6.612224111473048 6.721753678791266
Fe 8.63639412219182 11.425008519414925 8.099370151282114
Fe 8.333938143978884 9.609868047183808 9.758810249163382
Fe 10.552482747903246 9.861963272076286 8.712610645450697
Fe 8.846684069240515 8.595137950374115 5.148832391939965
Fe 8.158911924154195 5.473439940377088 9.051949559473131
Fe 7.493472837851255 10.645858358638275 6.068889734223145
Fe 9.581510099060672 7.474934791159075 8.796120633806488
Fe 8.062842560449798 7.3774678876415285 10.91397784664065
Fe 6.360476644789423 5.911708920693513 7.295867104688119
Fe 10.074512743856012 6.223324849247107 10.588835100232993
Fe 10.10969321540865 10.553279214294344 6.391735979766711
Fe 4.992729733327381 7.864790616925056 7.999538561545302
Fe 7.2171031927538145 7.6909730500773 8.619841627414695
Fe 8.554536972052968 9.086847531023277 7.370733841242533
Fe 6.705634708358005 11.518038986304843 9.796914415171475
Fe 10.697032339272338 8.150903111067256 6.756997026327157
Fe 6.033422269926325 8.890142836224449 10.209412630753528
Fe 6.3297111640906705 9.920756208494891 8.038581793832432
