23
Energy = -157.70689424 eV
Fe 6.783799569792116 3.6627622202673575 5.140325901432445
Fe 4.399234406936866 3.1452201674717384 5.647222845509756
Fe 5.860388157208595 3.0504946125103567 7.455397591774108
Fe 5.022158147642929 4.863827594346556 4.11297288246915
Fe 7.199715370951124 5.051556140662589 3.1295927885367867
Fe 8.878799855785118 5.1288430558879625 4.746049415311663
Fe 5.282094607741872 5.33847596649702 6.654734942637277
Fe 7.739343685559653 4.687798555388503 6.959044862671536
Fe 2.9820779897919234 5.005278824771284 5.756558415766452
Fe 3.7947160024618745 4.400832661041577 7.9879121742372226
Fe 5.983048170997476 7.049908118068265 3.035917142516262
Fe 6.793507037291906 6.371478689606424 5.288257796747991
Fe 8.215452238279406 7.436826312277242 3.987071111493725
Fe 4.285999138220402 6.927719513723284 4.853906570569812
Fe 6.308247930209517 4.742830843271719 8.95724661942015
Fe 9.10092917177531 6.680727647904411 6.439401137798061
Fe 3.200403334851188 6.951367774269503 7.086804068689597
Fe 5.902493673297822 8.799485037576378 4.6218794630042925
Fe 7.19633531643896 6.755578661471893 7.936222961529319
Fe 4.760717428598139 6.494538344777962 8.80824844276822
Fe 7.725765655102638 8.544776627012654 6.113736122908692
Fe 3.7770492703996905 8.960760219100619 5.8054692999973865
Fe 5.486730765156736 7.875673140869527 6.888474604622408
