27
Energy = -184.94656493 eV
Fe 10.871012276836646 7.885508281575038 10.832826510391065
Fe 11.020465712116977 7.133651412207362 8.772125924237347
Fe 10.006880127115188 8.670325843037165 7.412202184653938
Fe 9.151430721303653 8.683205653056081 9.553816808662887
Fe 10.372491765624776 6.748506818405713 6.044358103990358
Fe 8.958724830203955 6.237379002397526 7.907903002721478
Fe 8.337072779027654 10.313049285550415 8.11434243286281
Fe 7.9192067449388 7.857682246398632 6.349265086337259
Fe 8.960144882954166 6.386119685806211 10.3691402845836
Fe 6.777921327946788 9.857534313426127 9.92862768863367
Fe 7.862547044691861 8.247549316558251 11.412447807718163
Fe 7.119374990637573 7.680129104949071 8.811623989083948
Fe 8.937387160420492 6.616118051380243 4.096168882307561
Fe 6.259242659589168 9.814454239688759 7.437728834996495
Fe 8.408081522658605 5.193399509374991 5.870339956319534
Fe 5.457399550533119 8.171948723681183 10.915250523011258
Fe 9.94554279218392 8.713877483464788 4.887808741367113
Fe 4.67524860038863 8.60209185627807 8.776964707571068
Fe 6.612516196945756 6.159532617617699 11.032839724386818
Fe 7.437486611593835 4.969785740272105 9.180331790449511
Fe 8.207146466502747 10.159093379571082 5.689747451161325
Fe 5.369245021006116 7.607483655209043 6.702848710757135
Fe 6.5217380888555025 5.670451619666251 7.146302763212833
Fe 5.1306447115733995 6.290637411034559 9.153448568674179
Fe 6.589058425781684 6.6644538774976665 4.725360501550183
Fe 6.053223768339596 9.240599995099483 5.125865717668186
Fe 7.831190885115718 8.63654748645984 3.748205065235035
