28
Energy = -189.66029341 eV
Fe 7.509739571600798 4.393517451156794 6.163784611801688
Fe 8.949468134304416 8.371429624479932 4.9473510907299385
Fe 7.647656994680872 10.496350629174634 8.381110634436748
Fe 9.50318391356969 5.029288232070508 7.3058842834769955
Fe 6.677766753858471 8.053134932667538 11.370543898340957
Fe 5.487234970516194 6.061031517434986 5.493247776774723
Fe 9.154199481596965 8.912128409416747 7.472335721087278
Fe 9.33936336003797 5.596927924446006 4.884972287577288
Fe 6.358722553516891 10.096801303320712 10.308056932280879
Fe 5.40293593629073 9.648001535664662 8.080487179565846
Fe 5.6116431296071205 4.782547530130853 7.521634252584169
Fe 7.166325993896047 9.359611009727683 6.317032006742916
Fe 5.800692033765554 6.142972077535549 10.029733039550814
Fe 10.263132833253458 7.107959097758326 6.392565304695922
Fe 4.661511407089867 8.266267456348238 9.897764136455294
Fe 8.567786864307342 6.9640832880430565 3.155509729100804
Fe 9.47853745418197 6.995470955901356 8.678455285039007
Fe 7.592971964995893 6.839640144551446 6.527514383577403
Fe 8.808277354018076 9.017029597778762 10.12894191319439
Fe 7.1392635579146795 8.049142972468074 8.822004776947441
Fe 8.212753210275375 6.477679649820392 10.584902368472095
Fe 10.93639331290169 7.316554276500815 4.1174603869358295
Fe 6.689843320586606 7.817145919719021 4.30811718344279
Fe 7.557122995570146 5.455311759273384 8.549082999093558
Fe 5.314822905960497 7.057875580216064 7.836301037061866
Fe 4.9103666880214 9.37922385580479 11.973194943116745
Fe 5.07872510282844 8.445448567182952 5.961787229989266
Fe 7.128284935650033 5.332111419696245 4.021657030751664
