23
Energy = -155.17109315 eV
Fe 4.558526186384306 6.008341865809015 11.020178942088048
Fe 4.345783377886342 4.800025237820401 9.08240836410651
Fe 4.667955739977565 6.380929929631637 5.531541234961798
Fe 4.812287781725117 7.354377756424934 9.15425254659005
Fe 6.2905375706341236 4.7218389228651585 4.899614133137917
Fe 5.564008825486205 8.243111614326608 4.366451000874012
Fe 4.366306807851055 4.339039233856106 6.589816573540563
Fe 7.375037099467396 9.294273277875133 6.076988561514457
Fe 9.252000333901165 7.627580795062032 4.768760419899998
Fe 6.537976642389001 5.880059776872127 9.846500262232105
Fe 5.084083198153697 6.076534607582316 3.352646164307551
Fe 7.842818340833012 4.351192350420864 6.7124768010294495
Fe 7.303602808744059 6.637501393735214 3.4004092091248883
Fe 7.602806238941311 8.968626052618394 3.7637914921348368
Fe 3.466195229426497 6.304583848418594 7.542184940235863
Fe 8.586929067701051 4.945184953781004 4.514347264067511
Fe 6.005813064510673 5.665198847389284 7.516776916872348
Fe 9.17941191810091 8.147042689104936 7.124014073856324
Fe 9.758270089857811 5.903624546259501 6.300007564922819
Fe 5.299817608014773 8.208253652791022 6.834178558908207
Fe 8.421817576279748 6.030426398884911 8.211407442683454
Fe 7.102217614266838 7.965047019038842 8.298242850178598
Fe 7.308008600910457 6.879416950875394 5.82521640417658
