24
Energy = -160.39362965 eV
Fe 4.947525036387217 8.087999917470489 10.013444399454736
Fe 9.347069290566155 6.708118145017882 5.807733162154729
Fe 3.7502137022005346 8.432268174333199 5.705868100625973
Fe 6.196882763295619 6.57419750831168 3.0694614181975024
Fe 6.693973241935425 8.942488459120547 8.656877484651009
Fe 6.677038732693163 3.317458037544155 6.032924198340513
Fe 3.4976094273998366 6.0949688563332485 6.346388783470332
Fe 8.664491447963071 6.35275020235035 3.4153210634241455
Fe 5.675875739616496 5.2788623491978965 7.038306339845894
Fe 6.854871265707856 3.834513927548311 8.475612158396201
Fe 6.145007162668244 9.171486940484012 6.277030357096411
Fe 8.924332539484741 8.103146029931896 8.308213682948892
Fe 7.739776235243238 8.016944515372495 4.701716227222691
Fe 4.8950161817039595 7.592231035224274 7.676940771870788
Fe 7.385871759782367 7.077233225920288 7.043067235638323
Fe 7.338180055408053 5.467253802046114 5.047092918799823
Fe 6.707215040879559 4.472786539756406 3.025960909702722
Fe 5.621766401263558 7.14460024197426 5.315930815871053
Fe 8.351275167675533 5.816368750451407 8.884123804826974
Fe 5.0244101438167315 4.757045062392423 4.769674851020978
Fe 8.472697912535278 4.573622371116606 6.88856992368072
Fe 5.993797784296196 6.149209192000799 9.310521838546423
Fe 3.787093280341741 6.620300212256704 4.048772516231873
Fe 7.507592113290674 7.613728930000082 10.340029464136975
