20
Energy = -132.82700902 eV
Fe 5.268660038731548 7.858777672503186 3.484733986875939
Fe 4.830768024606981 5.61584793454556 3.735633169023765
Fe 7.04371684998499 6.4479222907515314 4.1208438098902445
Fe 6.279273690500909 4.141442381799563 4.964423152184234
Fe 9.51488184002185 6.410386077823914 4.3839483883277515
Fe 3.826304179979392 4.801093900964169 5.699260140406692
Fe 6.192303285699195 8.445423177010554 5.473634225220773
Fe 8.511562597820538 5.0093745998886146 5.57135417571891
Fe 3.9996319437711145 7.258937200876955 5.431063756677266
Fe 8.156690935288175 7.366936141037593 6.155853084801409
Fe 6.052252483153008 6.06019492508418 6.364302651387562
Fe 7.1455652414524895 9.723265233038125 6.779933511070403
Fe 4.929480050343437 2.7102762962955955 6.086078289169204
Fe 5.0874097406485275 8.176052232351553 7.525918690333485
Fe 3.7986931671274653 6.272138065222616 7.685756362709858
Fe 7.235978586384435 7.8098688167641335 8.23902769006539
Fe 6.935384519720786 3.816992024804121 7.255530428442755
Fe 4.710249708354985 4.075637304496155 7.89599354685522
Fe 8.163265529183645 5.676656432380467 7.931424231121668
Fe 5.928475080908066 5.933324786043396 8.825834203398857
