24
Energy = -159.9873961 eV
Fe 4.449372337465863 3.3204040351267996 9.146944530274743
Fe 9.843525130763904 6.259072375074951 8.330674440371425
Fe 7.661335989948722 7.785208072571561 7.9060732845940995
Fe 6.332719232373546 3.9704878223898827 7.839820310025909
Fe 7.970761883174839 10.274685225201187 8.03554315995305
Fe 6.971017419833952 7.320316098733631 5.4536910775859795
Fe 8.084167803944464 5.55731395990774 6.639371527497056
Fe 8.797635003405551 7.0279402691310695 10.283264620733554
Fe 5.846525658559937 9.627881598080858 9.111421068328982
Fe 7.837983926744664 5.199931457344552 9.071044458539042
Fe 9.643503327685206 7.6470897676927425 6.46426255195972
Fe 5.7680631149781325 9.044483567261475 6.789280778765833
Fe 9.04487841140819 6.551540053028815 4.445275689423556
Fe 4.37978596594225 7.985190548493676 8.389311901765995
Fe 4.276076530003866 5.6504111318730175 9.140820940488325
Fe 5.78513526456943 6.306175859814402 7.38095593984952
Fe 6.239034423374983 7.09284872261462 9.907204291091494
Fe 5.974859059593762 4.573575419817838 10.408967095296502
Fe 9.943266517899984 10.041302815134449 6.644467387741307
Fe 7.856645212359858 9.158261349263597 10.132570655036973
Fe 7.88572763728407 8.338996255214843 3.4474821853564985
Fe 9.854593979683797 8.709277306535885 8.763115981417153
Fe 9.909393359701824 8.827664606936374 4.393753689566639
Fe 7.883483989927613 9.556198495950932 5.621049610328461
