20
Energy = -132.13121438 eV
Fe 8.07805696335945 5.9102659884867625 8.151069259064544
Fe 6.920398636026049 3.6856579596712806 8.70827643597834
Fe 4.558197135179396 7.61291202108411 7.860648231282888
Fe 4.562623662219108 8.10048322299867 5.57153270793171
Fe 8.69114555995325 9.510972003483243 5.6335937841726444
Fe 5.61151927200211 6.776098784549501 3.875430449596717
Fe 4.283300426692238 4.017382634016361 9.00776486413219
Fe 5.598688403104769 4.540992853190217 4.728676519664777
Fe 8.744351111864836 7.1526513575581 5.612177745037202
Fe 7.652414244484201 5.497252609707091 4.348449105211184
Fe 5.744686923828085 5.55652137234464 8.23442447765905
Fe 4.3232472275473945 5.78627645926042 6.182220327589568
Fe 6.539488195971461 7.578752185060908 9.068543571685277
Fe 6.512065263689064 6.689239438876322 6.297248362055425
Fe 7.821365466851424 7.56713657416488 3.3222563277660604
Fe 8.299392740701908 8.179686860326301 7.695117452915549
Fe 6.760301846565776 8.647652408690135 4.973918948003985
Fe 6.2654244440203275 9.17459282452164 7.220675554131565
Fe 5.369102975633388 3.5404034556310147 6.885536936678022
Fe 7.521707554739794 4.332547040812434 6.47991699387693
