27
Energy = -182.62787217 eV
Fe 7.883710699348213 10.014631297187794 5.930742069197833
Fe 9.277161446890334 8.443789155021163 4.754688296844283
Fe 9.553371224190615 9.078279664635357 7.2853657221074615
Fe 6.738435919438477 8.492660208770486 4.439089018156905
Fe 7.51462827600749 10.119703363093395 8.295594166458512
Fe 10.309805662783488 6.985725372778126 6.432124962861008
Fe 5.862138554616262 9.088684806931981 6.76543720325878
Fe 9.20656666955706 9.194165683817635 9.646865433305228
Fe 8.122752039632815 7.42892938425011 2.8239589219279737
Fe 7.730866765620307 7.4187576288829895 6.559238836142386
Fe 9.573032145222387 6.97556583765215 8.676591289104767
Fe 9.140794713541075 6.012970081902586 4.654101501146372
Fe 7.072056574807337 7.694103108707132 8.877931897094077
Fe 7.706492855263742 5.066391183183124 2.8789658317937827
Fe 5.937884412598388 6.520620755926059 3.305967060097529
Fe 8.703732920393906 5.236472030158747 7.125249068012317
Fe 5.331110376226769 9.570924789317518 9.070525705665382
Fe 5.365060464778492 6.865271439799624 5.709556933208057
Fe 6.988262326351792 5.138114732221901 5.2665045395279515
Fe 4.768570398213418 7.3606877965119715 8.05877619340403
Fe 7.856021344193701 5.442264712706463 9.490361493841975
Fe 8.654068493645367 7.31958557792116 10.937106669964049
Fe 7.0098842034062985 9.1796012169345 10.8282242243862
Fe 6.304875125156301 5.5019697243342724 7.562184637700026
Fe 4.8202043522818165 7.87508787250521 10.60102975489941
Fe 5.38290310234065 5.709761961585624 9.769092797690174
Fe 6.542586942272519 6.643696998987399 11.549268743476379
