26
Energy = -177.61168662 eV
Fe 4.265031127732091 5.487843386022214 4.927195076074973
Fe 6.041870131619834 6.858827464797084 3.4526907006824947
Fe 3.8355546128853986 6.797383861644858 7.067206870884905
Fe 4.237155527248525 8.162404514795416 4.949593481973293
Fe 5.383563655192632 4.656237466044636 6.937042187180693
Fe 6.701771634477815 4.719207661006121 4.692241354202118
Fe 7.419517826578691 3.411497957894203 6.744442929327596
Fe 9.192091113667583 4.76379873250884 5.2876097851974695
Fe 9.40479830513955 4.766422482874888 7.958655961175896
Fe 7.042960219293284 4.69634011992525 8.93901353960361
Fe 7.723005165193792 5.650396036914406 6.753354287946976
Fe 8.169495914858903 6.865137090265405 4.561303853760483
Fe 6.074571861196316 6.813960466901647 8.079803820451792
Fe 4.613848759692123 5.461931410690807 9.122063629847645
Fe 5.891483060146183 6.830057764640292 5.704980074016757
Fe 5.341821446111447 8.965817206084537 6.968036761347391
Fe 6.656193195723854 8.979605178246993 4.720534280771532
Fe 4.587830518620854 8.130343589598256 9.14141511654406
Fe 7.698359888532498 8.038097275300526 6.767721187453051
Fe 9.148895505613359 8.970937111310096 5.315929753431977
Fe 6.994791273001583 8.945973558328882 8.967608541094279
Fe 7.335959310527681 10.270952780100167 6.799923827524233
Fe 9.362314578532411 8.94978138476383 7.974125167858172
Fe 6.601788391453706 6.799828984186842 10.291448959667317
Fe 8.497621785641304 6.846525936622437 8.858356690426179
Fe 9.864063181846625 6.87099520080848 6.589975113335419
