28
Energy = -180.54466289 eV
Fe 5.472787370815744 8.466765467574593 9.468010686648968
Fe 7.137457809082964 7.109680052251683 5.872024593846827
Fe 6.867304758439713 4.851258505016184 4.897742801445993
Fe 8.338876043882042 4.978038637936209 7.041446969789321
Fe 5.58267725288943 6.537837553671371 3.487604370639248
Fe 11.634267514282701 9.705761683052195 12.608530901623453
Fe 7.914870192430773 6.436384984320228 3.1682992474771274
Fe 4.709017567370067 5.863218036888084 5.53337342001385
Fe 9.163699665305336 9.217945602483905 6.726352712273819
Fe 9.064521201382032 8.10019833030136 4.573357535985113
Fe 9.193413761193616 5.645527492656273 4.938968708001137
Fe 8.748451191719711 6.553997755389404 10.717895573508729
Fe 6.033605728037618 5.0709304987137465 7.314699170205293
Fe 5.116439311354087 5.95570278009504 9.297016893541484
Fe 6.419477595459623 6.760344056658537 11.004667229184909
Fe 9.93324464682089 8.528303712246666 11.328168643961865
Fe 7.674754817168734 8.72908931403378 10.501718675404536
Fe 9.782574652663543 6.9982912571478675 6.7808129183846715
Fe 5.45385366774054 9.513583664392717 7.232238163716722
Fe 4.782800635995822 7.280596716894177 7.3943577911056195
Fe 5.032840521944344 8.310480281381604 5.0979744088377155
Fe 7.414337099961351 4.951678633716031 9.445327374064485
Fe 7.425133684899082 7.164308667855155 8.331981302368117
Fe 9.590209719124802 8.256314298951445 8.934234526155844
Fe 7.160901443037783 9.714372198373061 5.641138174894117
Fe 7.510513654831875 9.77147885843078 8.32328246437722
Fe 6.900839287123005 8.5449854530216 3.5304637621349473
Fe 9.726896955975695 5.760122107267532 8.79839483981368
