21
Energy = -140.41896032 eV
Fe 7.703329392135547 6.4007972373776765 3.368427364027932
Fe 5.980060644018735 6.90867506738421 4.733021996490528
Fe 6.710660690173545 4.5347075611672825 4.606184739051002
Fe 7.683245132684157 8.570512504583379 4.661534703470498
Fe 3.7366409800099407 7.346695062206861 4.493398757247458
Fe 5.692097652044036 3.454914734135954 6.869315166140733
Fe 7.23414198214033 10.133118861290711 6.301245790598856
Fe 4.4004002199566825 5.087731987625833 5.291624016985279
Fe 9.039949968647042 4.740207682586375 4.159834895083049
Fe 2.474121618461366 6.186187566600305 6.038427327049391
Fe 5.395160707451107 9.167393768337691 5.270652259865056
Fe 8.271132544914307 4.1738513280496825 6.356979851397373
Fe 4.442281389097631 7.400494164099375 6.751439411709293
Fe 6.249905468432107 5.616901505245666 6.822107364898822
Fe 3.9423261432236685 5.252595013407566 7.744171116537207
Fe 6.860181570905226 7.948512501521181 6.938641165795176
Fe 5.638110039705363 7.028561997853671 8.86315379572917
Fe 8.385417436158294 6.469867661469265 5.726138755075149
Fe 7.553505431739276 3.792438595779718 8.473675130846425
Fe 5.683788187982445 4.740990257974189 9.19210678042289
Fe 7.892014398263666 6.133811930185496 8.40463493522861
