21
Energy = -140.0387655 eV
Fe 8.27073550398482 6.224219241490255 3.5239021784925044
Fe 7.623556420497696 4.8810994283025595 9.133731514387774
Fe 6.263385381625015 5.201247135743842 4.304775232336715
Fe 6.364933940906119 3.177440867519392 5.428917163540253
Fe 5.46060114653409 7.022188745925036 5.7172202789208475
Fe 8.93250764657473 5.942499387054104 7.443324497172557
Fe 8.429645700944178 8.574805767621118 7.330578444486696
Fe 6.7566116258922815 4.903135037469534 6.76695675883946
Fe 8.343958245138728 7.233921802977842 9.36640111663605
Fe 5.2804715476494755 4.778773314634249 8.560905650098263
Fe 8.481827185577806 4.569116154018629 5.230153353863822
Fe 6.312598415393059 7.557849015537349 3.6731523207518926
Fe 6.620128140528823 6.943937277435296 7.918165140379431
Fe 4.536404874334339 8.925569252078786 5.103220769091957
Fe 4.236920379471123 6.854163845650328 7.645126813810281
Fe 3.1525473572201492 7.025703328045791 5.5301575186874565
Fe 7.815436877986059 7.035993047942554 5.64491816395118
Fe 4.404960372757237 5.049764116919563 6.201307448237793
Fe 6.140684932537098 8.996884412995676 7.051575670917008
Fe 6.044637614689491 6.453800629465884 10.005226941591152
Fe 7.140361151327958 9.260802652742484 5.033197485377045
