29
Energy = -198.53446454 eV
Fe 7.54544912672123 9.365133540043331 7.109941329631929
Fe 6.6611027678215295 10.091283281472128 4.076184646832215
Fe 8.581606575585408 9.028673431116292 4.973882648462985
Fe 6.137023539243641 8.427142392237224 5.500353561098525
Fe 7.905382814905245 7.665246918410229 8.815308300476948
Fe 6.97432289631389 8.001089739406645 3.1390399590023397
Fe 9.083202753264404 5.668300168876867 7.84167674230034
Fe 5.789447086671224 7.911130052009315 7.702267143108445
Fe 9.153902513527697 7.115887604107309 3.8613617428562894
Fe 8.044443779430452 7.0508258448892995 6.3223881436626295
Fe 4.670537764095414 8.850254374403507 3.6992662442282467
Fe 9.487694461907497 5.3055704352537365 5.383931351167872
Fe 5.700598382376857 6.908660289477216 9.865361475955405
Fe 6.685517231346456 5.582662177789717 8.266720159670193
Fe 5.7349821505230425 6.079333479294336 6.035411119493533
Fe 7.512247528584078 4.4446146268418465 6.373428768626428
Fe 4.149341162182179 6.189611519953599 7.995876963178622
Fe 3.9086886861216814 7.720532567628092 5.948804254419936
Fe 4.954533877478529 6.597590373222288 3.845189426887436
Fe 7.298460207082343 5.7846162524017934 4.180029310972254
Fe 7.00211975734934 3.1901362202277066 8.325041790670472
Fe 2.078181535489095 6.449524552511983 7.005767402791574
Fe 4.902676698560775 4.355213208233808 9.365187863706883
Fe 5.052709987833482 3.9435263574118298 7.05223945103779
Fe 6.494083905423562 2.3198599445360304 6.058681688336071
Fe 7.955796987456215 3.5290396081196787 4.285797296601954
Fe 3.4564118354181392 5.25842766311434 5.578409974726121
Fe 5.584821050825541 4.028900999532143 4.6238370480606665
Fe 2.817476977606121 4.224090246986383 7.694784473218143
