28
Energy = -190.46432176 eV
Fe 8.763004158732047 5.206016702954263 4.138185183338013
Fe 8.341783183159146 4.938164043794688 6.542426128234185
Fe 7.14855230353776 3.5751026334088145 5.134471272401716
Fe 5.092440141659286 5.260404618568479 9.315591299397346
Fe 7.6254506629380305 4.47148344979906 8.870815353207442
Fe 10.076252551248317 6.432623534533682 5.710767983780203
Fe 6.036131396566889 3.4880135840606155 7.468386738398524
Fe 4.952127983373974 4.0760978570556015 5.3131278058112485
Fe 6.616750212017499 5.963462285074892 4.610931311302054
Fe 8.997832172599423 7.391984958741631 3.635469144163282
Fe 4.880473372279279 5.255325904933652 3.171330938646305
Fe 8.671253526296823 6.668328456498043 8.083920176848004
Fe 6.228213823975637 5.895769320281345 7.066685929712942
Fe 5.932603546582857 3.123872559404739 9.766695274781016
Fe 6.802614451438447 6.691821257667455 2.4453226714467564
Fe 3.904360552591685 4.7338207178680385 7.417936271258535
Fe 4.779660777947575 7.515244673260664 3.533734138805116
Fe 6.973594298370863 6.504645066051566 9.721376312284692
Fe 4.121005024691568 6.227447212505317 5.477792456639012
Fe 5.1960242282349824 8.13563926505336 9.775786845712293
Fe 3.3732947198672774 8.4105314733367 6.112788743081819
Fe 6.802674507893847 8.175104602626714 7.97224189149564
Fe 7.028972780688984 8.5845357517075 3.890708898710296
Fe 4.3101170178470625 7.16938798649642 7.8430472119047625
Fe 8.041704899604733 7.4210202392904385 5.9055214056553975
Fe 5.629355731390467 8.038239440200783 5.7557753635715425
Fe 7.24562370436176 9.665194537300401 6.2426809871948405
Fe 4.936647358410397 9.489236955831595 7.585001350523475
