20
Energy = -133.0929336 eV
Fe 2.563776145518392 7.927938413442807 6.3412751760917265
Fe 3.60156888889175 5.846550246689087 7.266171541648
Fe 8.331106676177928 7.2370402840310755 4.343319399223275
Fe 6.792069738662941 8.446164117468262 5.647414197756753
Fe 8.24884249961343 6.154740111677275 6.383974248391959
Fe 9.34892520013603 4.721276922158849 7.965358070025131
Fe 6.959436133610762 3.942731316992062 7.007804066860195
Fe 7.24913392829072 4.780860197536124 4.678729709617367
Fe 9.02442839775488 3.842707572200223 5.881455905710596
Fe 7.325977702021174 5.606925462467174 8.780165757093268
Fe 3.6183689606277447 6.4527089655435015 4.983378239231131
Fe 5.8452969537519746 6.1348126642541425 6.719211316609186
Fe 4.9974234304014304 4.403540018874728 5.49859473673534
Fe 4.701242339726865 8.228836112538698 7.1014570043603165
Fe 5.909950058864193 6.652282194066783 4.355929850438107
Fe 5.215809405974528 6.764580071491034 8.93230960096818
Fe 8.97755868584764 8.520195674510958 6.36571629455499
Fe 7.100401627522783 8.008026280892645 7.993166136551307
Fe 9.21356720536526 7.106622187728519 8.389634933455135
Fe 4.381042909097128 8.627388073293305 4.770860702535741
