24
Energy = -162.37017707 eV
Fe 5.424862996993373 6.2039760971929745 4.375400299520116
Fe 9.746153014730002 10.299633666843121 8.4492527791744
Fe 6.8104119181921305 7.768218338666228 3.2016559789114405
Fe 7.291395735942394 7.680346470277961 5.431854903827343
Fe 7.733457246414768 5.728618928866574 4.1298604660081715
Fe 10.61005248105881 8.3680274789971 7.632212811696653
Fe 7.874692900918237 6.415221085454347 10.153719040659176
Fe 7.686403855009395 7.530121676818067 7.838555553526563
Fe 5.788546859126764 6.0688193397445405 8.739465591680137
Fe 7.784720064566526 4.869942899432762 8.426258056473829
Fe 6.231909011525763 9.465775921380695 6.605269502488517
Fe 8.68019880662058 9.567604242172441 6.4534119382351856
Fe 9.605251516075485 7.515358977700631 5.7501335270068425
Fe 5.105125245636704 7.305965530660891 6.737258128298965
Fe 8.598353252900646 7.608859775071017 12.03287978564092
Fe 5.075306402070518 8.511508012583562 4.682427194001283
Fe 9.748861981106002 6.291434210206089 8.38142345936684
Fe 7.475601262429382 9.951714243679303 8.605320642878016
Fe 8.78875293376175 5.4503602038079135 6.280845287604828
Fe 5.452351034953863 8.57890706203161 8.81718733007813
Fe 9.26937186985039 8.358458508086017 9.74021993184662
Fe 6.483683504428621 5.428643828060132 6.413840552633877
Fe 5.7525265380196435 7.108414131211254 10.81123477275462
Fe 7.13260041329955 8.865726797293954 10.614081908248547
