21
Energy = -139.36551836 eV
Fe 5.646029701226944 5.183630279604211 3.5542804603176594
Fe 4.671020278931502 5.611961539951304 7.61958665316404
Fe 5.7432346867288455 7.166871322018238 4.827690763747739
Fe 5.374628479227278 3.2114995899303684 4.836428709904322
Fe 7.9576060056580555 6.491640361733077 5.004976196065433
Fe 8.460345751306493 6.690378927997205 9.125047111160853
Fe 8.367939875425245 9.494314020714864 6.575626488804415
Fe 9.368086104206935 8.261124424882622 4.813819698739319
Fe 8.157879279988938 5.0648597232616535 7.326885857971707
Fe 6.616015697932518 5.250973616020821 8.931795531761408
Fe 7.24716200716907 8.845499513248326 4.3369414362428165
Fe 4.069748207682577 7.6423789363966215 6.497595225906593
Fe 9.158586691920483 7.406779477547751 7.081923393271329
Fe 6.732165239706532 7.032906997646039 7.244613031340394
Fe 5.092447357020036 7.779097108755913 8.570551525376445
Fe 3.951307995432835 3.6034337701921166 6.593999166573534
Fe 6.142900686086383 3.2962335477829896 7.395722713731107
Fe 3.903070489595611 5.478586123209933 5.127215550182597
Fe 6.215332970050931 5.024211194718473 5.93930199272926
Fe 6.0029783277691 9.050179887057439 6.452478639139981
Fe 7.5337915215605324 8.825716991956464 8.555797208495347
