27
Energy = -183.19614768 eV
Fe 6.794890973056535 2.834689959668992 3.4465148454891086
Fe 8.335572672004604 4.726495843489904 3.785452938742285
Fe 5.384507130536098 2.009323744580326 5.4183154594258784
Fe 4.549517494088089 3.3457113583287694 3.7325295687425677
Fe 6.750594332579566 3.959214696209121 5.47169155997576
Fe 8.909275592275664 4.277592265057301 6.335593908818981
Fe 5.950341129484711 5.284243563658126 3.597455313464828
Fe 5.492627489829878 3.1391021772295407 7.514703284618139
Fe 7.2953717546752825 7.181877921311893 3.41104089846603
Fe 8.879928331768724 5.916950750703142 7.953922032685644
Fe 4.402809797866017 4.456567480963555 5.888786589259036
Fe 3.5238476144081523 5.703377965804134 4.015688655181934
Fe 8.067790972880745 6.29858980821446 5.476292350964014
Fe 6.7127236849593555 5.221353605405868 7.435121865909525
Fe 5.683696920483088 6.52901683853068 5.662179440755953
Fe 4.909401166251588 7.681964948640347 3.722687016379306
Fe 2.7091482338383615 7.918811158022989 4.372990571769751
Fe 6.109016211076147 4.39614860242445 9.464835796737258
Fe 7.675013108275689 7.833955787732804 7.285311163251975
Fe 4.447203711994016 5.522389738924497 8.138817080723383
Fe 3.394288221785085 6.825302841877365 6.246726658940275
Fe 6.767097785885916 8.64795260508802 5.243045705158038
Fe 6.780562574167033 6.699858729518711 9.266485991432358
Fe 5.325188338002856 7.826576032432801 7.673809631139476
Fe 4.425991470912336 9.017786553380644 5.780950327541574
Fe 6.7075278379173255 9.100508103126014 9.07358587952508
Fe 6.26451369348015 10.029500375596637 7.086165913331392
