20
Energy = -132.18083383 eV
Fe 6.1262202935915235 6.077142969092527 4.718642235032785
Fe 8.495067461912925 7.084601518831415 4.932131212144815
Fe 4.453670472570957 7.795069427909404 4.646200141381618
Fe 6.779065380489272 8.572493094323049 4.416777403888816
Fe 5.949726848334687 3.8280334851189757 5.838213833588254
Fe 7.670648741311188 5.370675728896534 6.355600747747477
Fe 3.8158135408384193 5.388973842127596 5.0962913395235265
Fe 8.284630371685056 9.23499356643862 6.181316000450294
Fe 6.378135035909346 7.71809393833971 6.4801684067396055
Fe 9.951148292918152 5.38900967145217 6.244569013148687
Fe 2.2913436396593743 7.044130357648246 4.924500956167134
Fe 3.660540744546592 7.296000460492465 6.785374500728503
Fe 8.991637366114155 7.256514389638824 7.321734112416215
Fe 6.886007074249866 3.880408088117129 7.980192971308559
Fe 5.270811342518586 5.624279048629144 6.9109858655174765
Fe 7.411817849290892 8.73467083517173 8.431009092106235
Fe 9.067687855095478 4.987386908515899 8.414545478498207
Fe 6.919259165910737 6.23570179787124 8.61536296222612
Fe 5.2146600855516025 7.819223436216887 8.511430156571372
Fe 8.809330845018884 7.089819842685564 9.62217597833233
