28
Energy = -190.09438852 eV
Fe 7.438129610210008 5.788115842616286 3.5420636522457793
Fe 8.918516911035383 4.772459452841674 5.4303240478211405
Fe 6.957424045244508 3.7257782523599565 4.865675458994015
Fe 5.107691232488824 6.821302523490414 3.0356626827891553
Fe 5.144200519294432 4.517443773725509 3.642939671609433
Fe 6.670422381553677 8.07950506921764 4.230666590247709
Fe 8.645029821352056 7.244541462848211 5.264153229772848
Fe 7.204184950946341 3.5183316002593545 7.201537671089225
Fe 10.097602580222949 6.2317251557877205 6.919431740116448
Fe 9.359890882114284 4.220031574114584 7.900892645822248
Fe 6.271836495301213 6.0273838827929245 5.477853327443566
Fe 7.699511262515281 5.889246386587961 7.220920338851609
Fe 3.0025383258222504 5.638216156478313 3.0516535176359048
Fe 6.812087015842418 8.38187430993136 6.656579354987455
Fe 4.686658966550744 8.513297039228924 5.41877869402671
Fe 4.053844975512672 6.2114563816998665 5.101399220537609
Fe 7.448299760653071 4.708715546222362 9.313880998641826
Fe 9.122503211441499 6.293950872884118 9.148608032424187
Fe 4.900958388509461 3.9395524039701035 6.168184486750314
Fe 8.777701932383957 8.047756270888799 7.6224548090142985
Fe 5.472793226950768 5.0250904074764176 8.235086210559908
Fe 4.762531853397161 7.108801964227284 7.437005693777994
Fe 2.835966407732536 7.867952542374529 3.916434910524651
Fe 2.960340383421461 4.082301467371983 4.826746714266751
Fe 6.798974043830332 7.126049047380967 8.99113572657591
Fe 1.6595635176517851 6.049754486873349 5.022777884445974
Fe 2.660779788427978 7.668238031786444 6.357010888341867
Fe 2.965013362195308 5.307662463407023 7.000429653721138
