29
Energy = -196.96345216 eV
Fe 6.653350080600046 2.594888631726552 5.851713603851977
Fe 8.071236834228584 3.848365968433632 4.202341750433867
Fe 6.206279920995927 3.441413694202508 8.129961377482308
Fe 7.714123131475932 4.7674011191812 6.471584071446877
Fe 9.124994707034219 6.030875152086817 4.668546795453346
Fe 7.1534744979676885 5.135534588310101 2.281457337209645
Fe 7.1832635410196595 5.574986911135157 8.742930083704941
Fe 8.755893832577893 6.966233087764912 6.8752298070346
Fe 4.1742661619325325 2.5124982813736603 5.7663187182535065
Fe 5.625897763273459 3.6285056510802236 3.8447921945713537
Fe 4.795280161290154 5.7345844993598485 2.8239928270436594
Fe 5.228071309964937 4.734108550199412 6.295327887645408
Fe 6.694442496184483 6.028742408901813 4.571292134286383
Fe 3.674278464560863 3.3093452192400106 8.064017927521522
Fe 8.22303201188683 7.3254118961474575 2.7038072774418462
Fe 6.264240620449694 7.018083632050068 6.922616432255299
Fe 2.893089791214172 5.313148772922207 6.7453978699904145
Fe 7.949221876968614 7.834463298930112 8.947328572125016
Fe 5.8427408634774505 7.914177383717554 3.2894007821104565
Fe 4.338153867850489 6.702091134931025 5.059349901553679
Fe 3.388043000665089 4.486512093800899 4.480231259772895
Fe 7.895404915508957 8.326136800284385 4.847048320374084
Fe 4.591207964905475 5.417191445930407 8.75412001496996
Fe 5.430616141453357 8.873334438396949 5.482241531367005
Fe 5.505871578302528 7.543161782464117 9.45709967395453
Fe 3.8437372390104616 7.461212225906128 7.352058754683366
Fe 7.566208884551494 9.379920803693256 7.013451734065366
Fe 5.1833216875284425 9.395594009552191 7.799451313277691
Fe 6.781473789827627 9.827848394927312 9.47082148766086
