25
Energy = -167.24502807 eV
Fe 6.35042362049047 5.424885762397179 3.653859816118173
Fe 6.539664386418866 3.1167054245054286 3.9612932408162407
Fe 4.249596875630031 6.432918374559844 4.98221340175233
Fe 6.9412595198977405 9.258228910278648 4.228786558588318
Fe 7.6204984359639925 7.373740509905388 3.015269879390453
Fe 8.70042020980462 5.7974588450148286 4.431191093076392
Fe 3.095051300219008 5.07712673538317 6.308604319168791
Fe 7.591902069695917 4.599059276720043 5.9263840157581145
Fe 6.498836764792872 3.216905205527884 7.2956970910645955
Fe 4.116870993038721 3.2725343898334076 7.496770347123316
Fe 6.742188998321661 6.990890886325497 5.410510996241661
Fe 4.31526331706702 4.281342802939856 3.382351870718686
Fe 5.436655355257183 4.0849721998187105 9.238836903339763
Fe 5.433344459039805 5.477514721465803 7.132651947127738
Fe 5.315449662549587 7.690691473463624 3.4874082134386457
Fe 7.3687902402550725 5.359023199543048 8.411220300633808
Fe 8.945621088518275 8.140147219973441 4.788338664522929
Fe 3.4605411280383227 5.1814899042449305 8.664928414053678
Fe 8.60390710935279 6.800071134561443 6.822675992937789
Fe 5.119651816156343 3.987924533241669 5.387529899632242
Fe 5.314911392477261 6.416518689783461 9.35899756387757
Fe 5.196650815488369 8.687186513712925 5.8632382101416205
Fe 7.585179230804378 9.048782563282325 6.474117463382361
Fe 3.9506795556672083 7.242042760498019 7.429477045681446
Fe 6.4529716320785955 7.72491928293518 7.912590208519287
