23
Energy = -154.32877356 eV
Fe 8.081762488530611 7.528220359495126 8.295222516008913
Fe 6.146926335683205 6.048420264769656 8.801010516436586
Fe 8.241564054825405 5.23566166264196 7.62186146979022
Fe 6.010647645033899 8.494408005563852 8.125202522818851
Fe 7.534942538125862 8.837892644139353 6.1208549290883045
Fe 9.229680763741499 6.922177500417473 6.317271462972512
Fe 6.663414601923695 6.825372806740487 6.554536681813042
Fe 4.07909160604991 7.194372117265461 7.703421051815943
Fe 6.240265918866654 3.8789371526885086 7.402326349442012
Fe 8.478726678765936 7.306927546872326 4.284269355274576
Fe 5.111490363539295 8.68703711719952 6.009198533816764
Fe 4.188106670721999 4.798583709875978 8.357543593444765
Fe 7.381845072610339 5.135229164648657 5.243756289780124
Fe 7.523985256931035 5.486356068732643 3.0978402722322236
Fe 4.9379707883606265 5.436156107595961 6.123330767677957
Fe 6.182435448800091 7.51157893680556 4.151226818014028
Fe 9.487808152998214 5.2274119490135655 4.601818128698164
Fe 3.6885176810279052 7.034439999887077 5.019032408339549
Fe 2.6502742353408064 5.438556970291702 6.692347734948328
Fe 5.596502823843881 3.52926763406197 4.812799860785982
Fe 3.9599028667461913 3.333905812243787 6.597725447612201
Fe 5.099976989555641 5.5765615942066145 3.571589262241199
Fe 3.3538477780056577 4.507452963517058 4.611829519063369
