38
Energy = -263.18403922 eV
Fe 6.97336656005771 2.50091220716052 7.4982977452685855
Fe 6.888839175176966 4.958487337005374 2.1262546744783704
Fe 3.07326632265105 7.019982692840079 1.5297020515692321
Fe 6.00332447043433 7.790578236170317 4.832090548316926
Fe 4.5013950942844305 1.665572400883009 2.9265316572694684
Fe 8.96229135213948 3.1257522160989857 7.510891409426072
Fe 8.748551764477616 4.877275826727964 3.8727968792929737
Fe 2.1465016695380856 2.8925102034213355 3.4252958772177875
Fe 1.1987306032654605 6.933341629272974 3.133381624487155
Fe 4.8233670074645 3.894847938067306 3.5678226124498864
Fe 4.376056682034863 6.012501279922782 5.011895089833348
Fe 2.913676999918364 4.253970367398373 5.309115906470116
Fe 4.772783677177778 1.6726848864237314 7.259932384819443
Fe 2.973181067281089 5.356797843076763 3.1169028106027485
Fe 2.010732157118391 6.518120009064203 5.353825480238488
Fe 8.133551662167784 6.538388373120364 5.703495805000733
Fe 7.2776756375771505 4.834812049079471 7.19191852499901
Fe 3.505238633363373 5.664917645883087 7.27189243333784
Fe 5.237955625616358 3.873280044326127 6.115271408989625
Fe 7.053125106339921 2.8792498555224104 3.3049035472701873
Fe 7.788926832176083 3.390665448978774 5.453131215286312
Fe 4.595703641484546 5.134391046739211 1.1099181203108206
Fe 3.830086619048888 7.965165956940494 6.20783064688713
Fe 1.1988848368153513 4.826880287572919 6.8854367334811695
Fe 5.750660903674514 6.471970252321285 6.901573476960935
Fe 3.625425900094853 2.0262109524281358 5.1995687117408425
Fe 1.232993096110935 2.7012064362409673 5.725964916442806
Fe 3.0449591525561917 3.2039101672167067 7.445367678282337
Fe 5.143647853296078 4.143055669412562 8.402054195273072
Fe 5.24056633732903 6.5985864892782375 2.8307911811238124
Fe 3.387639479078433 7.9069752991914966 3.781792290346273
Fe 1.3124367240684065 4.927804035706168 1.6275904881722085
Fe 0.7717913401296658 4.73617515576236 4.220292367914016
Fe 5.667979233676041 2.976603001085718 1.3095333215072418
Fe 6.598291303521961 5.261529802258351 4.599162649474919
Fe 5.977197555694338 1.7598552412279103 5.120599572242155
Fe 7.644752752943734 6.993917417360668 3.27069393568691
Fe 3.2572963396118007 3.3539654682085867 1.4893311969251533
