33
Energy = -226.28351199 eV
Fe 4.931551788811915 7.744791891951252 6.271387795303282
Fe 7.295338329791814 7.553859485026948 4.777935830002022
Fe 5.887337918808766 5.620944076833785 5.771044532651421
Fe 7.806400265368442 4.262717651592926 5.733337083802967
Fe 5.41430276182608 9.284792368849518 4.430830441996914
Fe 6.721143873796067 4.601191824431175 7.929316338993441
Fe 9.111379695909026 8.425731169801152 6.254744201873014
Fe 9.110525902801843 8.802478695759456 3.887021404136188
Fe 4.993174589005174 3.6570840418135098 6.572969865873134
Fe 5.11146270570708 6.9731959617122605 3.762304976130469
Fe 4.240863883004578 6.895767678168949 9.907628214380173
Fe 8.12587349312565 6.128677228198389 9.37639006716648
Fe 7.539363519689067 10.189982822590885 4.753697864217308
Fe 9.168197619792183 4.573188175774992 7.705580924712734
Fe 6.4437877021169045 7.911082662195554 10.440599518718475
Fe 6.968902654245448 8.412480800661246 2.7366558501712324
Fe 3.3583759501868173 7.884824130752636 7.930593924856946
Fe 3.1864809521354123 7.981462549107136 4.8627404439708455
Fe 6.824756871862243 9.022314739964681 6.685975454954664
Fe 4.024921381970277 5.554761300348868 7.625634392871016
Fe 5.875306939741011 6.834332210659506 8.321182384556648
Fe 9.184626904542025 4.350955585341081 3.740768103642287
Fe 5.340633489756244 9.095738731702408 8.664518555514391
Fe 9.943348515372076 6.815156681420017 7.8392796673432255
Fe 4.941150613414698 3.868389909745632 9.156581670806089
Fe 7.018870676907481 5.281311448808773 3.6128270673872884
Fe 3.605737557912362 5.724122122788365 5.268435324653413
Fe 7.740856822072866 6.6195958714304926 6.929944095904719
Fe 7.964271396387168 8.38657499176865 8.688035778181785
Fe 6.155535897844712 5.398033250915055 10.449187348262212
Fe 7.657782308550702 3.698122505168721 9.74604430321437
Fe 9.461143695126655 5.983041068531354 5.581763648922569
Fe 8.839440552014365 6.506779571270032 3.2495780135952144
