32
Energy = -219.42301531 eV
Fe 9.10985428193936 5.073044236557401 10.170097963859972
Fe 6.879472052882434 5.228977324725748 9.590219539259012
Fe 5.76655430994592 3.294834248238981 10.063302761787515
Fe 8.220480612037582 7.135769350790576 9.081795419408039
Fe 7.969461870574465 3.3146596471219225 8.815829060838848
Fe 5.79734176630004 7.240636569202309 8.45468439738948
Fe 9.158053051397415 5.239461362306651 7.874396170924209
Fe 4.602116794230348 5.149666545651936 8.83152422955095
Fe 6.904279628081653 5.458155152330765 7.209679728323853
Fe 7.144485336513841 9.172800335376985 7.9884165244222185
Fe 5.778319420810012 3.4342841816013245 7.778058389890037
Fe 7.81073085687847 3.5568123313582323 6.146176168870911
Fe 4.443231490214997 9.257037153506875 7.514465899275238
Fe 8.199560357062982 7.404622559926313 6.670822874060044
Fe 3.4367111944028705 7.077906808224831 7.6531420852680005
Fe 9.025520339099819 5.42394970084039 5.396573895182587
Fe 6.035805383691686 10.68586855287059 6.618169917842358
Fe 7.2066301529727 4.075926877565421 3.8016110874792752
Fe 6.763905124014653 6.076814104450573 4.870345360025546
Fe 5.522753876783364 3.6957296799868575 5.386676846226321
Fe 5.794197280431584 7.980214012273762 6.175789580087731
Fe 4.951420031006865 9.781268330436516 4.764680029219578
Fe 4.718492425131685 5.713443842712299 6.317913619184449
Fe 2.7732696768519967 5.9609152072638185 5.192179711226826
Fe 8.775997172481008 5.647802551277474 3.074428312795715
Fe 8.661310884619395 7.636623286926937 4.229540575934313
Fe 4.602151645636638 5.05163052157389 3.759111334457143
Fe 4.644904660856123 7.2934902943494135 4.050791537473717
Fe 7.659895569294538 9.564676386387465 5.488604807102582
Fe 3.2169460734779096 8.258180635322972 5.605702202632385
Fe 6.570415639509384 6.326415213651928 2.6184902703414283
Fe 6.633783155482502 8.529106124356579 3.660854054903609
