36
Energy = -248.80476139 eV
Fe 2.8073653484888212 5.372058493721763 7.696887898705662
Fe 2.542643679274946 4.285715944914765 5.342960301972759
Fe 4.809825356447857 4.030319086605623 8.840146581366348
Fe 3.3768777316260628 3.1034559168327194 7.157576358840153
Fe 3.208032167893475 8.041618272615736 7.917179056655715
Fe 4.808243442071832 6.337381550085931 8.562418658746653
Fe 2.624320208297227 6.656848289662211 5.6616946165035085
Fe 5.801485435292805 8.433328503463816 8.544632646569823
Fe 4.800042510018774 5.093225866569381 6.452049419008719
Fe 5.734515125916463 2.6439978118596543 6.917380891083442
Fe 6.809239495581099 4.475113346623242 7.78663334810063
Fe 4.513815291074328 3.1616054376561964 4.810106120065729
Fe 4.722748707683698 7.5953606854487585 6.2579141227911785
Fe 4.111149897355839 7.934478979097357 3.8543022126008912
Fe 8.357855304386813 3.177827349871719 6.89910500395997
Fe 6.692563202456884 4.123341668358749 5.177630073327119
Fe 4.341851808952271 5.550770280185487 4.166944948006758
Fe 2.8380474829222027 9.086990783249082 5.781623890378787
Fe 8.41585562210199 5.535088674173839 6.033138746078451
Fe 9.013444788863591 5.434581729908802 8.333234769150328
Fe 6.142452830899627 4.595497328488902 2.9830893816278823
Fe 4.935794448256737 9.864227792769947 4.857195850190096
Fe 6.753973311051011 6.003336601076077 9.530581061745774
Fe 4.616901093568482 9.94071795022647 7.270489601352756
Fe 9.259608531113114 4.010923838077325 4.549856502828873
Fe 5.862914734387324 6.893195868986355 2.5119646733506285
Fe 10.469773534320497 4.466200152166483 6.640615291846489
Fe 6.3879207624632395 6.635549237748194 4.8391160861746565
Fe 6.801166181572233 6.776254013313731 7.25503372402501
Fe 8.092701359945194 5.919306496501615 3.4791994152044534
Fe 6.704087347564054 8.703463856230622 3.8478634464148223
Fe 10.563061163309671 6.811558332451894 6.8532866489696485
Fe 10.34844260139705 6.09178116392916 4.60690786199439
Fe 6.781589984105652 9.06732764983421 6.330407494660108
Fe 8.637754013737526 7.751633541153126 5.359382174476011
Fe 8.683473011382432 7.805260635140373 7.826808637813422
