30
Energy = -199.16225372 eV
Fe 4.416200522072176 7.017037656947309 1.2562332632954272
Fe 5.554098800843831 4.730281184244825 2.061769522711422
Fe 6.624662589246669 7.086098288934297 2.2059890660450225
Fe 4.772838277804457 8.77307085921153 2.7606060870136737
Fe 2.656900482323879 7.658184521003668 3.0960771201724824
Fe 6.5751215688506175 2.934967927629984 4.121886851424708
Fe 4.496486455471304 6.363180575659649 3.4391616115734895
Fe 4.502526710466966 4.085417819918976 4.308970622520204
Fe 8.55117848493597 4.330902282062144 5.1181452106795255
Fe 6.358435910825814 7.94014536937827 4.397512109636288
Fe 8.692691054982783 6.782370291566344 4.192667094446607
Fe 3.807323840758217 8.12047225946489 5.087099184908725
Fe 6.77921683931456 5.432693052331287 3.9267017126789416
Fe 4.924849790160902 2.2365299139328303 6.041835492712915
Fe 2.7573150076075983 5.831940004116225 5.149256824098543
Fe 2.668771180054865 3.1543451187959133 5.603100806613307
Fe 5.181302226736708 6.306733554991742 5.691688791052119
Fe 7.3697397228862584 2.3552075032026627 6.5691683612359535
Fe 6.3718959106838735 4.265219885789337 6.034747127008308
Fe 4.144295869252927 4.540762031926224 6.73119185530669
Fe 9.648002029442086 6.098518028291023 6.348761622013544
Fe 7.490963479827947 6.469548359293921 6.2151342360749835
Fe 2.05414074218647 4.65635233351391 7.505343331255724
Fe 3.633917348545752 6.803441970204775 7.397102732460027
Fe 8.12945830985455 4.535543330710647 7.653338675627376
Fe 5.836975045942711 3.325414251194658 8.252570174234366
Fe 5.803256307171053 8.091912948943968 6.890769402548996
Fe 3.543093978644349 2.599377370312892 7.989748962621975
Fe 5.8927626153712955 5.807813093179673 8.025110493151766
Fe 3.912166363113111 4.8171056786261275 9.078899120256928
