34
Energy = -233.61986084 eV
Fe 11.03993499276611 3.281665158515336 7.495997328748117
Fe 4.640441474878472 10.975440707819056 7.493330050596264
Fe 5.059041967086805 6.328549922033901 8.648722639745056
Fe 9.286193026526405 10.079677183246279 11.270931568287345
Fe 7.859673824552168 9.428768598241506 8.636940359059352
Fe 8.908897582690336 3.7852543165364843 6.4963237623225565
Fe 6.947418834832122 7.032655209489712 9.692721869393319
Fe 10.481809915790777 9.130061280980067 9.47767558872093
Fe 5.314493228997703 8.78539665363327 8.62241312153586
Fe 9.476107831026011 11.258670511681707 8.803890416009931
Fe 6.38362542508241 11.884670109859428 5.804111478028674
Fe 4.948559757455822 7.927040931403881 10.670717219290458
Fe 8.85274824127978 5.512811536529444 9.928245908570423
Fe 10.234975695815951 9.455649596948286 7.215966805281374
Fe 10.95976066199276 4.269501922398875 9.639171282538806
Fe 10.428037656465223 7.308179111927178 5.921641586641523
Fe 6.275052739861383 9.65706074023319 6.5429051597370815
Fe 7.5259881390984 5.256943554632397 7.987752198929342
Fe 9.053045522008107 7.380663896343049 8.198780306113587
Fe 8.994942222845864 3.343627555638711 8.74374768662945
Fe 8.393135097145805 6.086404640996227 5.958326204972021
Fe 8.916343721746204 7.8216675036595 10.64097203427051
Fe 6.9019521326697735 11.70125564732717 8.13711900499461
Fe 7.4228209487951045 10.094262261713574 4.539230799358634
Fe 8.307882734298035 8.509662748089768 6.087708842413783
Fe 8.510673000559079 10.992703297779311 6.501226382478128
Fe 6.648642806559872 7.381076226569026 7.251641088668437
Fe 10.92679957011771 6.70869858775965 9.759300065530047
Fe 7.696190614919406 11.450178263758543 10.318747210227757
Fe 11.702849744124551 7.606770041636486 7.830871327012473
Fe 6.9297017531905345 9.225709009874626 10.892165923035163
Fe 10.235534555893736 5.44532472715148 7.636165013014194
Fe 9.856177524943286 9.727836423374235 4.893644021838039
Fe 5.496980695236176 10.752203194340076 9.841761868764513
