34
Energy = -233.89477862 eV
Fe 9.609421101544587 4.869133038528949 8.09807876774234
Fe 9.001584949786773 5.082195048103438 5.868129582947198
Fe 7.606123320223016 3.5985716400473784 7.525129330454803
Fe 7.526536963278885 3.3710224178306625 5.025671313321118
Fe 7.190286304966375 3.421016431521384 2.663215164756801
Fe 8.68098767324799 5.002805026735022 3.358312600549857
Fe 9.048413067595495 6.747450372516961 9.361342725797352
Fe 9.346855521538057 7.1972681151880336 6.96545936478587
Fe 8.829118325785288 7.187845684468549 4.491891102557306
Fe 5.627803693950583 4.321577342024869 6.3724865527678425
Fe 6.851247679794927 5.799303727584276 4.896701859807988
Fe 7.819471349199227 4.564625732807851 9.66934576217983
Fe 6.408269653591469 5.580784336349648 2.4512625056349098
Fe 5.29763090023276 3.9433975504942222 3.9623497646832626
Fe 6.7904893001293765 6.569666645702687 10.126665023700902
Fe 7.290461216698726 6.062470498750789 7.578201143613761
Fe 8.307912857127652 6.9342181793166695 2.092143275183571
Fe 6.668502663670377 7.738166002253824 3.663786296464241
Fe 3.4545122450439316 4.584989289985982 5.478566220386692
Fe 7.210120729473432 7.9313242681851595 5.930547639526753
Fe 7.5556161040157255 8.32398722775092 8.43034679871402
Fe 3.6919028550564077 3.6125220897533814 7.676803155382577
Fe 5.523304517133127 4.981366471570523 8.737318068626118
Fe 5.080330945027054 6.71907141667346 6.5054438931461265
Fe 5.215804995004917 7.6205584054750215 8.704018773730773
Fe 4.512445844758284 6.313397101607291 4.1060637138122305
Fe 1.7336256041352194 4.8531485713233184 7.007991045337593
Fe 4.849299020946821 8.586044616106735 4.9623436352399715
Fe 3.3952566995573594 6.038714289968763 7.98641673629455
Fe 5.658363026486402 9.295232719093702 7.089214630387893
Fe 2.6381978104522847 6.836039763617042 5.675834878431867
Fe 3.314853881739491 8.504041730164985 7.236518337534385
Fe 2.630602413402896 8.953064703721909 4.710849820057577
Fe 3.8032495604685495 10.433025436908522 6.086227220159583
