30
Energy = -205.02034671 eV
Fe 5.583689003481805 8.53243557179201 3.2365729134645336
Fe 6.603712347695588 6.012001537513047 3.301597408718132
Fe 5.358334897142004 4.141588660540307 4.623893661995985
Fe 4.6880652731942405 6.873146510174718 4.618976850613732
Fe 7.2754197884956255 10.126008553158576 4.643047890257772
Fe 9.041212571915253 6.327669977556021 4.690468980009443
Fe 8.014243924062725 4.230278734347928 4.270027362913684
Fe 5.085503741051376 9.324760496662641 5.4044510582792045
Fe 7.148618018933791 7.874426058492018 4.709156191388095
Fe 9.248508460508805 8.81540219922113 5.65351678998943
Fe 6.696524028033636 5.593143820049993 5.596384154838746
Fe 8.040260782821193 7.155759529246371 6.788536969861325
Fe 4.363989402538005 5.529957157364415 6.694970388618847
Fe 5.250979945378258 3.4515638817323313 6.99124075458574
Fe 5.77295850608133 7.46284517209066 6.7647106226281615
Fe 7.124053261748348 9.480497422971904 6.855128071439992
Fe 10.335119386672009 7.01815168711392 6.997554377988197
Fe 3.479183757900755 7.864861189784325 6.612194599676991
Fe 9.031983010678525 4.970473354950554 6.60945863692827
Fe 9.178045125143502 8.90066155989383 8.0864445898013
Fe 6.704403671458314 5.506153080999739 7.911437155066945
Fe 4.855126012630441 4.386239127606562 9.118329463010848
Fe 8.82176954920928 6.293803087681689 8.847349100661598
Fe 7.438965247513469 3.294389226550817 6.4140525397006565
Fe 4.553792855169133 6.769369359138722 8.792995489856336
Fe 7.100910693434454 3.584424131274197 8.856494587382906
Fe 7.0607484561610585 7.9635615253691885 8.848231270795111
Fe 4.898391142977567 9.15749431758079 8.149046665662429
Fe 6.498519631517731 5.9301311263263745 10.178739678545059
Fe 5.43380275879165 8.115637195155253 10.421827027659955
