39
Energy = -271.33761852 eV
Fe 2.4513163186415947 3.1537240054436455 5.111846773400938
Fe 2.2439319378342666 5.172993588879296 6.4123981807556865
Fe 2.7332342881198763 5.229361519936005 4.096337484943052
Fe 4.5722955245487515 3.503781156146668 4.244370019383982
Fe 3.9063869707392107 7.318384311811183 9.67262510877757
Fe 3.9633383139386864 3.173590451046587 6.80857601645017
Fe 2.6329193187465005 7.490794163932273 7.486500274695771
Fe 3.8294941448089883 5.452710283991166 8.082050194320347
Fe 3.687030202308444 6.996071141715749 5.417457781128591
Fe 4.959405857710663 5.161853595086334 5.957187257139072
Fe 5.013137640734285 8.351251714590651 3.769796976187644
Fe 4.892119583265697 5.9209538619044455 3.5269402027289964
Fe 5.242176978489577 7.304740775338918 7.461266889916764
Fe 6.758362876994774 2.7216270524998007 3.5429910051328766
Fe 3.8266702090077716 9.287685540723823 8.483064070916058
Fe 6.399511911336397 3.1010425577990253 5.939791472114897
Fe 5.901261013806727 5.913087902191266 9.367097424621187
Fe 5.775962002597899 3.9696561707945333 8.194176644571785
Fe 4.49444368562768 9.108578897389812 6.114647909489509
Fe 7.11576498608838 5.525938866220922 7.01516883814768
Fe 6.075160001454896 8.373207720199105 9.428220511909604
Fe 7.850247931833784 4.525585278798377 9.364073556426895
Fe 6.4573183012333475 7.213220960926854 5.183473327916613
Fe 8.407367489208383 2.1618176378311236 5.263961034602978
Fe 8.809783163118743 4.355479926867795 5.8244767229534125
Fe 5.912699208108002 10.124530126065835 7.84756420936704
Fe 6.59549376128966 9.906617154588318 5.3481711958346585
Fe 8.089609079718524 2.9894644731258406 7.584438625115829
Fe 7.114546924763355 9.266559456790329 3.184021041943554
Fe 7.043591990215252 6.886625404624687 2.7488000889799076
Fe 6.877258257181879 4.848594120878144 4.304822552916829
Fe 7.984343137325181 6.865940335004669 8.834282275448007
Fe 9.56904436690519 4.938469925310574 7.9663525271497795
Fe 7.325106251044235 8.443750706638271 7.117857104513768
Fe 8.707593347285478 3.9286185115257064 3.4545734995514215
Fe 8.962076173423888 6.838681772037149 6.480456817585991
Fe 8.725988702013565 8.767342100319922 5.053320400666802
Fe 9.085966630977794 8.064860365201733 2.8153966165591355
Fe 8.831278498086533 6.300510343686052 4.2613710878678965
