31
Energy = -211.48492718 eV
Fe 9.17935890497853 8.42045815770194 2.293774017056871
Fe 7.5215752088152215 10.230616620067936 9.713026990710055
Fe 10.79622619867181 7.3733503494235055 3.819512656989748
Fe 8.93161211572713 7.026088424235957 11.754203247402351
Fe 9.995720760179594 7.690221263863826 7.859834080781546
Fe 7.570242963469191 7.5286950766391305 9.049479774017927
Fe 5.580051857598845 6.856990135885018 7.387107426095643
Fe 8.60247749292364 6.52254695627851 3.765054241937332
Fe 7.510703968577482 8.776031884908866 11.583523670013607
Fe 9.830499236038342 8.919137816739555 5.516076518513188
Fe 8.776705498996675 10.318733017848762 3.6925297901130874
Fe 8.63628835658184 5.514534749404648 7.906753204549651
Fe 7.5772160129561135 10.087554104909973 5.782997653162935
Fe 6.354623965199018 6.344055977542386 4.899714996434588
Fe 10.884201198393821 9.582871841485124 3.134136746882089
Fe 10.08625986341682 6.421966445736193 9.801722711918032
Fe 6.3346900226382195 5.286710886521035 9.217014556446868
Fe 8.243404615720351 5.159171477105973 10.567248855053261
Fe 4.247199698363993 8.708505466629122 8.118355401838667
Fe 4.572909941647144 6.776712143842142 9.617680603864361
Fe 6.443965393292521 4.769980088264871 6.887271901232616
Fe 5.538786410567628 8.830326936111003 10.15966544523226
Fe 7.2815253078496305 8.475761680839678 3.9825539191922235
Fe 6.423741858505888 6.673709357297524 11.255763630113018
Fe 6.403876979790666 9.434874637647763 7.7819364431628575
Fe 5.572420744268939 8.5936707726568 5.725577153890152
Fe 7.851253161665893 7.592903398734149 6.531188859957769
Fe 9.525503578082759 8.860117534545514 10.0598593837267
Fe 10.01706769036124 6.378411481664659 5.885867958953539
Fe 8.829497471533326 9.673978342477623 7.798015548725097
Fe 8.199596654794162 4.931861828683003 5.453574987700016
