30
Energy = -202.77068375 eV
Fe 3.4544925700117486 9.156493786839091 8.871645498507869
Fe 7.580791416252212 4.858086023893005 8.661902289591518
Fe 8.603926021730388 8.848024977745897 4.011284295077403
Fe 7.6341778680305215 2.8303903886894988 7.309650991905078
Fe 6.240630556906929 4.657738731619542 2.6472480770082103
Fe 4.449774831867711 4.873136901813201 4.4450661273155205
Fe 4.87124006739168 2.8656532590152968 3.3544831150580503
Fe 8.189219020776003 4.705217558690381 6.048932505922303
Fe 4.882255472340595 7.665840785338692 10.112079704873054
Fe 7.68476368890386 6.890556026685513 2.9368812449894177
Fe 4.2976352691781186 3.001092647294284 5.754565906624958
Fe 8.31193907330622 4.633351127990334 3.704694260275223
Fe 9.626196565385259 4.284878021694075 7.669906036115991
Fe 6.6905557476313575 6.512202299196973 6.9607473989659825
Fe 3.058098227817322 6.826713604468797 4.573027889102348
Fe 5.861034108576582 4.283937711789037 6.842026420628942
Fe 4.067483672324915 5.823369061451544 6.753540051399859
Fe 5.150451610408337 8.086114582354474 7.787398921204064
Fe 3.0523028398584713 6.847943666332875 8.800118185775078
Fe 8.943792935972777 6.630435786277999 7.449029057187419
Fe 7.395030761738028 8.496174744342932 6.0158682283463145
Fe 5.122239266531738 6.826756340787847 3.111302324823392
Fe 6.538374907966716 5.97053638983696 4.749014619715067
Fe 6.294969818422691 8.776225438580786 3.9645966116162645
Fe 4.9555255778643446 7.575290450967908 5.450008494778449
Fe 2.973818111276477 8.06976315767808 6.769118181682856
Fe 5.240907023165571 5.673361826965851 8.872774102217628
Fe 6.635786506553466 3.252802642387118 4.7897277854135005
Fe 8.817752930209199 6.730189098333407 4.944680046584519
Fe 7.071867269088947 7.3286158037654205 9.104416469082201
