32
Energy = -220.50798961 eV
Fe 10.320788583925664 7.323660672277426 11.890008055524715
Fe 6.377021014268757 7.07613019248044 10.35773100234645
Fe 8.171778520051374 9.220896483680573 7.767124676591806
Fe 8.262781713269868 8.834218613677018 11.63327111273831
Fe 8.48435394702613 6.246040324946798 5.874616095946018
Fe 8.869518571722187 7.647504817433937 9.785866076050361
Fe 7.825700455606913 5.11873267036519 9.894451264375075
Fe 10.085266491087443 5.404448366415339 10.638730617649125
Fe 4.481552552182685 6.391872036451749 4.598180859277672
Fe 5.382313212509979 7.777800630683967 8.08123012780708
Fe 5.811436631303229 10.034021674475687 4.93153501790435
Fe 6.706556382100857 9.234099440826352 9.678871605737369
Fe 7.885454306205801 8.37801180962241 3.904307170340319
Fe 9.600979325526792 8.519442875327714 5.650967043853649
Fe 9.753779944529402 7.382426506708757 7.516976765280322
Fe 6.84073016371549 6.155041564700113 4.134286854781924
Fe 5.551678222448476 8.16235053396197 3.6082617464525635
Fe 9.57874260110651 5.305974068462936 8.264096056233928
Fe 5.959521232061406 9.981775898570683 7.298464182305179
Fe 10.565187405235603 9.360659327601052 8.329724736042587
Fe 11.011839333740559 11.291514301965565 9.56918614954514
Fe 6.93564670150233 8.070359981353462 5.940734587467429
Fe 8.060790521094914 10.254319140658371 5.6689526240450006
Fe 8.83639427112816 10.40461787806017 9.754415475253586
Fe 5.703636368655183 5.330804199231192 8.772165889588667
Fe 4.437183481381174 8.34387394095023 5.941732282501945
Fe 5.8514491961615915 6.0330626253373945 6.40762106822152
Fe 8.127238696748751 6.449102806192145 11.88740368196878
Fe 10.712950814377189 9.308858658086653 10.732153152699208
Fe 7.509118480064802 4.499319333335681 7.374938390910624
Fe 11.18863474897451 7.161769699238074 9.483717788983745
Fe 7.497242272017506 6.824492190330142 8.06973099659412
