33
Energy = -228.82753546 eV
Fe 8.401186642325001 7.354026249811276 4.301171842068474
Fe 6.887440612831168 5.780790543163006 3.0291768419178
Fe 6.023434352288774 7.65384296884794 4.2454509472260895
Fe 8.89980071761234 4.9400147890996635 3.982698304758297
Fe 4.695871268217988 6.501167152492775 2.3718947735407108
Fe 5.449799254020223 9.393281689661586 5.893448606070731
Fe 9.557999063037071 6.23335015757248 5.953249790055949
Fe 7.702426548053286 9.538867179820018 5.176246401735847
Fe 4.933644301036585 4.083109693713038 2.5715563509613344
Fe 6.859989758115364 3.693375367890486 4.095455686647442
Fe 9.27446235833433 8.480632857099486 6.953235621922019
Fe 3.5800571039920275 7.48182504649495 4.218081570131814
Fe 7.221021829225799 7.663007076711755 6.532904591440004
Fe 4.827344741493267 5.320011826199954 4.524070409056549
Fe 7.286100768831184 9.926658509527527 7.520912765598493
Fe 8.574410516714165 3.919215748705741 6.171623783184934
Fe 7.861497359606019 8.024746031763202 8.894312000989775
Fe 5.446471312441203 8.564052286300843 8.160067403058513
Fe 4.845036735532783 7.063896240699922 6.309973564744351
Fe 6.96762828787454 5.489660010726065 5.6822869632078925
Fe 8.516762320563656 5.89557891885009 7.943087367573552
Fe 2.830268409778215 5.19113395555262 3.476677530366761
Fe 4.712115259399355 2.7910288821116414 4.75185289099335
Fe 4.82635133009869 4.653912220678666 6.7989993121525005
Fe 6.175203454759675 6.255412978004116 8.30243761205495
Fe 2.6938660211963006 6.034930413257256 6.035741355327625
Fe 6.31783746919796 2.6058985204569374 6.182743483434911
Fe 3.750379578952912 6.450229389113308 8.359255084790648
Fe 6.918342047403313 4.030213743209892 7.949107984685421
Fe 2.749233947792243 3.820358199870516 5.522350637697264
Fe 4.7670799175044385 4.2749595536094915 9.089476451059838
Fe 2.571657247019875 4.455677827755835 7.892282413157855
Fe 4.053019182279195 2.590145555963614 7.309196981064571
