39
Energy = -270.94812091 eV
Fe 9.657362867381877 7.950254517948349 7.2113608687285575
Fe 8.388029462416954 7.659014221860126 9.264618315502423
Fe 9.545947233444272 5.835423021173035 8.237922604593232
Fe 7.474675443573881 8.93198464635544 7.3933984616071635
Fe 10.67900866349025 4.649739957693138 6.475954451088633
Fe 5.495970751373173 10.076713040969262 8.230339084485234
Fe 6.133559285939022 7.960748703720915 9.11778568506456
Fe 9.00313445457493 6.2625571409738 5.737135890566004
Fe 7.205295491441625 5.566617331512371 9.309777596842416
Fe 8.335305544758738 4.270296320733097 7.11174281854609
Fe 8.60292781720051 8.599101954508095 5.166552928356796
Fe 7.129160290966933 6.550093900610161 7.1805640226984115
Fe 6.584595278263535 10.039469084051213 5.642962887414029
Fe 9.643051781633833 2.5555790769928426 6.242666460870628
Fe 5.180854401503542 6.458564329228945 10.553701625508111
Fe 9.504348670731089 4.394119579247296 4.447639119964143
Fe 6.994422415190401 4.761702251914069 5.127186610967974
Fe 3.8254019494088083 8.165378687081787 9.151114010267872
Fe 4.614112778619407 11.062049802823008 6.338082351407199
Fe 4.870414827880265 6.090045674109683 8.358043106609497
Fe 8.303669405579214 2.449460727533326 4.298095878622715
Fe 5.006314478179162 8.242473967242391 6.721041261631406
Fe 3.1188226242237636 9.539907409981245 7.28701191701107
Fe 7.756007175275883 4.365988424851227 2.7172653043962662
Fe 6.038313099668761 4.197215804229269 7.56690418112613
Fe 8.226446475599806 6.51091057586337 3.540969246006536
Fe 4.9903678540840675 5.72794841880122 5.978665306575959
Fe 6.576961780514154 7.488836798032273 4.983143710892699
Fe 4.457655363783782 9.407649811089328 4.725265218394771
Fe 7.096941350720521 2.3859121663319747 6.254838356631854
Fe 2.9659995225363236 6.93331722400739 7.186122460819451
Fe 6.082006535648251 3.025361951477369 3.732853907425148
Fe 5.8949203017644125 5.788898376020314 3.2507440920400543
Fe 3.432192939943238 4.452606314789023 7.201626356935148
Fe 4.087236645642346 7.0648362140409615 4.414755658938766
Fe 2.4267588917527636 8.306752076913574 5.385000373510736
Fe 4.921606487283944 3.063680112365485 5.79041561440161
Fe 4.191363359462291 4.472696923469875 4.144692399780202
Fe 2.4101525889339297 5.587409749843245 5.373356144158698
