35
Energy = -239.80104573 eV
Fe 8.682150294800236 0.8292043548476575 10.132982473381617
Fe 6.9061153763515195 9.15172671848731 3.8217189025858485
Fe 8.720983993975095 10.796290937991643 6.997058738155637
Fe 6.904408758690125 9.140729137575935 6.469687719579381
Fe 7.298402232805561 4.910649869868034 5.438869234193201
Fe 4.830814409956429 9.509035259362456 4.84778091057056
Fe 10.01830186954773 2.298571685911058 8.919514471846881
Fe 8.891964482522157 9.73548353471755 4.927631556240443
Fe 8.197308910442919 7.248541226439801 4.637651566911308
Fe 9.51047996553923 4.7086424479535465 8.976600093950125
Fe 9.222088858142465 6.902858913113289 10.663601778466008
Fe 6.71184771424335 11.199314600165435 5.469566912014491
Fe 9.288152206483833 5.671791562381746 6.526179722179654
Fe 9.231072199306679 8.084283054414323 6.619130197859259
Fe 5.54469241636002 8.918770805389265 8.71429790800865
Fe 7.751478975560306 2.8675982525261507 9.312262511250799
Fe 10.47074870362594 7.151349110841077 8.484378335920441
Fe 8.106780271258863 8.913647045633596 8.63756554338047
Fe 5.057818866862177 5.530793867701314 6.41781478148167
Fe 10.552477265622391 9.63942103865144 7.867328480347345
Fe 6.807653638573463 4.582746192869459 7.855717404007673
Fe 4.575038839345575 7.928067030432957 6.719523434923522
Fe 8.719988670638768 3.3844710958275517 7.067173195682115
Fe 10.514056209627142 8.947349548936145 10.107211885204363
Fe 6.780009386426475 10.260366947963458 10.31974490418276
Fe 9.033827953216582 10.951403703210232 9.50172773205585
Fe 5.518726322555071 6.4472981762915476 8.732554323825823
Fe 7.282983230267501 5.152922743803622 10.218951356879817
Fe 6.845553465061299 7.653952879888578 10.485132805808455
Fe 8.174203679228325 6.549037074901425 8.553996810798246
Fe 6.924918469613357 6.864909558260287 6.715580628268493
Fe 8.57422672054546 9.174996435926658 11.357612627834765
Fe 4.799674965928466 10.466458205405536 6.986336976459345
Fe 5.691145211352557 7.18316270857199 4.641906347380842
Fe 6.752979136103723 11.126802543934021 8.134976897189459
