38
Energy = -265.28434688 eV
Fe 6.609421264156163 2.662366406525161 1.595370028829335
Fe 3.0572738814959113 6.251605260242133 1.3917377447000685
Fe 4.565296912554417 2.3796274427113246 2.6619281267460693
Fe 3.6391284936848445 3.3678265852577054 0.7535642734635132
Fe 5.277522629077169 4.835480371151497 2.117107463636079
Fe 1.0914420866512375 4.171203550772023 1.4058644945986736
Fe 6.5760043582426055 1.1065737244001639 3.5486532650611577
Fe 1.3355832917466763 6.238699424334827 3.124567999493797
Fe 2.0705060696899293 1.9729639691199428 2.1834066261934737
Fe 5.489880427095326 7.397132269510526 2.466355136807625
Fe 7.79972128844419 5.068441880634557 2.635443693480504
Fe 8.648639430313848 2.64259241785302 3.2616895355797197
Fe 6.558849176493393 3.516895305443138 3.7223495341794774
Fe 3.8637529426019825 6.315286004917857 3.60047991599153
Fe 2.879327316138595 4.288246287379148 2.709540566313796
Fe 2.9177124926404656 8.293109342207806 3.1453267997278416
Fe 3.604014122983368 0.5236173849878017 3.81278460363804
Fe 0.6155007006657705 3.6242763954458854 3.6766805021344386
Fe 6.291691295839514 5.9948828655666455 4.221161833793974
Fe 4.375367291510371 5.921069082429285 5.9311889238615585
Fe 2.852461055677649 2.646688527852081 4.519488526001114
Fe 1.120842059711897 1.285646412700341 4.324281819995386
Fe 4.90909916038434 8.136919769369376 4.8408057732878875
Fe 2.174302773867354 5.02218733668319 5.049693232388638
Fe 2.3992595598288626 7.470494641630196 5.338099124089869
Fe 8.282148805412605 4.6010486472261105 4.984597469151802
Fe 4.533858307142519 4.198405862202584 4.384693795253597
Fe 7.559163071122423 2.241087653986542 5.540538846964062
Fe 4.11240542157433 7.750055190646715 7.153654118404605
Fe 5.128831482284891 1.984037499511457 5.220676919064907
Fe 1.2496047848051588 3.143854972683361 6.173376348087933
Fe 6.208531710935779 4.188760983336075 6.177555547006515
Fe 3.1240463475253284 1.2061490115438027 6.341706035568056
Fe 6.5294979786166 6.7554909349930305 6.445039771554171
Fe 3.6424624549375775 3.616759090170144 6.709055220677492
Fe 2.447562809363511 5.696231656858658 7.31372489857653
Fe 5.4764245924102 2.364886827563315 7.517081347553087
Fe 5.004229863485594 5.14076672126392 8.02209784925467
