30
Energy = -203.95320576 eV
Fe 6.7323904153232705 8.58551542474437 3.4579148078903583
Fe 8.4099172154168 10.1738606843129 4.0066013902427695
Fe 4.320007054781118 6.07471952410548 4.0588403604970305
Fe 8.824732497693724 7.5666293965238305 4.009750399655624
Fe 5.799784649458732 4.204659593852395 4.200569115642874
Fe 8.302889770200661 5.214948150479075 3.8637461771936055
Fe 4.454342368538782 2.2801758023310343 4.466013370757072
Fe 6.02941399095903 10.126950454611295 5.246213700566877
Fe 3.4021498888585824 4.33097147556173 5.203047433983459
Fe 6.658839520264666 6.559425690838272 4.6249060909388655
Fe 4.8592476048108235 8.090570495932798 4.695184328277121
Fe 6.8800082521485955 2.2628889395023903 5.229247650814399
Fe 3.5363808687925276 6.842133243043708 6.453637494260562
Fe 7.530851269530925 4.406716587802587 5.910393863523193
Fe 7.8418658487322634 8.799232397977585 5.745704724976381
Fe 8.479654517494616 6.580055668495983 6.315252363691416
Fe 5.113792361987633 3.051280832244088 6.5190890503056025
Fe 5.3842729007077805 5.463919853828345 6.439388226546906
Fe 9.156036667514249 4.505954334231815 7.618264845518915
Fe 4.093137705126734 9.426292470549868 6.369144042992376
Fe 3.34887661177588 4.505500419227871 7.5320724636971885
Fe 5.965215086202052 7.89349105678335 6.9144523976178425
Fe 7.205551554233987 3.0552702879710587 7.8139652317869155
Fe 9.101069488048902 6.542362316247698 8.824816515978313
Fe 4.177669323917043 8.473999565620318 8.471263721039133
Fe 7.0659940776529435 5.682806565948292 8.203470557636425
Fe 8.080948982214998 8.459415213561943 8.023798352263512
Fe 4.641657130569125 6.256244029444744 8.66336978157542
Fe 5.362875346565638 4.02049323909843 8.835967202425707
Fe 6.3612175413323655 7.68430679598147 9.404704848558962
