35
Energy = -237.89919193 eV
Fe 4.178574747251667 6.172907221973112 7.286629694789918
Fe 3.1303358971912147 8.12418793681537 8.278690182591511
Fe 9.256254598016112 7.942015725260858 5.660275872346606
Fe 8.753171402350292 9.442698431843095 7.673662548787653
Fe 9.735554350993729 7.30967597266503 7.85574872359475
Fe 8.668582082948426 5.364750206990133 8.435052178842527
Fe 5.582776858854498 6.941260118479643 5.465372554764034
Fe 10.430270929749389 11.189479127753916 7.538093367463238
Fe 6.256906509734359 5.65532806477331 8.537288152938089
Fe 11.204768918106549 9.071456469003376 6.992384435359981
Fe 3.3366247802993865 7.783941241458778 5.8767848236407705
Fe 7.521312240660905 3.9147031651000677 7.127018360319133
Fe 7.764894110954816 5.897266768546518 5.998068146326545
Fe 7.933742299039877 9.663556164453842 10.578193402636412
Fe 5.410449390637796 8.081372945873346 9.049978656781821
Fe 12.07577919260766 10.15074941538348 8.907997013670387
Fe 6.092500036237562 6.991699332937904 10.898257948996337
Fe 5.575356449839919 4.672439803279631 6.153184913727061
Fe 10.04217627672731 6.566203417394308 10.201985080086088
Fe 5.742717650801992 11.172574227944057 6.608823956407894
Fe 11.969664376863717 7.644506083772656 9.007074666785106
Fe 5.023397763146012 8.93867989338448 6.930820235024446
Fe 7.105862576740598 7.665317415660057 7.30072045528247
Fe 4.138189385440129 6.225278534700774 9.612616071367706
Fe 10.075496540008828 5.44766080083299 6.3602311480181575
Fe 7.064293030647077 9.489772815488541 5.69673382066581
Fe 10.145604929991826 9.094010018824719 9.567896665281065
Fe 6.690769376011764 10.057479980305699 8.514719179295112
Fe 7.902062009572654 7.65614604313089 9.573606490263671
Fe 8.030534399671021 11.603633978688393 6.9866621264843385
Fe 9.32810500458647 10.277680476089937 5.468233000582801
Fe 11.133979528051867 5.318390473649372 8.542078006339779
Fe 8.807709841206607 11.37349103714053 9.279451046965542
Fe 11.990406548213707 6.833493740544907 6.800969315495447
Fe 7.70973170876849 5.40250607985116 10.487525120285381
