36
Energy = -249.76990091 eV
Fe 2.7241002814419977 7.07404600315721 4.82749707422424
Fe 3.0871884401344105 4.473059170060874 5.374163419733076
Fe 2.949568769862507 9.332452226891636 4.362751488690016
Fe 4.207615697433416 2.5327173216906655 5.961890612534995
Fe 4.473098416691121 8.099233153085637 3.1766354262463685
Fe 4.566638556627085 5.820236458064501 3.9784404922324104
Fe 4.57059751295095 3.4361312920947804 3.6869216163808805
Fe 3.753669964781003 6.299853290302486 6.889567779509715
Fe 4.424263903304494 1.008747464109825 4.159698894941909
Fe 4.274509686603634 4.078091776953176 7.704573458983315
Fe 3.2977480693556496 8.725800975107012 6.602419836239201
Fe 5.488119982151394 7.466638284609116 5.522025587494879
Fe 5.7312660757965315 4.683496419567422 5.736345598447413
Fe 4.121519526350429 5.628914126517001 9.507288967125918
Fe 5.0561582464580646 9.835347680055262 5.180775483506932
Fe 6.376718303176765 2.8460255037048543 7.202893708586501
Fe 6.7393441587061576 6.8295456311626435 3.478648502268776
Fe 3.8506600430027023 7.809821670972501 8.8481623771684
Fe 5.9390589648849 6.0832137819563945 7.738482159022173
Fe 6.555109701039258 9.181789994902246 3.487730026639653
Fe 7.972878566712891 5.924418886445137 9.573809994426346
Fe 7.748000505735652 6.212962564426049 5.680431390832978
Fe 6.32044182749044 2.305584195064785 4.87065627437126
Fe 5.549353262673674 8.686208047185213 7.518391164313731
Fe 7.753665759394512 7.582013120219657 7.759871084176069
Fe 6.164993730408637 4.352396284857544 9.330636989858228
Fe 6.810727331045212 4.403518080635883 3.5587816357812407
Fe 6.009867163076849 7.215678757389157 9.7610366760294
Fe 8.778227055922732 7.932443151825718 3.7266418069658185
Fe 8.206122526354362 3.6311428420406364 5.404188365136854
Fe 9.716357086565015 7.522384195816889 5.818986225084479
Fe 7.980201660749547 4.669827999356593 7.53834743363074
Fe 9.033320211861284 5.524597789676035 3.8524372861591085
Fe 7.511795311245341 8.80919828792269 5.6259565268698015
Fe 10.041705001115066 5.028354091872578 5.988340268746381
Fe 9.724215313230212 6.329477909589835 7.875895711606812
