37
Energy = -253.49355631 eV
Fe 4.193851172966942 4.867713974376865 0.48301760198371263
Fe 3.935109012194631 2.1877394594472905 0.6344277142974772
Fe 1.996634082614306 3.8754009684954505 1.103154506361568
Fe 6.263393350622891 3.468218536891891 1.60255874534615
Fe 3.0490786207744027 5.925889673264461 2.316079638841568
Fe 5.593638017595423 5.642817834076909 2.5375514423271666
Fe 4.079566225362743 3.5985060451867628 2.3495384263900223
Fe 0.6540442105703174 5.46198430990077 2.5758250664292133
Fe 2.4373915637648653 1.739897581103953 2.5031698669189524
Fe 0.2729731340801233 2.9973957064922563 2.5767950788811196
Fe 5.084551266551887 1.417187642564891 2.8415290415679717
Fe 6.981981017626343 7.32656225792714 3.7037609593851424
Fe 7.8563636494117395 4.950517224391326 3.484968493805296
Fe 2.098586860719302 4.002745588320705 3.6271071137887065
Fe 4.482053546985127 7.330659542459354 4.193515526028492
Fe 7.825705497042247 2.1909308339429283 3.9032560230063145
Fe 5.962009012374354 3.4211584050569206 3.9050043376229606
Fe 4.062315437162229 4.891050967632171 4.3136016211700134
Fe 5.986040284815438 1.5381729268011013 5.441419722096728
Fe 6.095414087079335 5.602058404304893 5.044891992227836
Fe 7.610301778252974 3.8456408889529334 5.801824201994725
Fe 2.117287613756395 6.325075402904787 4.708215738416236
Fe 1.1419406371650516 2.2441804136628836 4.714742670089951
Fe 8.168083941360305 1.6772889232849693 6.250171575897995
Fe 8.17428143439656 6.295139817799194 5.643723486793673
Fe 4.999472391761453 3.6254593237927257 6.194290109070736
Fe 0.3824503908755277 4.672417805393679 4.941805025864913
Fe 5.948706323585452 7.671256539947231 6.155290645385707
Fe 1.899425243429857 6.191812328914083 6.979272178920218
Fe 2.6052921862537324 3.9466048024406084 6.076023783290711
Fe 3.714759334475093 2.336849810085118 4.537502841237199
Fe 3.3891324699805434 8.103780377305773 6.1877635297266185
Fe 4.069724251129797 5.928091977596325 6.417227865200995
Fe 6.431191586553479 5.4380204780412935 7.440542811761638
Fe 6.529482477783832 2.797767283059093 7.668244207124867
Fe 4.795095662875781 7.180108731406773 8.169794649390209
Fe 4.402695131575413 4.573920118299671 8.262414666882744
