35
Energy = -240.96358629 eV
Fe 3.089787422944721 7.635879713846661 9.548067601754493
Fe 11.519379079977465 6.894015089303982 9.030431601545493
Fe 3.385696907027473 5.400120538866768 8.828943770988703
Fe 5.513579123078932 4.614533517279322 9.099076621992673
Fe 10.828783795040195 7.7501949391875815 5.268701406916353
Fe 6.900294735860136 8.004468249215481 10.374553552606065
Fe 9.344413606004517 5.738959110583248 8.330151304017619
Fe 7.731333230891143 7.712300343987468 7.961401136991081
Fe 8.283542988397908 10.24061631928606 7.302704056928416
Fe 9.311129025224323 7.317224579469582 10.105984574231218
Fe 2.8085801336574425 7.0458165731501445 7.2841146220209145
Fe 7.370076567428439 5.827253548667005 9.753351538357952
Fe 10.087866170501913 8.199333284829702 7.6828260462053475
Fe 4.756823237473559 9.045560597993347 10.457635346910703
Fe 5.360960831760087 7.247440241185795 8.313094914420814
Fe 4.626903932716368 5.530559321123782 6.761666636571633
Fe 6.845839660154327 10.248976208802725 10.97465342663147
Fe 12.722529604147578 7.412388448153704 7.008589283140467
Fe 8.446078450516353 8.602274969724522 5.581751594166083
Fe 11.071856756903186 5.850713515548369 6.694273704617238
Fe 10.408985108100952 10.737460831205244 8.402061331881976
Fe 4.319689955202992 8.045405765517957 5.900104192654396
Fe 3.9863770137380348 9.21462395882647 7.961378317794407
Fe 11.026384388344916 9.055930363791525 9.979453120865882
Fe 6.446905033189511 6.96397529879686 5.83159260417633
Fe 6.302084650897489 9.720523148354355 8.768385429141462
Fe 8.856392472459273 6.383409730198187 6.071127832699714
Fe 12.117886077034692 11.513655083375237 6.757664682905217
Fe 12.319298106623863 9.44491423522318 7.980566386861612
Fe 8.651322055033903 9.499915231642598 9.531173311398373
Fe 7.026046583883421 5.281040649212233 7.389655247299828
Fe 6.208830052289735 9.226768504023172 6.517931925324432
Fe 12.603371017472202 9.304931577537252 5.6197594228639325
Fe 10.460956375794849 10.00072730489979 6.094879881664123
Fe 4.940146902971466 6.43690114336973 10.547329404253368
