36
Energy = -246.43570707 eV
Fe 2.9207309656343545 6.436968691261732 4.553428788791769
Fe 7.643072200288565 3.2293285190759113 4.050204493019924
Fe 6.827500337416868 5.891312847775763 5.5025064198728275
Fe 1.9989110649661157 5.209509040481347 6.292088021589451
Fe 6.217046177184336 9.559048091821207 8.47380912154628
Fe 4.50361529513847 5.510704664978867 6.393148162963503
Fe 8.098032538661407 6.376700067186381 7.478085804572702
Fe 5.835250386587796 7.208710548867265 7.655321704943532
Fe 10.380710637505894 5.334397929676358 6.426094827449192
Fe 3.9275836332256655 3.5665390679726006 7.4072389443183715
Fe 7.310105834722926 10.608927749009545 6.637240048984631
Fe 9.539543502463532 9.640784158891718 6.3386005921735125
Fe 7.2822022047313135 5.3190080368056645 9.690559690066403
Fe 5.7974273155885925 3.5763518476450047 5.5475558569377
Fe 8.237402999599947 9.538120923665945 4.4007318285821455
Fe 3.4388532826640312 3.8955290756273473 4.863920996449731
Fe 7.520814728662447 7.305222077124864 3.8003998082075388
Fe 5.234817622525857 3.1734650456214575 3.305400535059355
Fe 3.319927500489296 7.416245943529486 7.084258321459967
Fe 5.046381204049377 5.395337044463406 3.9337270404302025
Fe 7.0707050809468575 8.410176025360807 6.022321454653612
Fe 9.22049766502229 6.886969159631932 9.688815058039639
Fe 2.663201575351579 5.352287916564093 8.402692385987912
Fe 7.109945283971529 4.981757846127602 2.9754351534408707
Fe 6.423003976593194 4.481494847182901 7.685300888388011
Fe 9.340358970681262 4.750697964753619 8.506763050868068
Fe 10.404215825555386 7.299714522193326 7.699399478961924
Fe 4.823965570881468 5.631379747268748 8.996866782863172
Fe 8.300081218647799 4.033220023562803 6.259542343538504
Fe 4.865074006796139 9.407799691906948 6.581955388030688
Fe 5.021395475808248 7.551277992878911 5.059817989349965
Fe 6.86972523766528 7.556101924742331 9.738398106450084
Fe 2.9089131498423617 8.752815878779185 5.248625038057933
Fe 9.067410950393862 5.348660077398984 4.467273989169912
Fe 8.360157982548698 8.656396952771175 8.122672695352621
Fe 9.215706206916426 7.438249557542485 5.565999311336794
