33
Energy = -227.15697712 eV
Fe 2.407974848142805 5.264889799743761 5.556936035440268
Fe 3.4733509407296785 3.4890734336009723 4.626010838255275
Fe 2.930333891910894 5.160419799834827 2.8795165356459878
Fe 3.1142892212382494 3.467265338379168 7.063029122158558
Fe 2.1672928106735454 7.075347998692195 4.001436039756479
Fe 3.2560740450623755 5.689266460473828 7.9353979845853875
Fe 3.7228888040889454 7.599944344612524 2.3837694929481352
Fe 2.920321661737405 7.428216422418002 6.272245666384756
Fe 5.1001408547248355 3.870859255114504 8.330370214989504
Fe 5.047646758600936 5.728303929525417 1.8885508400518136
Fe 4.910422092773089 4.982782037076325 6.2891220079297465
Fe 5.431713101946798 3.970246858091839 3.5584000880642614
Fe 5.308897628869538 2.695030896052737 6.000394233996492
Fe 4.550306016854279 6.077755135441095 4.27733514215827
Fe 5.4611682212097445 6.280214421176115 8.822320862805292
Fe 4.255719478097749 8.463311013463032 4.664358421580679
Fe 7.239397126259015 3.029411453490573 7.62663216533841
Fe 6.8676462864137955 4.446308371196787 9.718411637916425
Fe 5.086392179346594 7.30206088269015 6.724214445440527
Fe 7.091408918361356 4.131308369143727 5.276691432549116
Fe 6.009573453263336 7.856679047954438 3.133440673588333
Fe 6.687188623369098 6.722891491196722 5.263714741225954
Fe 6.608218195613468 9.025459372959979 5.323589228109348
Fe 7.125002505887073 5.424984682865015 7.278642827309876
Fe 7.096835944227483 5.68096973903951 3.190898998959419
Fe 8.308704797985113 7.810997621697161 3.646688814609372
Fe 7.128900855975714 7.9554205179923025 7.585872905383043
Fe 7.861857646277443 6.6118038764384 9.38817958213507
Fe 8.989824446002453 4.458974793372388 8.736751702650857
Fe 9.188205696896146 3.961661889347183 6.477189678663579
Fe 8.736064019678352 8.285437057400605 5.866396512386255
Fe 8.822086157545266 5.879651659615058 5.119898494990132
Fe 9.259495585321527 6.431005268157347 7.437328504840513
