38
Energy = -262.9540057 eV
Fe 8.119454651358279 9.434669647054683 6.318875647012798
Fe 5.1937324054148455 9.205626094563305 3.418430997518724
Fe 7.563633623284357 8.982865211430072 3.8646171917619894
Fe 9.472254624177598 8.00066593853354 4.9828691306937145
Fe 5.776276722457425 9.970817141962463 5.604869202575506
Fe 7.341136826161821 8.20445756060848 8.230276471804977
Fe 5.981025648412221 7.005536110459394 3.242654661562752
Fe 4.06338423963541 7.937887502187136 5.050592427756293
Fe 3.6653512566396245 7.2363818396524495 2.876595914156705
Fe 9.652548642985996 8.11318726163468 7.692964644862788
Fe 8.246946060247959 6.353812517484234 3.8227788008042576
Fe 4.933383379777365 8.43972597062697 7.296708032092905
Fe 6.491459844049619 7.687390108846001 5.537857602621988
Fe 9.652038153420134 5.0792364390182785 5.3712054236650575
Fe 5.413275445211533 9.026714960148704 9.518055337230702
Fe 8.434551295848152 6.644153886947248 6.51869716411324
Fe 2.4596750667089626 6.062628942046236 4.938721306322447
Fe 6.442017213202502 10.352082221930711 7.910209865561933
Fe 6.643420070103194 4.717904823308082 2.881366193558554
Fe 4.459950143836053 5.2671859846793465 4.005073222084499
Fe 6.731841964291077 5.275407117619299 5.245368993950889
Fe 9.345625938131075 2.7117122139719427 6.349105114674241
Fe 2.7986373993676184 7.243021481873718 7.278049401027671
Fe 5.669712023195044 3.1389520432443745 4.500563767441895
Fe 8.037632495669692 4.326014834763596 7.14265224829899
Fe 4.480337394798207 5.983731682287089 6.3870554832880915
Fe 6.340050359441626 6.089378934184277 7.625226423926409
Fe 6.656299336778306 6.906882078935538 10.148480583273427
Fe 3.5665732497528184 3.7437607057987514 5.773908415548585
Fe 2.129651348454112 5.0206290835071306 7.017603413662504
Fe 7.140639045574712 1.9556337893198839 6.022628762437217
Fe 8.165020536793108 3.5160131339580927 4.43894334547207
Fe 4.592664867419367 6.818602828430308 9.031692646731818
Fe 5.668173209787221 3.670594869318935 6.938879653156227
Fe 8.49446520747783 5.999526713867535 8.865585940936864
Fe 4.061966513772782 4.61155006770203 8.331581923626313
Fe 7.380709291378452 2.4769448939276217 8.28684875362158
Fe 6.488631707738464 4.54286056692367 9.28655309391889
