36
Energy = -246.6061384 eV
Fe 5.809260827108527 5.268091297825728 4.845528041569628
Fe 10.295602121158652 6.868469779070471 5.836861142997619
Fe 8.714902463988528 10.396575240781354 8.103898727134537
Fe 10.664852182606186 8.277591525391832 8.076737410835426
Fe 2.796039238078594 7.893722014908772 6.870211092844439
Fe 5.809864933892965 8.03504858944956 10.007939513180913
Fe 9.588098614358628 4.374532825023914 5.1939857702408005
Fe 8.666983822412433 8.08553787943543 6.95812732906486
Fe 5.516974745481361 5.488938207011016 9.677117190803637
Fe 9.398343315803539 6.561387877042422 8.921987744234354
Fe 10.54919077575472 5.1810706484674425 7.550957366188977
Fe 4.399474246399573 9.97355268621802 6.4887700421340115
Fe 6.486589749665251 9.079046367931925 7.549484560176413
Fe 3.571545661036895 5.902783692585578 6.356053962802019
Fe 8.219316185259775 10.502809075014829 5.901691915071508
Fe 7.359970486056114 3.53297176581125 6.098416204466559
Fe 6.388867885604435 11.351849778408292 7.223365488483676
Fe 8.181913937153494 6.062097979137225 4.357338464545258
Fe 8.44142938785944 8.476495551942431 4.5811458767523385
Fe 7.657255484635402 6.407193964634333 10.713445444449857
Fe 7.061716913135284 4.183236226737849 11.01162846447096
Fe 7.775911735702568 4.418255217071286 8.796455033113972
Fe 6.438147646332078 10.430480611154202 9.510105683069884
Fe 7.479827452913252 3.939203298041193 3.8438917019881838
Fe 4.797027274193989 7.185625951204005 7.900211810484992
Fe 6.673120861198518 7.127589720626028 6.007522050803358
Fe 4.348535451144936 9.415108907253906 8.742488618836136
Fe 8.392538140276063 5.524186693554511 6.784687332941209
Fe 9.371349874875351 4.781983962336127 10.467692681318539
Fe 10.36304776970422 9.409246303649784 5.949762431287358
Fe 8.196162157410999 8.626024454223188 9.503629181433338
Fe 6.246419853934003 9.613274457965138 5.085203517655766
Fe 7.092340929641671 6.799710822385314 8.379310020023198
Fe 5.794454444703096 4.9991020970434095 7.240625294427414
Fe 4.662226291258614 7.838596749019211 5.346447811896296
Fe 6.348614331289501 7.546524973672189 3.675192270301212
