39
Energy = -271.31428702 eV
Fe 8.52983688477982 10.214681369619695 3.6545726222710995
Fe 6.588166850762973 10.543787695834132 4.814409044263363
Fe 8.80254610357333 10.0624687381706 5.955987213814419
Fe 6.909313388054321 8.595723198702064 3.129084123561489
Fe 6.684209621433434 9.642696109779394 7.037871844363883
Fe 9.118332549030812 8.092128668542196 4.407665581950785
Fe 4.913118554071847 8.95719839338778 4.412630844354939
Fe 6.897425192487196 7.9246626166794965 5.4401540697565265
Fe 7.901102113885157 8.755998542590993 9.048046641511776
Fe 10.829804080983642 8.387527263785685 5.924840374442601
Fe 5.573350969047151 6.509258281688862 3.8575733576071944
Fe 8.863051556376158 7.934282307872246 6.997006725473545
Fe 7.734801807169164 6.265903645505989 3.6779207593322796
Fe 3.388866637256822 7.042618906965925 4.8054637403000315
Fe 5.336018794887209 9.09176552012445 8.923095542409667
Fe 4.589374225994828 8.298754277029145 6.649024596214252
Fe 10.265765359989453 6.115902534541776 5.0808481399339795
Fe 6.616589710991753 7.200212835929854 7.790901713452646
Fe 5.225172336559751 5.929048470333132 6.270750143745132
Fe 6.350283521554268 7.394915289412214 10.285132445649365
Fe 1.7591888840591754 5.245408759982257 5.212781509988291
Fe 8.898917754446813 4.1771688748151865 4.326787250626027
Fe 2.931529851705096 6.208607685766734 6.949895042170899
Fe 10.156853578344384 3.9231718618230667 6.277031621680649
Fe 4.416782612224646 6.919472332400263 8.696853890310829
Fe 8.177530971235232 5.715083624657344 6.16824618196563
Fe 6.511487766027747 4.4904328478312845 4.858269266772099
Fe 4.477162378713962 4.467876630402594 8.464236366642373
Fe 8.464175997822464 6.3056349890654415 8.94066823398461
Fe 10.371990886263548 6.083676930264082 7.452225002651547
Fe 6.421335077818206 5.155025921889847 9.859774666040554
Fe 3.933900627474369 4.679396141628939 4.7018408859828975
Fe 2.4775754831407153 5.345929959258281 9.130114029417566
Fe 8.925239889782356 4.112675450197614 8.238980968306144
Fe 7.8996990816685475 3.0335951612918888 6.199980246892735
Fe 6.707456106150488 4.584124554435192 7.594057235958323
Fe 5.165752787853675 3.191381002960021 6.3390572762464075
Fe 2.8995103844242607 3.8340683226186334 6.845483723088267
Fe 4.321327652600752 5.88022848325243 10.666690341831984
