36
Energy = -249.10793438 eV
Fe 7.007544271714366 9.51335120437352 3.0604714302247626
Fe 7.5585796804467345 6.954113963680381 7.304834863871706
Fe 8.842333243381663 5.579066280737133 5.948803372695227
Fe 7.870482157091229 10.03552205253857 5.1725666710285845
Fe 8.864356171986602 8.619076561188978 8.36926151616185
Fe 6.955054548824463 5.427986079766446 10.311044817484019
Fe 7.174410936869305 7.529920619442369 4.863919947335176
Fe 5.406544003257222 9.233859011973367 5.022844046605268
Fe 9.204358568585643 8.138165876963093 5.915412275386555
Fe 3.9209692431278294 5.339269576732277 6.320716772515167
Fe 5.052336027998069 6.386368743727863 4.262623373848284
Fe 9.499388135951449 3.6019009434351723 7.022845363192743
Fe 9.040065307851718 5.924902976506759 8.723294073571566
Fe 5.784573381906679 3.530404519728919 9.510585854832463
Fe 5.113380876213867 8.228532392658554 2.919492423548978
Fe 9.329115926048296 3.919679141236325 4.388185372969251
Fe 3.3640016591541033 6.677384676301502 8.358820671992715
Fe 3.483130573702883 4.215357886019357 8.419911519600234
Fe 7.2786803400680435 7.126041300758583 2.492736263091274
Fe 4.939509972888513 8.589635342566474 8.569616397781168
Fe 6.182935576711153 9.673981350849914 9.931505976886909
Fe 5.552956018760007 5.813288164321932 8.378677193294166
Fe 5.181220318712085 3.9374548323021554 4.67687627528894
Fe 7.241188415973518 5.107349698405343 3.8598113774363623
Fe 9.285709053451994 6.385239077006131 3.7682794430731077
Fe 7.5012554422676025 3.2904571876903708 5.674746787031002
Fe 5.358876631797541 3.455429106455072 7.148183892112821
Fe 7.096386087351171 7.616219824683992 9.438369133733765
Fe 4.9915199860434525 7.626736443686742 10.541693331470729
Fe 7.529615685137235 4.355521700248896 7.982068842037176
Fe 5.231425240746687 7.494468507573527 6.598028183430254
Fe 3.2717862638378756 7.454578279757065 5.472472510460653
Fe 6.891553708068243 9.263554753293123 7.128322717316291
Fe 9.133702388678334 8.669453901090376 3.5622771218810674
Fe 4.377434511696722 5.310172386609701 10.29228935721539
Fe 6.346543446613295 5.3938477388707335 6.072629741512288
