33
Energy = -226.21940897 eV
Fe 9.42596066209149 4.763394130132679 4.8029872488953735
Fe 10.077707282894593 7.700892444414884 4.436430628825148
Fe 10.926172273156679 6.351243799719591 6.092232506666304
Fe 8.213043747801681 6.6228281254457775 5.437547849146619
Fe 7.433622001868876 4.432466491360614 5.56380253338742
Fe 9.129523263318184 5.301601514147221 7.287697883153207
Fe 10.119827310555797 9.89598438019844 5.102379609588674
Fe 7.822194413769497 8.71003831388292 4.5500056984378245
Fe 11.468870302933443 8.580614272098536 6.614709956246201
Fe 9.134615765218244 8.231787795019107 6.891398380935174
Fe 10.813855046861645 6.663239870379417 8.395293352693969
Fe 5.266985429119627 4.774910172996956 6.738142401088242
Fe 5.829852211486129 6.7116896898339125 5.3848916176255734
Fe 7.1752320251451245 3.8206527459940363 7.979508219422529
Fe 9.963494407894919 10.619766014559929 7.403112055881826
Fe 8.026485932774534 10.502102267759371 6.140538371717463
Fe 10.47437836660869 8.956557135049952 8.880237920452949
Fe 6.71569516147068 8.496046398131586 6.632720431530295
Fe 4.441852258442947 8.967857702507127 6.282253861793291
Fe 8.845931333498152 5.115534499378575 9.609991998321721
Fe 7.0090283374142 6.211152243078974 7.706743639710657
Fe 6.847289935028097 4.090120972786878 10.236383402918623
Fe 7.968402814432343 9.690016529850428 8.642841312331194
Fe 5.019941673902282 5.006074774419972 9.1126830277139
Fe 8.603151466261698 7.358950470850213 9.105230834696474
Fe 4.669931741823268 6.959451663192657 7.58076008755913
Fe 6.7216033060602625 6.398038970488578 10.41142820121964
Fe 5.98782282886475 10.535073602366115 7.6567078279574075
Fe 3.7043493819695814 10.58876510122326 7.673615393222793
Fe 6.2988564600161645 8.223137097732796 9.015111746423552
Fe 4.42465007541462 7.132407125570522 10.00408301680735
Fe 3.1276426806670488 8.426558123011123 8.336586085837377
Fe 4.807445943897984 9.651100550926895 9.627507515521113
