37
Energy = -256.48055037 eV
Fe 5.468999250566395 5.536111179739812 10.032151039011197
Fe 4.659571142549603 4.899972106038769 7.893919076246896
Fe 3.432309074117346 3.8545612532986846 5.791367805523115
Fe 4.687044837572719 2.3186788304054677 4.448289928825801
Fe 5.751780635124279 3.2868079627828584 6.462190279411012
Fe 6.960232602664338 4.28096667873406 8.44574436611023
Fe 6.836658405141587 1.5350771710222888 5.231049688863222
Fe 7.799754782492532 5.988553352829715 9.909887049422487
Fe 4.1901765958831705 7.256398225026047 8.648486310580658
Fe 3.174390832802144 6.2181262526755425 6.731996084811858
Fe 6.004557894384064 7.806697670934005 10.156096743538546
Fe 2.232880973049524 5.705114416887239 4.571174961788191
Fe 8.293001167382197 2.6258646748438883 6.735365685973697
Fe 6.45306238405588 6.612177773220023 7.858541636029831
Fe 5.283429672947447 5.444305113764053 5.621934717407801
Fe 4.180402711926441 4.517227264728917 3.7261911335436326
Fe 3.598103371769321 9.254083283702915 7.207087800211369
Fe 2.4135255363606176 8.04868071374844 5.50216540927043
Fe 3.973589880712685 9.543745370749578 4.7627655744385855
Fe 8.113112598699303 8.176127068628507 9.166215395521784
Fe 7.579686203736429 4.807822295643856 6.2357653390998555
Fe 6.4209951136686465 3.855333201577539 4.278121531105048
Fe 4.051856599442472 6.899529852236469 4.173193751856241
Fe 4.981664961498226 7.776952316973075 6.207679811683847
Fe 8.800591009834651 6.238512107103539 7.58982383082082
Fe 8.628299307744745 2.91628064267785 4.453841726261049
Fe 5.968869005115587 9.064439349719839 8.097577230805319
Fe 7.090056513289954 7.038212907612808 5.2615511150524865
Fe 6.1583865358176855 5.990380869495949 3.149774713183889
Fe 9.811682653542771 4.529993713249702 5.959224597367298
Fe 7.984843432676148 8.495904265665207 6.823306797115944
Fe 8.288958412765878 5.21774739573446 3.9942256156867324
Fe 5.884092660760498 8.407665655486412 3.675406661461646
Fe 9.419229135679812 6.924643128758729 5.256014517654336
Fe 6.1884545486299345 9.704401418273791 5.644865333749201
Fe 8.05579456002817 7.39995453400875 2.9579800789779216
Fe 8.347443830334111 9.062744546559392 4.521413516756309
