38
Energy = -262.47795849 eV
Fe 6.95263294872096 11.366532957340853 4.860925124966203
Fe 5.332743141906232 9.957161389105812 6.916703839834767
Fe 4.298744849951009 7.834982526986018 7.783299393328398
Fe 6.6833086140925975 7.908631567949429 7.619178151534801
Fe 3.372399994322508 5.92264931935749 8.974398874733302
Fe 7.440594490317111 9.480578500954268 6.052842220838828
Fe 5.780276485637778 6.196835795759289 9.235049531715353
Fe 2.1367060160017033 7.129970769789317 7.0125224169302065
Fe 8.213146840996547 6.545147501892311 9.025716427445067
Fe 3.4294216553274075 8.848550899924096 5.759477041209511
Fe 5.076454074180586 10.03501018051072 4.597646478329265
Fe 9.140301585173152 7.9203122357371525 7.225911919230895
Fe 7.02301774369713 8.985041594636776 3.811262327927745
Fe 5.604024486160224 7.711329315962227 5.483914778443703
Fe 4.974153688606041 5.6341352779451235 7.047023350457185
Fe 2.553915988216721 4.798095461697655 7.136330030968062
Fe 9.700223197599422 5.6808185532972875 10.618483468374606
Fe 7.4729327735990605 4.90590716703625 10.670254085543785
Fe 4.314855826426012 3.7071899624263223 8.264504550564304
Fe 3.4750637400531725 6.405860663546575 5.356263156172041
Fe 4.099498856688407 8.062956691950337 3.5633568891048424
Fe 3.8417735627283833 3.9502873347277543 5.4335727118356525
Fe 7.382961459412791 5.672765074940314 6.929092784362363
Fe 6.733082397047905 4.082516463057874 8.593809351087677
Fe 7.965149953933054 7.1847267294520165 5.199070270283371
Fe 9.164717633794904 4.3820602934930735 8.726387566323078
Fe 6.05142815383268 5.3202714224885534 4.84509983037804
Fe 5.936434223080738 3.343812580070223 6.358910726237384
Fe 10.643152609538774 6.643954733434342 8.660839231203598
Fe 6.036296848366885 6.964031819020822 2.999097886695596
Fe 5.287567611063474 3.2488722896521507 3.678349831271647
Fe 4.258098138225359 5.398891187965343 3.3007137160870874
Fe 9.744977282208286 5.70523207675436 6.709632519053185
Fe 8.365715034817075 3.493211346538128 6.549694583713601
Fe 8.683126990939748 4.982207552767829 4.601623289275735
Fe 7.436991923527708 2.9014239632134053 4.461241756056721
Fe 8.414980975789343 6.95386795032782 3.115159514955182
Fe 7.0357271698729456 4.7273495311602804 2.844328069609385
