32
Energy = -218.8912931 eV
Fe 8.333022211814592 10.404815633529582 9.498341912927568
Fe 8.011244153893397 8.104533190942009 9.649871516566392
Fe 6.101969666949485 9.39916734716462 10.22347363383244
Fe 10.253737186303308 8.628970413485815 9.616013920970062
Fe 6.043615220911267 7.2020571987357265 10.984227643000125
Fe 9.898858684265011 6.2975977288163065 9.580335784814816
Fe 6.921995739328325 9.410037540354077 7.903033648057264
Fe 7.548869186792489 5.829028832345698 9.674614694510357
Fe 5.781427433390018 7.362890873931278 8.406859244316818
Fe 11.093176649893572 7.6199463443214865 7.61271044171614
Fe 8.779663517642359 4.363358605792451 8.328758337868319
Fe 4.560403730568598 9.727850474837355 8.499443644804426
Fe 10.736401484025238 5.304382867321347 7.636463844540744
Fe 4.027682155996952 7.972536520853208 9.969507584349161
Fe 9.370974525806549 9.491331331740959 7.6341510412034745
Fe 5.11080532048611 5.404463986206918 9.567303669802847
Fe 3.1148526762728546 6.234917855489554 8.782342534779367
Fe 3.5577975113187876 7.943974352961475 7.299557627926886
Fe 5.376610518798242 9.08372483831283 6.181431680801785
Fe 8.618221937114475 7.050397892994177 7.437977876790218
Fe 7.856384182228824 9.036137338736017 5.829380108059399
Fe 10.531261876799881 6.242280621735868 5.544770401893389
Fe 10.228703788800573 8.593829109325481 5.551130031536587
Fe 8.527825483218272 4.995351384376877 6.064951852660345
Fe 6.602473397987898 5.056931175323096 7.63668545491048
Fe 4.433261069185898 5.646936298883058 6.934552361628926
Fe 4.5135446129429395 7.153888986511627 5.095131476235747
Fe 10.405460855643783 7.497076172220214 3.514619650267361
Fe 6.5664399038663115 6.826327118585651 6.086258824129002
Fe 6.44188816782934 8.26710666014264 4.084626002969311
Fe 8.721816869553214 9.17684084656207 3.7472521094078592
Fe 8.428145757735127 6.9612000391271 4.636143877889325
