36
Energy = -238.55996894 eV
Fe 4.996620871844616 9.264442942249564 10.283846998495052
Fe 5.19821946049596 7.539506268891928 8.541991580457161
Fe 3.8560003531373965 3.8500207246014795 8.245538324980012
Fe 6.210397927162475 4.8701882886523835 7.791719336526585
Fe 8.907222089713908 4.646981409346037 8.074159404664625
Fe 11.18327048835035 4.896986265054436 7.910342917276473
Fe 10.203485749124392 8.29576763337443 10.253139628634612
Fe 9.6313544789794 10.79129111926806 10.298768922612906
Fe 7.365656184911765 9.874425281737164 10.511482457926439
Fe 4.020107423989122 9.924461720562071 8.248299970484664
Fe 5.178840782602065 3.474912030351421 6.272138756972695
Fe 7.850000830911728 4.400182230721944 6.079553259507217
Fe 10.058392563173257 3.649579892620085 6.045202102353978
Fe 9.872475045323963 6.015999318591089 6.281891571422846
Fe 12.3826892611507 6.52196222915103 6.905832185295285
Fe 11.440830900546585 9.876804067676343 9.125350037512224
Fe 8.904397180193996 9.30057062405203 8.518224194869882
Fe 6.476270357211048 9.629789065151272 8.39791921764541
Fe 7.554108558012625 11.69121901287762 8.865541323657665
Fe 4.338978377876739 7.242413371321104 5.009831237471761
Fe 5.307688560644021 11.503382854455415 9.553149590438158
Fe 4.401174371046927 4.941365485188596 4.625011999425443
Fe 4.318433044707405 5.781609301663103 6.840451833409528
Fe 6.437342369535736 6.130723527225444 5.5449207086105625
Fe 6.614011718574123 4.146493202500912 4.23926394464276
Fe 9.824780688136544 11.638818869568508 8.136758167299021
Fe 7.841413936648746 10.500696365693369 6.772455225878684
Fe 9.031946473872223 4.843816401103208 4.240879672076227
Fe 5.505648998052346 11.343878275305451 7.135641440023419
Fe 10.649401105588192 10.02396327924448 6.877455765638061
Fe 5.353586929612302 8.779390173603629 6.442523430127635
Fe 3.222152918675976 7.798419373850154 7.224985006590994
Fe 3.6240256740421017 5.908225532074523 9.089575671213618
Fe 11.093936616371405 7.812145624976367 5.613872434647069
Fe 10.805146553517098 7.8999114365374234 7.899979477589057
Fe 11.715626213047107 6.565324429867346 9.477850653382758
