33
Energy = -227.114688 eV
Fe 5.497071759331901 7.141139569925617 10.233538038361385
Fe 3.751781828038313 8.358596646093215 9.47457260696822
Fe 7.457126982116943 7.438768901195512 8.904505644108655
Fe 9.54667002318044 7.470274472115483 7.467945098376245
Fe 6.153391627923129 5.11953478584756 9.250427094762976
Fe 10.435598080851076 5.151194649013849 7.1222701340516785
Fe 5.711497995781649 8.880603999191054 8.2621698527541
Fe 3.440900157214558 6.012553814371304 9.13988156011856
Fe 8.2507108187118 5.3194252982984995 7.945074498533674
Fe 7.749386601753608 9.19325727197773 6.896700696174815
Fe 7.103683779663577 3.186135755133684 8.07114463320207
Fe 5.102752009025279 6.698112173248789 7.731752273304619
Fe 4.318706625344477 4.133511355316817 7.941991095469916
Fe 11.022080594839794 6.968779369402693 5.620330280453083
Fe 7.133264936277305 7.036487385679773 6.500021608393696
Fe 3.2413202974901822 8.114056703868174 7.231715385273676
Fe 6.154075853989279 4.6882174318000684 6.684869062041013
Fe 8.506356326219704 3.794834037064123 6.11851419621773
Fe 3.0215890573472306 5.887172509876132 6.549066849632205
Fe 9.018254843759626 6.003234553770044 5.385383782234424
Fe 5.31584262922648 8.516969910180142 5.875443981894019
Fe 3.162984504834059 7.732728791305656 4.894842998663838
Fe 9.167778710417283 8.429470004048323 5.147746280531025
Fe 5.1317103495903185 6.2552217457872175 5.248295559635864
Fe 6.999893213618668 7.849703219301324 4.2181787704701135
Fe 6.179836581780499 3.2595228866728054 4.8737856945380695
Fe 4.8282569545786 7.195792986655787 3.1414143567463433
Fe 8.860187397261683 6.925219706800376 3.2180031679486216
Fe 3.012927418861233 5.652000791893601 3.923418950748982
Fe 4.012383982146234 3.99796643771461 5.47088203048932
Fe 7.07478127173153 5.294129664488623 4.493271008965476
Fe 6.738667501266299 6.081414029713308 2.412867696460915
Fe 4.998590274937392 4.627925777915417 3.267674191899616
