37
Energy = -257.72303503 eV
Fe 9.639741988921415 6.997685397916718 6.5108826959272585
Fe 8.311884496723081 5.019240050336079 7.654739787337362
Fe 9.167390458243748 4.383144997977907 5.60890742143034
Fe 7.677744302083656 7.362008696437618 8.12532545280908
Fe 7.062959880838299 5.486216733818609 9.703591047391374
Fe 8.288142712104323 2.6408849115517077 7.073412459276259
Fe 9.691550634460235 6.282778283111393 4.296917160465934
Fe 6.471544672403396 3.4129346309726443 8.330650544207478
Fe 8.825628743812487 8.416041080908915 4.4217812183550445
Fe 7.76534723050818 9.014024783032546 6.408522036504035
Fe 7.730443562557245 2.475538124440074 4.775542755014652
Fe 7.526775725392308 6.445500157173611 5.643593021102606
Fe 6.265180305965109 9.421083099424298 8.317723058770241
Fe 6.005283352659714 5.652189581953154 7.5694084729018005
Fe 5.4126087292653065 7.368752118919687 9.211050500403347
Fe 5.884907577238934 2.0711427723384634 6.309140204873822
Fe 6.492147269994972 4.207639418239978 5.765154672169048
Fe 4.7457449022852165 4.927063991712513 9.563055678663243
Fe 5.936852389292852 6.029873792470019 4.142503954501931
Fe 7.804618277403577 4.822292757513616 3.6448256788290347
Fe 7.589115113069311 7.1723523551782415 2.926926482427155
Fe 5.389053650669101 10.016286490210128 6.152710592063289
Fe 4.270780219180919 3.928707358049657 7.3581538293964766
Fe 5.775727660972979 3.4456079485442443 3.591108048118598
Fe 6.31709712805726 8.502939972901915 4.444722375316991
Fe 3.870826496669886 8.772500031921176 7.784779280186705
Fe 4.243242959791277 5.777649702171956 5.601214710187898
Fe 5.640989589223799 7.701310703611501 6.608498808996631
Fe 3.687093510169101 6.299728127663308 7.839380570754235
Fe 4.021686082898257 3.1835954859558133 5.123106384296269
Fe 5.6936516535704955 5.276184030948389 2.0769762741690347
Fe 4.3348517974665866 7.2528150668200695 3.1612128338656595
Fe 3.8306527302095112 8.272257670463379 5.283157673796717
Fe 2.261158653509145 4.819808901797878 5.920034486020279
Fe 2.071527281817732 7.224210737895188 6.467450625128987
Fe 3.691385321366119 4.830341968488905 3.4241580142128405
Fe 2.2592402754540535 6.561095918853335 4.189032595411444
