37
Energy = -256.83854097 eV
Fe 10.103272688980615 6.282531115255853 7.527007748063406
Fe 8.960981817720524 8.609452609371763 8.212808468217569
Fe 8.922991340596193 4.49674571529284 8.98465696879143
Fe 10.132592301623303 8.305695232634664 6.135654915866798
Fe 9.516763845802283 6.822174917658239 9.817746284206068
Fe 7.747950115403279 6.468297933548952 8.522927225562812
Fe 8.284838979892253 8.02204599281691 4.0352202492879865
Fe 9.643033592835645 5.979503195824812 4.937988394317174
Fe 7.886682782353745 9.538384391912668 6.004265309321027
Fe 8.292107066712532 4.75403307383849 6.659073386276367
Fe 6.164674694422595 6.1220991179062 6.771254002087753
Fe 7.108752577883487 5.669364817817445 10.623030952603004
Fe 8.224856331204228 3.875622707575449 4.359196955356749
Fe 8.142412260977785 7.231368216487196 6.283219982065009
Fe 6.521705988988733 4.269968442784322 8.50131439642838
Fe 8.492315392890633 5.837271219239945 2.77800251152827
Fe 7.0261856616452505 8.16027980869874 10.05792806255251
Fe 7.079164496756363 5.822947197210311 4.542205833718378
Fe 4.664560349690959 5.879547584357161 4.877957047227212
Fe 5.39929088187249 6.421212444060054 9.019705502676127
Fe 6.1293114200271335 7.5122858113344995 3.009293043312766
Fe 5.969786650388897 8.09724333097545 5.245795417778445
Fe 6.025550670333296 5.269327484180768 2.3976827062403685
Fe 3.5972271122601716 7.960566449824333 4.455901578754212
Fe 6.070098640708065 3.8225324258624434 6.086713010160639
Fe 3.716497607736075 4.484010692005878 3.0147701889639515
Fe 5.7069088258828105 3.5024854255608133 3.852646525267044
Fe 4.205347405725612 7.57390597949019 6.9980640552808415
Fe 4.58669443392236 8.748820757097434 9.198341016574815
Fe 3.117059144294105 6.734754754256595 8.897903941237091
Fe 4.225842629356591 4.891818719475613 7.46972613638351
Fe 5.050651974437135 7.348372331123106 11.031249095018506
Fe 4.095259910632199 6.654269612080529 2.316540245913058
Fe 3.6035751313215805 3.839988405963514 5.331899398809183
Fe 2.278181524759772 6.2802929330046044 3.9082362229115
Fe 2.6420747673925558 6.013054872051129 6.214979342942338
Fe 6.455840119092741 8.488765417945078 7.710135014822125
