34
Energy = -235.10003996 eV
Fe 3.5464179475385738 2.271610786530721 6.066880856762011
Fe 5.766862736391319 1.9649833763978155 5.365624481216679
Fe 5.199046556176233 3.076552410560788 7.684618120712818
Fe 4.486602151972624 3.0173213163754244 3.5753667048047677
Fe 3.260009022330122 4.276981011500099 7.393377260781359
Fe 2.5627144089332083 3.925702469423146 4.850855674194537
Fe 3.178938161032764 6.031728213654391 5.815943495476278
Fe 5.073506138068939 5.212286370154088 9.28783054348973
Fe 4.969103744683929 4.2963183671310174 5.333495158680083
Fe 7.11042539381289 3.657142000751024 6.441303915928431
Fe 7.0516695713518684 4.267820789436098 8.762873682497233
Fe 6.00593555989961 5.27195585281809 3.1051317199339663
Fe 3.495193182484881 6.693401904280237 8.11569077822269
Fe 5.497400658859089 5.728792588947346 7.146045106968772
Fe 7.127784090219722 3.3744664595414466 3.9994090851392907
Fe 3.617408280337767 5.602778705096845 3.441441807991199
Fe 5.189484578798596 6.675063772528278 4.883392605885053
Fe 3.3117441276696282 7.99495196937124 4.202903477119252
Fe 7.134051640646974 5.543560196339878 5.256224943181656
Fe 4.965765848033346 7.581443140742236 2.6809763519647096
Fe 7.339128719487553 6.708512731467877 8.852907272864364
Fe 5.4895741712641275 8.063860094620438 8.621472976050818
Fe 8.468904707602524 5.510348452542116 7.208034935498996
Fe 9.182180376957628 4.251817193693035 5.202276959422554
Fe 4.291917464590577 8.076444639492863 6.537412437304438
Fe 8.435081255200952 5.364439935068823 3.186048066391154
Fe 6.823796866613027 7.566605540577002 6.469724832220994
Fe 5.545826879851048 9.065608663579987 4.6334143481323
Fe 7.611532725114166 9.12358204546633 8.371988593751801
Fe 9.212112782387909 7.839664888200662 7.301307753005539
Fe 9.092160091455051 6.820815704065929 5.155575500214324
Fe 6.01161134457935 9.864384021050233 6.86397215797513
Fe 7.156606629012544 7.457320719560418 3.786803344009422
Fe 7.992179120819792 9.237191146193311 5.608593773135225
