31
Energy = -212.57254604 eV
Fe 11.000556487601932 4.169527829476836 9.474861855732767
Fe 6.329532636433151 6.405822000089756 8.915790118757307
Fe 7.063856729975159 11.621579547373804 6.045793775289291
Fe 11.159593906884895 6.247531007070901 8.491723843069716
Fe 5.7309929338802394 5.72770430159618 6.68598584144188
Fe 9.640094782742308 4.170497741881757 7.5669486794161775
Fe 5.02053748605236 7.999655231854836 6.674017914024781
Fe 9.83935338652512 8.00481351661625 9.741659732815217
Fe 5.476085586517691 8.695401541050101 8.955270307879834
Fe 7.576782637107555 8.073608592598353 9.927100835362769
Fe 7.304396071073265 4.283754659843567 8.24465618349727
Fe 8.595891838725466 12.09323205397973 9.617050453429343
Fe 10.096126262089479 10.289371935444631 8.581518353944531
Fe 10.289054071517596 6.095992610582564 6.37613853969838
Fe 9.054802422348844 10.034425865169451 6.078841527263892
Fe 10.044611535614424 5.874712868173221 10.745929041472289
Fe 8.67964883515991 7.726175914648867 5.245412276286473
Fe 9.621112265774816 8.158148513669323 7.514069535325777
Fe 7.758058142995059 10.04951022642386 8.106141533141097
Fe 6.810931275836777 9.379050518800415 5.552024233272666
Fe 7.228605155805384 7.829489267647502 7.277721276265095
Fe 6.468505259323203 7.006016689099125 4.8480304460944375
Fe 6.50158129703866 10.610782346156977 10.023709697114713
Fe 9.044380186029121 12.075148455068605 7.317727233279203
Fe 6.648203937148173 12.310432564805852 8.347858292418694
Fe 8.702156317596458 6.2585479697176085 8.583650273399847
Fe 7.710864091711414 5.751577818252731 10.772321062469299
Fe 8.776065509964761 3.826542679190921 9.965097653896253
Fe 7.98056569129857 5.590538527119061 6.293885331886239
Fe 5.437407280463517 10.436456731455346 7.462217010651807
Fe 8.807654870503631 10.057371695994032 10.54414806030187
