37
Energy = -253.43593955 eV
Fe 6.794345473953058 7.410613583342356 11.576555599145895
Fe 9.072405495915936 8.035371110712314 10.748149547694817
Fe 6.398178819592871 8.568476117505677 7.778000641004534
Fe 8.61486867156808 5.809292682488777 11.173523045517065
Fe 4.893761139189392 7.173579864305338 9.18297607093986
Fe 6.255146468784401 5.302674849266342 10.67735935456826
Fe 4.201271869392953 8.55358512804407 7.233228658792436
Fe 8.212338382400688 10.065581153795844 6.408265107739676
Fe 8.701345480712884 8.782430629902356 8.431989896757498
Fe 7.299551332290364 7.137881555521176 9.434603819075374
Fe 5.801330333246221 10.279366272364086 6.181328954570013
Fe 9.793460801041526 6.663426155661702 8.9508997936616
Fe 3.4755331881801372 6.14381910134192 7.324348694002594
Fe 8.338136712983735 4.8121303240424425 9.046526619162538
Fe 7.372285292790733 8.118919268858107 5.538662861926104
Fe 4.072548118256972 4.923209969701009 9.336565681452814
Fe 3.414877262419749 9.95830982850614 5.48679587752956
Fe 5.573580931406492 6.829640964055342 6.658972887193311
Fe 6.9604911242050855 9.910454151744188 4.181266516193883
Fe 6.0508524663135965 5.221899001771041 8.34869240155595
Fe 5.032845177946732 8.529124523310816 4.741254390682035
Fe 2.799758117260964 7.703395283084507 5.448074723654546
Fe 7.900942065108038 6.487700271992315 7.1921196381637325
Fe 9.714940220426849 7.931870738724052 6.546247812085596
Fe 9.780658434397784 5.301304794594929 6.764624434091317
Fe 4.886627291679425 4.331708543136306 6.476906959765586
Fe 7.525924878104472 4.087493401891145 6.933949123137107
Fe 8.930533680220032 6.486250987971047 4.717576226535661
Fe 6.694477304711754 7.29538080236246 3.42323801738689
Fe 4.412101031724772 6.185438572462005 4.651441307081074
Fe 6.670524223627176 5.409432567065567 4.976435971459488
Fe 8.674237182980894 4.051686270779948 4.814431406741513
Fe 6.438243608747512 2.774515166739906 5.345011933346151
Fe 4.69509372194744 3.8006302093286473 4.120238016678488
Fe 8.108458947609975 5.466274473564673 2.767884616735103
Fe 5.6075955784879605 5.3397573079072025 2.629284116249534
Fe 7.013690351979103 3.4585770810348304 3.2158623822086585
