39
Energy = -269.58121275 eV
Fe 5.466095087779993 6.066750089086756 0.7062963892151739
Fe 1.1905881711713069 3.220913884789241 1.2317726772433564
Fe 5.462932280641826 3.702046246018955 1.5465431748393272
Fe 3.2879279900143614 4.716256173006945 1.4558142651607278
Fe 3.324931175744449 2.11286379807007 1.8918908645195551
Fe 7.4074152418947214 5.503041045214248 2.1884382476923894
Fe 7.885770052548899 2.8266767773742267 2.7658870737657266
Fe 3.28469085601855 7.058342399913683 2.0047777872458417
Fe 6.242963352810215 7.593655928936963 2.385877452575543
Fe 0.8687574019831266 5.432793453925855 2.448150504212291
Fe 5.632855326732376 1.7539312299150347 3.3138709035043656
Fe 0.939935714648233 1.475839139347925 2.9977977589624882
Fe 5.008865883969358 5.804508749590302 2.9004499544474
Fe 4.133796406744306 3.6375937820887057 3.437981015017836
Fe 1.8124446185338152 3.5045485540076613 3.369039552543309
Fe 8.705380056586355 3.5499785165386277 3.522122319752377
Fe 6.415358587700234 4.071562387569946 3.8023615434082516
Fe 2.8316005609981034 5.63756321534403 3.746021579468944
Fe 6.735717711300617 6.411350218819169 4.513655262231563
Fe 3.07412441863603 1.7366125922612363 4.340793241088296
Fe 8.597445499619889 4.576631835142463 4.552008209273984
Fe 5.521076276338359 6.554862570566793 6.784277362954495
Fe 1.7400748235496324 7.351001058506284 4.5932421208590775
Fe 1.0904217500242912 2.3040883559980796 5.488693775357958
Fe 4.952201502845887 2.6460620480278054 5.517442925967627
Fe 6.673606253831284 4.299369136142142 6.218253178822655
Fe 8.099727366909493 6.034447206501669 6.510298194343486
Fe 7.371248475157471 2.26367063961562 5.12444170994711
Fe 0.8451052185626587 5.071994269944533 5.16679921152621
Fe 2.84589989156086 3.8441715934304685 5.494341858609266
Fe 4.775227716851574 5.144722473713647 5.18401777961911
Fe 4.397272028717516 7.419272338504591 4.650570837016022
Fe 3.2283301591618234 2.106160462148377 6.835822321647316
Fe 8.705380056586355 3.678135288703596 6.797876375530641
Fe 6.485546038162513 4.607103044839245 8.440238867515202
Fe 5.786320358011434 2.437255772920456 7.663533297362109
Fe 2.9114957024720263 6.145656312527599 6.3139518877743965
Fe 1.706696387745469 4.125097424479589 7.337433874575473
Fe 4.34960712110076 4.244596486753714 7.428341144688982
