30
Energy = -206.42101226 eV
Fe 5.510490352335232 4.32719460312342 1.9180558791450897
Fe 6.504123842145638 6.56134723252358 2.026868480639562
Fe 4.886530157727772 8.349607385636782 2.3004920726117932
Fe 6.899388406292435 4.697697932474404 3.8281466397731365
Fe 3.8670472285158723 6.187410850489296 1.997009768730568
Fe 4.16085437827025 4.026039646223491 3.772959168951298
Fe 7.421621977596893 8.599015468130188 2.509828771594491
Fe 5.058283655898385 6.2170719625106265 3.9843729546842233
Fe 6.212161842953694 2.5417263240439287 3.348573726176639
Fe 6.057043923921494 8.374393204452998 4.3878012073598445
Fe 2.46571369237683 3.70637554426904 5.440139502520226
Fe 7.917408849285546 6.815455088195361 4.073713428650303
Fe 3.4304048194203056 7.933670797112849 4.17307404633508
Fe 4.606335606472613 2.002628722221954 5.084635182905323
Fe 6.870842888452067 3.237742365673518 5.576153426174282
Fe 2.398400571309886 5.740394286541693 3.8149568462542924
Fe 7.6390265537316715 7.759704453542034 6.220291997621549
Fe 8.329394473201846 5.199190148569081 6.016407012099423
Fe 6.191942084725348 6.000299361234665 6.038666003917931
Fe 3.462950072116422 5.965757610522108 5.865972721402467
Fe 4.755099525377749 4.044386291068216 6.3201553154280825
Fe 5.676740809762687 1.9741332902046809 7.3095540871564015
Fe 3.262533028517165 2.198057111758255 7.112189795502374
Fe 6.762539591607464 4.1674798702046285 7.813048828297744
Fe 4.793180630856312 7.8836921171637835 6.345425331970297
Fe 2.637390639751144 4.495380253635042 7.70700565459627
Fe 6.997821724895756 6.507571192665316 8.208672648259716
Fe 4.612446079445207 5.860225683795991 8.074394288963685
Fe 4.538606859331496 3.4730948070922714 8.817640938532186
Fe 5.986864524059006 5.066445185275642 9.826983064100576
