32
Energy = -217.48485881 eV
Fe 7.967765654891288 8.676836215808484 6.336049970696462
Fe 8.480436049462353 6.479718514564621 7.281284448477044
Fe 4.740783799374204 8.258278746154206 3.3993927786217513
Fe 8.08899830605438 6.4551539028987515 9.735551740572717
Fe 8.402198496607062 8.703936340069358 4.050833775657647
Fe 8.054912868348932 8.573164735317201 8.793321939714067
Fe 8.499620365100533 6.489823796551032 4.814376279446542
Fe 6.712649133820166 9.560281753076298 2.2766931965512005
Fe 6.331689882409479 7.20286155393064 5.362806742480348
Fe 8.850198576496016 2.540316244035786 7.0758806872663715
Fe 6.216400687678076 7.287099677331321 7.7805859591640285
Fe 6.810686103203316 7.245585307077824 3.0075811011835856
Fe 6.303563107495307 9.49208679171152 4.54848471722207
Fe 6.884277307733639 4.917509737535481 4.050079527946176
Fe 4.085763761807471 8.112658750893182 5.707217719457242
Fe 8.986364415069032 4.390108938033221 5.817507243193834
Fe 7.143186528528806 2.824071582209122 5.286876038741158
Fe 8.793726083802971 4.434670778071275 8.39740107817625
Fe 5.663584711608328 9.477524993734459 6.792611999179614
Fe 5.154349955633707 2.0927691502259798 6.505532181578421
Fe 6.762688071634969 4.921898833413804 6.5759776804957415
Fe 7.547073228037902 10.473340912503343 7.391743476329639
Fe 4.674377169897789 6.0663439749036 4.15447876879295
Fe 6.00257507227441 9.588474562455614 9.122251896258668
Fe 6.763424736786671 3.0867901007617387 7.748510732057112
Fe 4.89683895785326 3.959554416207301 5.322592142142403
Fe 4.452793526984648 5.950911235880019 6.756221129737692
Fe 4.400153951572451 3.8618863288487435 7.831772316267725
Fe 4.081026010651177 8.199289086736034 8.286983388968798
Fe 5.954031177990713 7.478921944304154 10.173109741114072
Fe 4.226729487838607 6.058523456268184 9.216329683178447
Fe 6.33019127166298 5.152028247936281 8.918376686164171
