32
Energy = -217.17370831 eV
Fe 10.011457385173422 5.734201164460485 7.737908556901718
Fe 9.46689155513775 7.21994805356007 5.948645210679374
Fe 10.541484408900217 8.13880562466282 8.178943704488567
Fe 5.72112861734359 4.719736360596023 7.428412522524946
Fe 5.526862868150283 8.704692807532926 4.533508239420414
Fe 10.288431997307502 9.548800022200512 6.187315473194492
Fe 6.319510166467195 10.918727816043669 5.832328494652461
Fe 8.681122470294188 9.575357981468136 9.554643852686432
Fe 6.560480464825582 8.202123057951045 9.329082596422843
Fe 5.100062025517266 6.58278899524042 5.8143201445779376
Fe 4.0265377875999375 10.479295432358757 5.021394214861176
Fe 10.488892910282678 10.510730890141524 8.267539298266728
Fe 6.288913456499244 5.744461987752345 9.615583001213823
Fe 7.274704967416005 7.168765557600082 5.08494287200964
Fe 8.149510894566617 4.6197194257455445 8.778233295227544
Fe 4.42429706921598 9.212220037406608 8.750019955874778
Fe 4.717399967281936 6.91116996142295 8.132502000799127
Fe 6.047531722205938 8.683491067427902 6.873244623381962
Fe 10.327899485646938 3.7033053101416904 9.000252338196402
Fe 8.017390811662656 4.91292017851425 6.031343896627193
Fe 8.711278802229154 7.014535138953471 9.446625263043327
Fe 3.6712678785471824 8.593172003612137 6.449036229696792
Fe 8.062716132729165 9.388882626667177 5.122483965303483
Fe 9.646559980271038 3.3549656463476145 6.8241548546167925
Fe 6.584396236686455 10.556114878166824 8.429577311384774
Fe 8.522602972552358 11.048487464052611 7.007273609348842
Fe 4.428044956734426 10.982000591629642 7.271115913626703
Fe 8.271814595156211 8.716987141488072 7.489287019168007
Fe 6.4188043913827615 3.1077230496448465 9.03256398304342
Fe 7.219055159131743 2.7826445330690657 6.822381673813749
Fe 8.644400046773802 2.0935294409574086 8.561431757642652
Fe 7.186805455466796 6.62436229475103 7.478683320627982
