33
Energy = -228.46394407 eV
Fe 7.257829270524438 4.852773457797895 5.783930779252834
Fe 4.171195842684998 4.025164117252436 9.36538449716223
Fe 6.752439286371212 6.200024827406995 7.790683357008374
Fe 10.757987252214505 6.7233719833442365 8.555409727715027
Fe 10.665563119318833 9.058464873725535 7.8105079689849894
Fe 8.924308360199069 9.5878270927949 6.197013072518207
Fe 6.814558593738606 8.900917223060423 7.256185874091334
Fe 4.745220792494962 7.940549320951128 8.28596862119495
Fe 6.569486921416325 6.906979900117566 3.819990692149157
Fe 4.504149102506344 8.585770550744952 4.203159197935789
Fe 5.34184811573703 6.029573723120935 9.7462388022737
Fe 4.215822937285011 6.311132834311307 3.7867350476462662
Fe 8.761213899804796 7.701800787399377 7.9416741771720085
Fe 5.680203731073871 3.9871935122764923 7.643988261219394
Fe 8.379723683922062 5.936509180011998 9.533896406772632
Fe 10.361027447803039 7.448109908517296 5.962526828095307
Fe 3.2202241785740777 7.341496213806941 5.9050639969372005
Fe 9.251718919479792 5.605240882060766 7.05456237565789
Fe 8.442950316534594 9.860310325142253 8.807381022688661
Fe 8.952985021348512 8.366287499506699 4.078888025045779
Fe 6.928232056251859 7.978652345362427 9.655412597490068
Fe 9.481616683860475 8.120162626844 10.122103338562463
Fe 8.092869012687665 3.87034729604909 7.929592157910755
Fe 6.382282082784925 4.639949623111131 3.6045500638424044
Fe 4.048915892179455 5.732585645025338 7.636735566169803
Fe 4.650592646572641 9.515052394065231 6.456684726978523
Fe 6.627229040485118 4.1399103115114615 9.793769979936357
Fe 5.478795948376423 7.211167602021096 5.99160597300099
Fe 6.705101860715408 9.258913044399797 4.864730654934162
Fe 5.771029328759975 9.995236897930742 8.968778317909289
Fe 8.811212366666322 5.86326391092772 4.29476348871876
Fe 7.875550680011436 7.282303489519639 5.801742325786475
Fe 4.898466839575908 4.99208197409624 5.517940119787089
