34
Energy = -234.2872941 eV
Fe 9.877308526689214 6.075347770506651 4.864961080436377
Fe 8.789257297310307 8.105702956519162 6.121322998455379
Fe 9.172013321510054 5.808034572917839 7.070001374246166
Fe 9.046151273663805 7.928753386337012 3.703758110262917
Fe 8.974306656103163 3.448207372572421 7.273450563885486
Fe 6.183925345625768 6.786469180932613 9.593167491320052
Fe 7.355935917698538 9.31136969778126 4.5318745059087275
Fe 8.28060122011298 4.294129708701438 4.923614572279403
Fe 8.035416194876815 5.1761960323385185 9.198246671436964
Fe 8.430919103259454 5.801721595016901 2.8767560553394733
Fe 7.3312492844893296 6.4178723983458195 5.183557264518535
Fe 6.014660890063806 8.235494945836992 6.02953494592443
Fe 6.969933372569533 4.820414202173856 7.08598913664065
Fe 6.634131309415391 7.513121754407266 3.1120219162110137
Fe 7.077002158856092 2.4706661861391868 6.244498796263741
Fe 7.2224839500713385 7.096146266494759 7.671836053470836
Fe 7.182518979513516 2.9947548177283716 8.750293961965165
Fe 5.090397354751871 3.1649128820215724 7.347589982547916
Fe 5.498831109312417 4.640270462423296 9.102119660187245
Fe 4.808476773436571 8.853366551330504 3.9010280999076943
Fe 4.874095551071933 6.023550764685003 7.120967315753782
Fe 6.194403489523136 5.093898681623666 3.0781296194303924
Fe 4.863405814621443 6.473853009419863 4.724718666958089
Fe 4.846369056168969 8.230294560265113 8.162151511519026
Fe 3.5946001416685083 8.296866862915143 5.989344431967487
Fe 3.5710485068698814 3.987237713369686 5.724734369934188
Fe 3.882641376826548 6.360653863651534 9.647089553503694
Fe 4.499979679909251 6.8220878755242875 2.2506066275349803
Fe 5.79500074296966 4.272932383678769 5.184189219855407
Fe 3.061199491237967 4.774116519242291 7.902286504753154
Fe 2.815962849508865 7.576540957353945 3.752932450016893
Fe 2.611287831480288 7.094001112465128 7.756488225845481
Fe 3.647317335844362 5.02841439826343 3.449853349023067
Fe 2.5471781774306868 6.080607834617644 5.617658948285825
