37
Energy = -254.43353739 eV
Fe 6.157629453959419 9.639450354314073 5.544738359819798
Fe 3.8502487176387596 9.52453102695404 4.518324939772523
Fe 8.335630644952737 8.792929430577264 6.920358669648909
Fe 5.741940120379208 8.67021471642409 3.2610268473484965
Fe 10.198004430562884 7.7436198739558995 7.945561083969399
Fe 6.041931200082941 8.002194899680179 7.304216308488821
Fe 7.626998974173773 7.804023259573863 4.87467217167241
Fe 9.68868088580188 6.821494860124677 5.895756872065945
Fe 7.871047851420052 7.38756175686156 8.82776833028123
Fe 3.3871675426161514 7.665047597945938 3.13994027526785
Fe 7.378059354869046 7.085317070234569 2.6118836472287232
Fe 8.802371669030393 5.771616486436118 3.9339809746351806
Fe 5.111879209341502 7.373341817740991 5.180277211379082
Fe 4.005187769278241 9.11470323973402 6.78750876192391
Fe 9.44568622451451 5.3284937817738305 7.809897058998542
Fe 7.398874448618602 6.136427238314441 6.60353722387828
Fe 9.76200080458238 6.490619233833675 9.810766743847376
Fe 5.137970631809136 6.255844700563925 2.6963117603352917
Fe 6.4825956033917915 5.450942645727692 4.399880611805003
Fe 2.5212544863697843 7.595475369661324 5.389342640708852
Fe 8.587988365156999 4.203038272500434 5.691921126750136
Fe 3.0297982516007025 5.127266932110848 2.573771598539791
Fe 3.8154028322429774 6.73853421954167 7.181897252377059
Fe 7.62432641498185 3.618844977921306 3.6289048856126724
Fe 5.720774026538922 5.906142047165495 8.448651184513462
Fe 3.6270511936133905 5.6001986659025516 4.644261599538805
Fe 7.768692423188038 5.097118083411102 9.468505959954754
Fe 5.143727584445771 4.874415353739984 6.349563316996288
Fe 4.940059263299833 3.7699610190107626 3.6812013481941683
Fe 7.118572170696813 3.8616685566541067 7.558585159149167
Fe 6.297373527646242 2.9287748925009938 5.480015997878339
Fe 2.3066155451426926 4.983087470838217 6.404772443104878
Fe 3.714450663288923 4.4345701297114966 8.204407451151274
Fe 3.65811885753079 3.174156141329193 5.584075940367623
Fe 5.660332427005772 3.672097536907807 9.39425784103391
Fe 4.922674721857835 2.4851594273294055 7.512615534744836
Fe 2.406994097875399 2.6511259736621215 7.537839733982555
