32
Energy = -217.39568212 eV
Fe 7.907570479188583 6.606044722486969 2.731053886511061
Fe 6.7342478908734655 4.483862363204296 2.700006627999565
Fe 9.083829222417616 7.443675815215241 4.7983223879259755
Fe 5.99166434926884 7.5230502390947835 1.8680930496621633
Fe 6.857338652716678 8.064389657583298 4.193982736848105
Fe 7.211592023117008 5.564015022568563 4.74804037575559
Fe 9.24532630274674 7.88268777784165 7.2086903976753876
Fe 8.293549256986894 9.49808669674433 5.668082431812605
Fe 9.021273768361587 5.570009772152112 6.206896242671609
Fe 10.260846667611716 7.194702489435524 9.454627830283474
Fe 9.490585687930565 9.375548819417467 8.962297240495001
Fe 5.246526597367846 6.144837316527929 3.4874097052481456
Fe 10.922515409222271 6.250362221218621 7.358152497828228
Fe 4.685642461727699 8.553223568342549 3.5729500152326703
Fe 7.038414710482936 7.169177475260931 6.577503311170501
Fe 5.887524245341604 9.533041295221247 5.770974226190232
Fe 8.729066777915332 5.687861643662871 8.518122544575288
Fe 9.14001509333239 8.350925848742493 11.13657413997667
Fe 7.262047265047179 9.673604795859644 7.834635743783773
Fe 7.705645604368192 10.145124208837299 10.391190357726108
Fe 7.049228100253357 4.6099758324222435 7.21973364367603
Fe 7.516962096955558 7.711517201159161 9.108693095557985
Fe 5.256158282383458 4.876309629613564 5.779323998449286
Fe 8.475659479258333 6.112038958560837 10.970608062836169
Fe 4.838614602186702 7.23675050208102 5.587191580463743
Fe 5.144365604639933 8.381634678066472 7.761870120219594
Fe 6.659684227878107 5.3512335072650945 9.69246425321129
Fe 5.25295853572021 6.044673491318857 7.924971827191731
Fe 6.826498416042529 7.900790364197433 11.346768306702035
Fe 5.609358268972423 9.373698507213435 9.732470651604126
Fe 5.0146470171111215 7.154413092234321 10.030251039131487
Fe 6.093468264002765 5.7562294629348845 11.957682484522543
