36
Energy = -246.16715317 eV
Fe 4.180351478006856 2.1914692105063565 7.511764092687392
Fe 2.993287301787114 4.093099168606038 6.742828349604429
Fe 3.696891174062867 3.624893221945248 9.226989784803358
Fe 5.393096541900184 3.032199490889734 5.679205059166962
Fe 6.221685010144074 2.99435654174606 8.473777529035843
Fe 4.249910220317717 4.7753282680037525 4.509969228897357
Fe 3.7516222999547635 6.500083105511582 6.332236730420999
Fe 3.361482565727137 5.900502926190973 8.660737262902265
Fe 6.78927390327113 3.810573066567775 3.9028016064377984
Fe 5.094063034834111 4.592476887489827 7.34332100758142
Fe 5.470693753473595 5.04040816636852 9.807041449832633
Fe 7.559743976603683 4.057504861367493 6.272734813271832
Fe 6.089395892746206 5.784280785507882 3.0171353726244394
Fe 8.148563084631508 5.0032477888340035 2.28383416128867
Fe 4.5495266675227235 7.287297625064367 4.157518991184414
Fe 3.8915368362173712 8.21592733769648 7.869030908699508
Fe 7.408981538864486 5.164035020194122 8.253095352019008
Fe 3.4841967210244325 8.79730411305865 5.691049471779153
Fe 8.370235156976358 5.647575040400088 4.489314336044246
Fe 6.085094892881532 5.78687000620754 5.546575404410283
Fe 5.613714368190318 9.554281712958128 4.297016402315189
Fe 9.369198279429847 6.4722313686389175 8.878814229471429
Fe 8.358324621384462 7.411943437825178 2.5941468147575493
Fe 7.104522758183797 6.94868439924466 9.748111478524084
Fe 5.5519183939408485 6.777744971154347 8.081425909876979
Fe 6.116740891309886 8.1305026541813 2.323709369866218
Fe 9.557203322330183 5.658678021256487 6.626287444790342
Fe 7.711464193192802 7.017513266325207 6.7704193473972545
Fe 5.6436229300984495 8.249776450927342 6.222382615814771
Fe 9.38953301788863 7.669752408006369 5.012807623748688
Fe 7.0579159585552445 7.761004702919766 4.354097706611781
Fe 8.638721271535783 8.6873879005215 9.493205899126611
Fe 6.636958416881976 8.978121849691131 8.250390043512823
Fe 9.639339619946991 8.266495018953682 7.276186239073408
Fe 7.709542231757439 9.3882623031296 5.982690440884179
Fe 8.602753465415645 10.317437114814078 7.891000630549088
