37
Energy = -256.26987982 eV
Fe 5.835624738424641 8.777278818600674 9.362824636397315
Fe 4.7724226584566125 7.764817356370355 4.962363471092606
Fe 4.800662828136405 10.052307929095392 5.690310880737208
Fe 6.278923305152151 7.911340452411563 6.82099083738309
Fe 5.75144705696317 9.249162329469213 3.169039732529837
Fe 3.5579300915364453 9.718916354293272 3.718747281619128
Fe 3.947214975148241 4.125098608924295 5.744700258429812
Fe 7.062370726634453 9.27260168389141 5.1126584215747926
Fe 7.482140460364391 3.5075939115688706 7.012168180289479
Fe 8.341190433918499 7.237635810386941 5.836392637126449
Fe 7.7093345234451345 4.826781732483499 4.288010290811252
Fe 4.40851463820794 7.330262452998542 2.640067147947236
Fe 7.938066207355205 5.731416235061053 8.05407773513687
Fe 9.27348256675922 5.068170274462613 6.0703509530427535
Fe 8.564552554122784 2.764383487394372 5.066986561851185
Fe 2.92145340084287 5.998110444611549 4.571623633190946
Fe 9.937745947432205 2.919628789335644 6.964276547450583
Fe 4.187469124183369 8.661873415484267 7.614033228061218
Fe 7.259847341771048 6.654956150234601 10.266797787971978
Fe 8.91945132410667 4.847410364430832 10.656590024983855
Fe 9.582740715971827 6.935453330843476 9.624843704885407
Fe 6.346869546731428 5.642293554394714 6.050342487016726
Fe 8.752507402281696 3.278519803770828 8.929379843979527
Fe 6.034926644760979 3.234716327322382 5.1812144693076005
Fe 6.797999962613957 7.117953202233079 3.914000390656063
Fe 10.075992737283494 7.264112012463545 7.36639774255785
Fe 6.662786340662682 4.35146426022554 9.606425588810954
Fe 2.639483147258914 8.40873059087418 5.753448797143607
Fe 3.9983006196049593 6.346414654934049 6.724770830456701
Fe 7.954019342721424 8.194957633773694 8.50051564137479
Fe 5.331244303455802 4.25899521793392 7.670432751324999
Fe 5.14206796669522 5.35145349045017 4.010358755050882
Fe 6.536724947415893 10.106604438259359 7.541781162691001
Fe 10.258993590225039 4.979201041026258 8.371434306706664
Fe 5.573609568549823 6.509691545476146 8.626356472967819
Fe 8.788474770808477 9.430339662020899 6.726473506344031
Fe 2.2724048837125204 7.868344026205492 3.4778046948133214
