38
Energy = -265.83620145 eV
Fe 10.484969131381485 5.569885758932801 3.9204617059996356
Fe 9.522598288850249 7.787529414364995 3.7163145948329324
Fe 10.839029495916227 7.180167098846152 5.7408768995376525
Fe 10.287940921658063 4.801435777512471 6.212061760906746
Fe 8.048271293113782 5.941627216309547 2.9319287013320587
Fe 8.661010260277191 3.9343665147603444 3.9327884083665823
Fe 8.921891550459115 8.684593980846193 5.839815975565776
Fe 8.641930566629537 6.108297708720867 5.388975361870668
Fe 7.181316765953882 7.801734937661804 4.330238517730609
Fe 6.568765571990865 4.041525185436568 2.67886072290763
Fe 8.332382546832836 3.2163184610302897 6.062403230813467
Fe 8.098663456850455 5.051259902413233 7.592076756394787
Fe 6.575324153150053 5.052163227723803 5.031085483332905
Fe 5.595604132788431 6.423118564104961 3.0140825430780254
Fe 9.473847145912144 6.971469060241743 7.6652094917789055
Fe 6.3191400395075075 2.7754886588789227 4.609561693859201
Fe 6.142967436542858 9.308141255798049 5.938000992566508
Fe 6.288532011158821 3.2568553403823204 7.134243562922664
Fe 4.9737750680714905 8.681633734055797 3.783619461398721
Fe 5.796487188213644 5.584810959370197 7.312086544793013
Fe 7.24082419928836 7.412975176062595 6.89843379863161
Fe 7.02709500784888 6.776310451792391 9.17999838419864
Fe 3.3729196364564173 6.8364129205057225 4.149326650253442
Fe 5.274110684932664 6.941610080225418 5.418531545964303
Fe 6.484062751557411 4.487227072842042 9.349303154330443
Fe 4.425744924332917 4.561422530322488 3.5925342702660985
Fe 3.7602610624686763 8.669205288313115 5.9638213498859605
Fe 4.49371350838921 4.21191021905658 5.820327630807316
Fe 5.062913658456873 7.975576285866503 7.840115651020479
Fe 4.233203404322684 4.054054377296663 8.36194914042156
Fe 3.502979677766915 6.174244953923727 6.854378603592186
Fe 4.592835958269831 6.266604833932797 9.380730101120335
Fe 1.6983095084021271 7.5626912846410566 5.787768101653938
Fe 2.2010793304729153 5.075158728287075 5.033312247015446
Fe 2.540924888021103 7.738848242743297 8.151958664914908
Fe 2.3554434934236594 5.455851534035041 8.982904705658123
Fe 2.36424415095189 3.83234138452947 7.02902228699131
Fe 1.006889933215038 5.795560316968166 7.096642664653953
