39
Energy = -271.48890899 eV
Fe 4.14157942288395 8.617881296111703 8.586175249406805
Fe 3.4061633911662677 6.322790233491542 8.810793470165253
Fe 3.9613401848619727 9.371545181288617 6.372504119670355
Fe 2.498152185650673 7.519323941577628 6.995619623680812
Fe 6.47109644391838 9.159833426822017 6.510617707233244
Fe 5.8687713480680515 6.951182563929855 9.067091378883193
Fe 1.4097331660515724 5.448479505718148 7.69791632713707
Fe 4.964637825014 9.046589522590185 4.225627830879232
Fe 3.7791138482346227 5.232116693832461 6.600776629771132
Fe 7.5727544672070035 7.000698182222933 7.306912672303851
Fe 3.6339531272340535 7.15953270663812 4.9143249248452605
Fe 2.8227140925551635 3.807533417102911 8.503232695657992
Fe 5.0815558031828125 7.28022520167338 6.815610615675494
Fe 1.6112158408798023 5.79584210756318 5.386680339482206
Fe 7.366234908023608 9.526501836987348 4.295830876478429
Fe 8.800564283871697 8.119276803378797 5.710254786567995
Fe 7.6500324776120125 5.325028844628983 9.057019051586677
Fe 6.21562367876229 5.1324232421411216 7.038311434349807
Fe 5.076945515584004 4.650256142923474 9.105416318786446
Fe 6.8397612810986 3.1481901342771392 8.40779326682061
Fe 5.495230697215518 5.211942935099871 4.722336492827506
Fe 2.3177644417718986 3.5398749444412507 6.123096908555556
Fe 3.26148262694915 4.852975133872226 4.0524935855022015
Fe 4.703461629452218 3.010506219391528 7.3039882773090214
Fe 6.517053786116399 7.361823455175697 4.774256082357704
Fe 9.826986435446443 6.33013431370611 7.101743721721044
Fe 6.811575767146325 3.177467849713842 5.893663546664325
Fe 6.471683816698453 8.283492204996891 2.457884362924432
Fe 8.603790664961052 7.517804321618567 3.3427386331266398
Fe 8.633217415735405 4.277200612595878 7.103964080505275
Fe 4.757617540081849 6.705835608272697 2.8988418378820797
Fe 8.062228019902653 5.556100357749777 5.154540074760505
Fe 4.444365986530874 3.0247880096495185 5.011265948078476
Fe 10.360959239029354 6.643595707203123 4.670076010395038
Fe 6.935520780929733 3.640006021588638 3.5813637021825118
Fe 7.002139572411285 5.860455864552186 2.7851645845470747
Fe 10.533345841951295 4.570625759323231 5.600785538579898
Fe 8.950409992022513 3.1164530866530438 4.755465527355223
Fe 9.28273299246927 4.942921717907569 3.2861739632493405
