33
Energy = -224.31482728 eV
Fe 12.618701452794769 10.503856222354854 3.663049272225287
Fe 5.726178947457277 4.49504181529074 9.687232635424397
Fe 5.054999385355612 10.916372404776393 7.6615297551944135
Fe 9.873540306361312 7.873846656918855 4.792893121885778
Fe 6.916493341120644 10.82525941919007 9.406923401833868
Fe 8.151019021280277 4.567679897010659 9.703351107497873
Fe 10.445445521289571 10.197761114470069 4.3437379979200195
Fe 8.68507859507783 7.270242566529157 9.893973112856589
Fe 6.992768568078028 4.96436062159432 5.958742841789368
Fe 11.329944951519305 7.166696692495002 6.728880959259094
Fe 4.2448666335259295 8.707040532664768 7.425915779443318
Fe 4.994296106402965 5.011091354136942 7.511776248826007
Fe 4.768631404616052 9.606833492352527 9.563521205397615
Fe 10.006273822896032 5.848637761482297 8.43193319730297
Fe 10.686676005404067 8.496523304286223 8.968057347352389
Fe 9.161644005555477 10.37638713460279 8.205672019156413
Fe 8.81055193366525 4.0208556509035365 7.452750942758252
Fe 5.504817767649743 7.021004805825991 6.4421782711188085
Fe 6.615619657870318 3.372323687773772 7.842144031775923
Fe 7.3865594495286055 6.199064581035317 8.01298775124136
Fe 7.273643451539675 11.26422549836776 7.044572433418271
Fe 8.595365632217272 9.688765289033581 5.860128363082129
Fe 12.163558079323764 8.550415603059033 4.772936701180189
Fe 9.387667270167327 5.792852697386639 5.988518426810515
Fe 10.982759634453014 9.607952655635852 6.711756089145288
Fe 7.599789198136278 7.41522063425658 5.561896066236059
Fe 9.13429183957639 7.8654586501294785 7.381926946158428
Fe 6.653958549322874 8.608231929824754 10.522631341360801
Fe 8.858291960873053 9.561769980685051 10.341547369265683
Fe 6.752923640976518 6.237437321792156 10.783122488447331
Fe 6.051649749676955 9.446910731732894 5.8071045978185465
Fe 6.96716901859655 8.700553053001652 7.97941988283417
Fe 5.1750497977355225 7.05151212405426 9.048901732454556
