36
Energy = -248.37745873 eV
Fe 4.082086504692901 4.304566633927657 1.2851147310496123
Fe 1.5340768109283391 5.411299492249951 1.6802555831161614
Fe 1.51698841465669 7.772221135282526 2.242968424283603
Fe 4.79794443525827 1.7595929375217847 1.393713588975991
Fe 3.5452029178611584 6.6406348292749735 2.3659397588275484
Fe 2.379675238612838 2.7951176963966713 1.9618686174629283
Fe 6.353470142414339 3.8086547933880692 1.94864342101905
Fe 5.2261325122814135 5.227364171530175 3.3396244954476884
Fe 2.941566811930432 4.549646812131037 3.488463972141582
Fe 4.579247055460628 2.7318930244441466 3.3669977857292017
Fe 0.7696933766615758 4.03550241450307 3.483730809880354
Fe 2.9527614706199894 8.343971312917827 4.177978510132364
Fe 1.351926415583743 6.404455326224904 4.063830604443935
Fe 3.110338616555355 0.7955484692314734 3.13612441440605
Fe 6.7924707683008085 1.7599884982708975 2.9951889339122246
Fe 7.396914501617741 6.17110815091241 3.771547696731243
Fe 5.232051337938728 0.20799007508578146 3.5708679389493527
Fe 6.8559568850969965 3.80487129819306 4.476011466269478
Fe 5.3544763583416914 7.656644655607342 3.8828564832111216
Fe 3.634408275740995 6.212147797568238 4.898785656787316
Fe 5.818068080793042 1.8812642253826741 5.35261126151705
Fe 4.36356845982016 3.9629828157655016 5.319483517559139
Fe 5.860887636301456 5.774379063979426 5.539696460063179
Fe 7.176336174089979 7.731403858760649 5.586866209218917
Fe 2.1163591135960895 4.591356221463001 5.8394496950551655
Fe 7.881774671012601 2.512963951335848 6.156022250945429
Fe 3.8552496613665848 0.7550505877249402 5.569837919478686
Fe 8.00556818975613 5.335417563278009 6.125167805699893
Fe 2.405921559531257 2.583555719866506 4.763761464598359
Fe 4.730424431962707 7.955193699254734 6.261960729038543
Fe 2.4286939960269716 7.24830493670041 6.433267630258395
Fe 3.629113267334586 2.675536570348778 7.020754076652155
Fe 6.0459844271957035 3.8202678852390988 6.9103441210626135
Fe 4.125561948177648 5.555762409013191 7.23825182887128
Fe 5.5687128464132485 1.408222623540139 7.486778652099855
Fe 6.315806861051476 6.550538518669901 7.600653660088631
