38
Energy = -260.70464487 eV
Fe 10.473521862774604 5.365804442286344 4.646373402998173
Fe 6.3404277004411425 2.514003830780461 7.726718623174418
Fe 7.175525930452199 3.63207699905789 5.781463984241306
Fe 10.8837793236018 7.713463938499294 4.518742786183694
Fe 8.270011204264613 3.557194099469377 8.39548991773305
Fe 8.471058349326729 4.469119956599886 3.9483312357455813
Fe 9.263182338235946 4.469694817180191 6.4503921975527465
Fe 8.817290085822991 6.971314431807494 3.7601025534546704
Fe 9.989814765524024 6.900672535129038 6.498227263503807
Fe 4.971537122367441 2.5637516917489873 5.7457963705171
Fe 6.151846185062817 3.617662613858751 3.6110307789650142
Fe 4.315279949061641 3.729736135665839 7.782782455744343
Fe 6.962624737364927 4.857807874430792 9.861275357508308
Fe 6.550139711156247 5.9504637746498314 3.610134019137389
Fe 6.342700929664361 5.054830848500942 7.573825974098488
Fe 9.000161055620067 8.835192383082275 5.393518168194035
Fe 7.648651771226712 6.1904517419864025 5.74858182308205
Fe 8.655246259177437 5.916361000816741 8.380484498012231
Fe 3.9142951733943843 3.032214711845554 3.7097084051566647
Fe 5.084508626712085 4.981916385264371 5.421811492583899
Fe 7.920186292896589 8.034480607821656 7.38824752807204
Fe 6.793659363586846 8.236549861824733 4.689551839763039
Fe 2.097143825773539 4.414907957641079 3.663244036571287
Fe 4.6451055614913175 5.476670026765922 9.411373708652466
Fe 2.8145366942178716 3.8080891571102993 5.877058712707549
Fe 4.1832359096665215 5.366330726408066 3.06984135440236
Fe 5.642339511689978 7.631287763134792 6.836542950003246
Fe 6.393960485843545 7.057905139002587 9.063946241097248
Fe 6.844000502918277 9.946344763040633 6.359218792055645
Fe 3.7627510502375086 6.009008803652483 7.19951085777306
Fe 4.61441517946276 7.215944491404263 4.67971072869843
Fe 6.366924058039622 9.500576481269924 8.721776130091042
Fe 4.1465930425217365 7.851108443131409 8.779150575599475
Fe 2.612856355833288 6.084460133533708 5.095387816204255
Fe 4.770609396854801 9.64854816829262 5.223670948123553
Fe 3.162004865833997 8.194217238435012 6.356059019524956
Fe 5.882825159816959 11.61388404447502 7.565723305544254
Fe 4.4394583033864485 9.852478304459806 7.520661145267731
