31
Energy = -210.21196345 eV
Fe 8.942542027409006 5.24706499691659 10.000001957614549
Fe 6.558841552093391 5.6005192431912345 9.982059599008746
Fe 7.892948026424707 7.41554057434207 9.339020492022104
Fe 7.273163246809805 3.9673992185142257 8.491577704407481
Fe 8.914045907641361 5.721271447195779 7.8280000077897425
Fe 8.623678343913669 7.807352357963977 7.0112858398768605
Fe 4.840763734648888 4.894274809845604 8.645082672873672
Fe 5.262628255307702 7.441165667481093 9.091207986476237
Fe 6.636977114585918 6.1834807806818155 7.459154211698379
Fe 5.543992766966655 3.685823953976986 6.748049641361971
Fe 6.816872695012671 8.999113323835191 8.040878595413956
Fe 7.730157863355185 4.56343229614575 6.195963909216415
Fe 3.1247505672350413 4.275046405366956 7.027177457692267
Fe 3.5929928943258087 6.567355935170466 7.625027421747711
Fe 9.686166806070169 6.034426834378431 5.504753922076534
Fe 9.21255561060017 8.321797021090708 4.8083215874010765
Fe 7.029132988573633 9.132597445312838 5.545096550366642
Fe 7.218301903393225 6.599505801962243 5.206041021271262
Fe 8.478052979553837 4.593859022136492 3.941884169836782
Fe 4.844168552525447 5.78579512094013 5.866775440702585
Fe 2.5282476925656767 5.286535606429486 5.020168860086651
Fe 6.131506557169152 4.43796989133499 4.35872118724099
Fe 5.21213666944289 7.975959827458568 6.619425924515999
Fe 1.5898816140276653 6.296075063103674 6.996749072088647
Fe 8.995526479950273 6.648815634330378 3.1808818568683805
Fe 4.011190203132276 3.4862992125518173 4.884062985375736
Fe 7.271061669495628 8.385221119396952 3.3002424115600664
Fe 6.6937512500238885 6.1186584697428055 2.766800147148707
Fe 5.239519944244614 7.709946748746763 4.227417319730814
Fe 3.1415153664548368 7.527524898864211 5.4105514518311795
Fe 4.267500957754204 5.734599163358296 3.501207596068605
