35
Energy = -240.92528009 eV
Fe 1.6182579157117394 5.879531085180706 9.05205210756267
Fe 1.4380956731788301 5.835979727191857 6.646702165173906
Fe 2.688855621958787 7.5106481110072005 7.677223950951667
Fe 3.802264672163796 6.442161858688329 9.94311149925098
Fe 2.882759073918952 7.40612818808131 5.152737029504333
Fe 3.5271074358841625 5.286027364720067 7.836143631136033
Fe 3.3606730482392804 4.906293409302777 5.40649083979538
Fe 6.570388621758904 7.674537798053031 2.537262276695331
Fe 4.097393632336075 4.024340520701818 3.2836390860308815
Fe 4.121146514505218 9.005852015169193 6.443024265323977
Fe 5.01643638297293 7.726962930232701 8.376104902007922
Fe 6.280317121609719 5.037559497215713 2.6631198870169674
Fe 4.467737271086029 6.31225079250417 3.6296820197972663
Fe 5.002162338344294 6.49905279425881 6.230571183094721
Fe 5.736006946884734 5.400421791870775 8.641901131389133
Fe 5.150570495875591 3.7038284095817495 6.988546977591917
Fe 5.11332096112469 8.489262970686717 4.384064358202852
Fe 6.213638922180242 7.1096014717934 10.303907952458806
Fe 6.464238955949105 8.441080970601282 6.431200159050635
Fe 6.937332335971524 6.668670917489067 4.56899809211042
Fe 7.488422264686117 9.076348142374163 4.355460049740415
Fe 5.713173637728777 4.484611396656728 4.833730404522483
Fe 7.289590280676631 5.38790554032815 6.553355021094028
Fe 7.3817509552482585 7.206346350676464 8.227991545909902
Fe 8.347584459900895 6.025954553747032 2.200709889516024
Fe 7.49653267059083 3.651243499120705 8.124946639763381
Fe 8.698239729470918 7.70579271030074 6.2150928044073295
Fe 7.714079552661723 5.305801029557401 9.846557934068814
Fe 7.15906066381821 2.90829223221044 5.77290450896477
Fe 9.155081764623455 7.391678420353503 3.80649806461393
Fe 8.15769002620893 4.617151535836362 4.288825377207285
Fe 9.208080939735439 5.664081665874026 7.941503333677848
Fe 9.961271318539906 5.859624485613437 5.6115030548513944
Fe 9.26932627710696 3.7801560902939806 6.390449980996766
Fe 10.154836414948834 5.1362900647848155 3.4369062279248954
