32
Energy = -217.08935738 eV
Fe 4.975012996583869 7.1382491338907075 10.498765540944914
Fe 7.140147697684685 8.237483438308473 10.45380728766048
Fe 3.9786726922470272 7.0816396365157015 8.280567265301173
Fe 10.814066425554682 9.92381558495707 7.81176013366741
Fe 6.192994730044742 10.529640468524274 7.187935538160583
Fe 9.443413309023047 5.6598868671179865 7.2958972392156864
Fe 6.913536728754938 6.921929831379733 4.462278285928791
Fe 7.541299545667032 4.722405402150477 8.625827226755014
Fe 5.634845382677295 3.754108563600249 9.793543171469178
Fe 8.662053416271629 10.874673663282051 7.495686438711281
Fe 5.239547385936208 4.99796695080269 7.753344004668975
Fe 6.635263556709511 7.274745378646826 8.168506746570541
Fe 11.329637098462905 6.386046053629655 6.038089408967904
Fe 4.397936796760745 8.987034212429105 6.865457594949502
Fe 9.142736261138353 6.21292218150718 4.907166813779858
Fe 7.220877913257273 5.525943383550997 6.353786525332559
Fe 10.691342349349366 7.949740373894025 4.390148116136427
Fe 7.735688257305461 10.672442776821576 5.335173848484449
Fe 4.892974549018584 4.9808639790159335 11.612236151523426
Fe 7.198785530244517 10.353240292466088 9.310698030707508
Fe 10.922115070635064 7.519304214293736 8.185511339035248
Fe 6.981613928993326 5.811703181684721 10.673187984051856
Fe 5.10430753444702 6.827191523587128 6.077217552047093
Fe 8.410729957591135 8.697446234074771 4.197304511714384
Fe 8.745542254234284 8.097723624385328 6.766350849174091
Fe 11.98958423397484 8.63271583901799 6.27000273957028
Fe 9.2000954444133 9.064796301692954 9.283568896120617
Fe 3.688157887548396 5.036292117063021 9.612728639144564
Fe 6.0542651556170455 8.986740143570001 5.168115144719435
Fe 10.098275182355644 10.049023671895203 5.538984950495576
Fe 5.141434113800022 9.17237660608608 9.11966375710318
Fe 8.806032974103827 6.714577823350701 9.30522444599657
