37
Energy = -253.81939045 eV
Fe 6.823499486757502 3.8544685508159398 4.0326574582213865
Fe 7.287487107022173 2.1441335329002382 5.578474437783478
Fe 6.429913871051252 5.686762353184119 2.55744254116122
Fe 8.698215676509445 4.032076247240434 5.970725716126074
Fe 5.792671955219512 7.810552040272361 1.5099727357907602
Fe 4.183776117281529 6.671366881196672 2.7148023489268884
Fe 8.217433184840477 5.859314511557688 4.374707747843132
Fe 7.362067609945554 7.88269005735894 3.1856138671091365
Fe 5.127246394628522 8.621737852288794 3.6307282463640074
Fe 7.008671013048187 2.927451460820152 7.753801197818029
Fe 10.032910030558057 6.050596239923863 6.253804012578264
Fe 9.165993139703707 8.017206360045686 4.971101670926836
Fe 5.856291786758344 6.5129845671830005 4.780352384922892
Fe 4.534250134382644 4.638953729309963 4.09800252752397
Fe 10.811464976609868 8.202869258589512 6.583970779804761
Fe 7.751610108268048 6.679914143535854 6.704999715957288
Fe 8.687642677963922 9.101555925725998 7.100513289337956
Fe 5.035490095371229 2.798380621254106 5.676479505874738
Fe 6.427110568216338 4.671177896903863 6.231215414628087
Fe 3.4892824164104086 7.049096433053933 5.039314281068589
Fe 9.56780848854846 7.241511818319327 8.371379075228988
Fe 5.6059805223316275 1.0183271214173237 7.24407417081044
Fe 4.49197168563368 9.02727717864454 6.02080136567975
Fe 8.439060698174062 4.937966156615674 8.195049693626135
Fe 6.845621402777908 8.627702677742176 5.517411663179337
Fe 4.057478359051317 5.128418163129809 6.492078371942633
Fe 8.360750551577002 9.141789795377763 9.425049352508484
Fe 5.337446994947774 7.092759187928587 7.1169580571896445
Fe 4.672970508474584 3.2976205920928296 7.961005042338286
Fe 7.28866533949837 7.150805797489133 9.024196280575971
Fe 5.978780090147359 5.194326588772501 8.529134381641981
Fe 2.9654885439103773 7.381547077050473 7.388634542170638
Fe 4.012539945199217 9.25419406107415 8.309438271155885
Fe 3.6524603825696245 5.6162925147987295 8.792498602197131
Fe 6.397393884760694 9.110829301027081 7.9454079300055405
Fe 4.939229405854073 7.460912574422822 9.48962215974899
Fe 2.53470620126044 7.580117129872508 9.713334247240565
