39
Energy = -272.22567635 eV
Fe 5.6757482325882505 5.478124794665924 6.81243221347151
Fe 8.17785843990075 8.375481877823077 6.81243221347151
Fe 8.609316281616634 10.347871038566696 5.303060690500489
Fe 9.59864870386679 9.77458338116633 7.844632297880701
Fe 7.25633126375055 10.677877717444202 7.217432552750401
Fe 10.311614491129026 8.727835940745987 5.773279313169229
Fe 6.340194367921429 9.34877308733138 5.359879292383413
Fe 8.223764291683072 7.57895606382 9.12046371060447
Fe 10.18734218119535 7.243387412200846 7.704326386213638
Fe 8.364396475685165 8.32852417513167 4.133875179223002
Fe 5.9999299143469775 8.145290143453572 7.665402201392202
Fe 7.853676758142022 5.708316529035428 7.665402201392202
Fe 6.9268033362445 6.9268033362445 5.613576643388482
Fe 9.23693354165561 6.508505855533038 5.52258543267343
Fe 7.513412304567573 4.50483358515762 5.359879292383413
Fe 4.616673130833392 7.3451008169559655 5.52258543267343
Fe 5.629842380805928 6.2746506086690035 9.12046371060447
Fe 3.6662644912936506 6.610219260288155 7.704326386213638
Fe 5.489210196803834 5.52508249735748 4.133875179223002
Fe 6.5972754087384535 3.175728955044797 7.217432552750401
Fe 5.244290390872368 3.5057356339223045 5.303060690500489
Fe 3.541992181359977 5.125770731743015 5.773279313169229
Fe 4.25495796862221 4.0790232913226685 7.844632297880701
Fe 7.807564070852138 5.997279353018078 3.5043135555254397
Fe 6.046042601636864 7.856327319470922 3.5043135555254397
Fe 4.206228192532026 9.415944268508545 4.665047377920908
Fe 3.7762544623814858 9.014423009886512 7.064550303410228
Fe 5.023143432082458 10.90750115 6.634274806299339
Fe 5.3079465092808045 10.17642924338334 8.891536650637525
Fe 4.035478359036745 8.244586450611697 9.366905909193719
Fe 7.605860408777 9.826293799826976 9.3459811463769
Fe 6.207056652499378 8.173281101168543 10.335897714543053
Fe 9.647378479956974 4.437662403980454 4.665047377920908
Fe 10.077352210107515 4.839183662602488 7.064550303410228
Fe 8.830463240406543 2.946105522489003 6.634274806299339
Fe 8.545660163208199 3.677177429105658 8.891536650637525
Fe 9.818128313452254 5.609020221877304 9.366905909193719
Fe 6.247746263712002 4.027312872662026 9.3459811463769
Fe 7.6465500199896255 5.680325571320457 10.335897714543053
