35
Energy = -240.28537407 eV
Fe 10.829029970752446 7.200231638455882 4.106146646492171
Fe 7.2887012393085975 5.892588236011799 5.685309101888589
Fe 1.9522811475764807 5.400062767744349 8.177566700791596
Fe 6.33765782349959 3.6904580007567938 5.111596499242746
Fe 10.448731836381697 5.261827108354777 6.988440358741326
Fe 6.328160979467909 9.016348313118487 9.564665635982752
Fe 7.773848314406734 10.705773946538674 8.429807095575478
Fe 8.24344001738832 8.441463114974985 8.104963768270991
Fe 4.506813890163523 5.376780692867078 8.51442040063324
Fe 6.142704668067174 6.992062159141285 7.799109826541624
Fe 1.6041641332058798 7.813694381214538 8.117748676303146
Fe 7.353597584205555 8.19756582030632 5.77309596583769
Fe 8.999493301837076 10.049133410403915 6.475736559081589
Fe 4.846230780181065 5.310718361062435 5.9573081610572105
Fe 7.192448934550507 10.461599136420912 5.074022422890686
Fe 9.129132754831472 9.127325495001601 4.261992900296303
Fe 5.355081355271439 6.881375791440424 10.205514538130364
Fe 8.34187214232496 7.045233262832155 3.6368695881798954
Fe 4.22174487922306 8.336049637471081 8.430420927334673
Fe 8.534577663998386 3.8078926914974374 6.054544450994746
Fe 2.878071110898036 6.791750583077437 9.731089356020991
Fe 7.81826030405022 7.175830362031246 10.062493588660468
Fe 9.603451232607773 7.475687002938476 6.070640613298254
Fe 8.576486223803185 3.738075701999968 8.525302943013001
Fe 5.932373382184806 6.160481682924813 3.8929590632492577
Fe 9.528989013793755 5.552720426850962 9.604923683852926
Fe 6.545785198275089 4.4887472064322775 7.442934111182441
Fe 6.973753223405511 5.069736764156457 9.712367728493152
Fe 5.104067604900387 7.825506411115517 5.6372784553133855
Fe 9.572074484337389 5.410114692054203 4.79772293373735
Fe 8.451708679983314 6.088121901563996 7.718307961676242
Fe 7.799603546315083 4.577004833624773 3.554565099154298
Fe 3.3274575088178096 6.787473390716738 6.964120425751732
Fe 6.1138472380967785 9.638984782518166 7.217226634511295
Fe 6.556536086324853 8.626768030363035 3.600298421867221
