34
Energy = -230.88164516 eV
Fe 6.264688940490178 9.704703557980293 4.784937543929592
Fe 8.653857063689156 9.510492001782247 5.068454404610442
Fe 7.292805265845269 11.162171009462226 6.554499783242444
Fe 13.077388845087379 8.731706693008773 7.098008466568209
Fe 7.114747055215094 7.485783826177379 4.803818444760626
Fe 11.05851795132516 8.94927627234729 5.790966392304594
Fe 9.735617386703506 10.495320947280437 6.898341864207782
Fe 4.631340323971182 7.904657099480764 5.056714237278185
Fe 11.313791927326909 9.323980991753219 8.461118407738589
Fe 4.946221503488993 9.797724267350388 6.704458250612691
Fe 9.186238690415195 7.316380320935805 6.137286273694814
Fe 5.576226228736992 5.709079727330722 4.710838797984296
Fe 7.295658139221504 8.764277817361423 7.090815672078306
Fe 7.682866864557226 5.385150274030862 5.968060607273803
Fe 3.7791986902757064 5.695939076971776 6.312747653715291
Fe 8.379219114155541 10.632506075658736 8.752783907619841
Fe 11.438780789415187 7.055850975123299 7.178584656537002
Fe 5.697778129718984 6.942609520593208 7.106823290794496
Fe 5.664888661245758 4.108475988866541 6.429067645960255
Fe 3.293439615817797 8.042909132941558 7.008595673060907
Fe 9.260626533536428 8.374623266391033 8.581127284352975
Fe 6.053155720284811 10.69250401401456 8.595931717516304
Fe 7.748621736993859 6.508466583869139 8.279545018033108
Fe 7.078392074416529 8.72905761323281 9.617308858113113
Fe 9.767205112177464 5.31208615948046 7.485443018807099
Fe 4.767971289932097 8.639447077766391 8.882941590496248
Fe 10.73686402729935 6.670146687303142 9.385352308534566
Fe 3.7206756587567664 6.411257369033914 8.688019401053056
Fe 7.711110238171655 4.008002602553124 8.041217151568038
Fe 5.464846386743257 4.785847411135436 8.626775063968825
Fe 5.866297080696248 6.750736118186008 10.046956845174337
Fe 8.518273794272314 6.764414557900975 10.577992691041915
Fe 9.434430542535745 4.697090667307437 9.752049920295613
Fe 7.166216557729553 4.711918675034544 10.337050376192114
