38
Energy = -265.21146078 eV
Fe 4.582674180450533 6.202815390593004 2.3298508818011503
Fe 4.43613928631744 4.01237647120787 2.9421031108778215
Fe 6.80318129110288 5.218637173068395 2.8347626693636623
Fe 5.0156900932843484 8.662698527099476 2.053482969766148
Fe 6.330742312475644 7.4747782589238945 3.4277907090784505
Fe 6.913036907623916 9.81474272088027 3.8842686391469576
Fe 6.403183652994379 3.332503138571523 4.113563049055923
Fe 8.39401188093254 8.052663722733055 4.423275792976923
Fe 2.9569201347871803 5.273578647598862 4.430492560046827
Fe 3.855445507488507 7.570889944336215 4.045405335272579
Fe 5.191771971764648 5.549800760254007 4.852222791493678
Fe 7.4308259025764745 5.94927488570455 5.064534638321122
Fe 8.618150383717447 3.96490032506451 4.847943103131079
Fe 4.120641732095484 3.138323375401293 5.115432244711722
Fe 4.657044359640234 9.811157110863228 4.022718358111567
Fe 5.901057133215541 8.020635213632206 5.713561932707409
Fe 7.803237958523736 9.806972085919789 6.081838052480187
Fe 3.6510918814925732 6.818205712898935 6.340497995489457
Fe 5.709819868046589 1.410166769372126 5.549414476211372
Fe 6.434862387779758 3.860671801588887 6.445334556093431
Fe 7.908783060129419 1.7832412038544234 5.37819513647949
Fe 5.538078144914549 10.286736448308034 6.274621692176967
Fe 3.341012719619471 9.110418070537053 5.8593574418748915
Fe 8.849389479220653 2.8976136949524274 7.149461264836672
Fe 4.42937381930557 2.298344907864088 7.379764445348404
Fe 8.308976958682836 7.53912580530951 6.699785584886503
Fe 8.644891432887297 5.2524385187094556 6.991058856662273
Fe 4.056222999233254 4.61904499054796 6.890817821732356
Fe 6.105650069029657 6.189175436479985 7.470801263493895
Fe 6.785861862342339 1.932605930057513 7.7304930911277
Fe 4.567027456268711 8.419292801801834 7.77869663197995
Fe 5.28200124831314 3.9283687492693957 8.851195423693147
Fe 7.582563765663966 4.207831360457944 8.764681015106285
Fe 6.863791014819166 8.838398249654599 8.075567216855
Fe 7.937183023135677 6.780134380864844 8.932899564150182
Fe 4.139575020118755 6.139522709831534 8.821152132375236
Fe 6.312043939889775 5.602022008685048 10.17652209719353
Fe 5.639110502461882 7.730958039448751 9.7575007962362
