31
Energy = -209.84186694 eV
Fe 9.621030653176952 12.225401181245099 11.597299619374153
Fe 10.423306979796441 9.02366700005002 9.155282455641972
Fe 8.539089588813281 8.698593741189013 7.399911450386259
Fe 9.950413892740897 11.344907083738585 9.348366209195625
Fe 5.7716375201104375 7.096306737349134 5.943275173778243
Fe 3.749592572911992 6.634285598393828 9.632763507810814
Fe 5.645489332582885 5.353968980569844 10.00343042753992
Fe 10.332906140455997 10.31400474517353 7.067025732421476
Fe 7.9493576652353015 10.988280264248347 8.035221442860252
Fe 7.711011247443552 8.213178491109943 4.815525760833953
Fe 7.740275225536566 11.146124623984962 10.44187707456429
Fe 5.032557974623437 5.698828460234829 7.787237799559156
Fe 6.776303567483444 7.405139568717252 8.406485860710026
Fe 10.042078937106854 8.866748688078058 5.060985461366862
Fe 9.680279506598895 9.928852444961844 11.35299118454695
Fe 9.864703875575739 6.457436195174767 5.0151377324340904
Fe 9.262071728526308 6.845825265738958 8.869169996330553
Fe 8.102257878988283 6.53319972173121 6.621462309195935
Fe 10.701538622562481 7.680881394877449 7.029511554910521
Fe 10.083957087403517 5.28827399900533 7.220539765616951
Fe 7.5943140251624435 4.952145456122542 8.376785392474213
Fe 6.049210182853079 9.879807668966182 8.986367171442254
Fe 6.3723429601442065 4.658230628696403 6.08065015610408
Fe 4.580297582097032 8.188018785551815 8.00403648128416
Fe 7.488162036770302 5.846585668875937 4.334850308217901
Fe 8.653389199461069 4.297833801760023 5.6609147664261235
Fe 8.04341228585161 8.800132810040248 9.957432560866664
Fe 5.56531130715466 7.905758039003049 10.42870018249042
Fe 7.5809618875900115 6.441139912573912 10.57416804176526
Fe 6.380990847912273 9.373514778618823 6.612099829771266
Fe 8.387087616756475 10.437299850150362 5.637180150342984
