31
Energy = -208.81911452 eV
Fe 3.989244950451567 7.093038988769761 7.46360789635797
Fe 8.100066143400586 6.542147522589191 10.057341361718816
Fe 5.138582394452027 11.398762115451762 6.819375690188551
Fe 7.747488104960533 9.284274968076348 5.8994192450495335
Fe 4.341305377161545 9.54457381716686 7.979369854260921
Fe 9.840453795671905 5.087021563227529 7.762155702650299
Fe 9.006564867115413 9.084294044444821 10.104300143211038
Fe 6.287992122585099 5.988405579907937 8.372057902040638
Fe 12.360418886514884 7.73875163964179 7.915836327252722
Fe 4.281472937562202 6.909294165566979 5.100695409367835
Fe 4.097922113079278 9.315604197709968 5.648733145438239
Fe 12.682413675498923 7.948989900905764 10.18459524419812
Fe 5.921647750798049 10.733418344352486 4.784954928834706
Fe 6.671766081710218 10.234798761883331 8.388100386949965
Fe 9.199019284039927 9.914517516280661 7.773633209495026
Fe 10.011160951715413 7.491625664112984 8.453103785065066
Fe 5.639193049398312 8.036450591838811 9.299912359450637
Fe 8.44416321209242 6.8089477443532385 6.649017043994034
Fe 7.915530208918153 4.3063692768195105 8.933178175472293
Fe 10.435523455564535 7.135740080811285 10.921031206073492
Fe 11.813856300061948 5.877763552316863 9.28993348325689
Fe 9.877751485576512 4.924664792435666 10.153189697926548
Fe 7.729874624880182 8.161617698768941 8.410432743645318
Fe 6.09537910025731 7.846984029948596 6.731471640779733
Fe 5.135105307135157 5.159192573123685 6.501857791919498
Fe 6.6478022960638805 6.175235349808193 4.989280322519283
Fe 7.4663073319725575 11.51722087921816 6.4572758896026246
Fe 5.917491819268046 8.397987873465727 4.302884488882938
Fe 7.520175575092263 4.645428805967849 6.627942540718967
Fe 11.133508842426767 9.374081013239211 11.316265601671391
Fe 11.285217283649333 9.593983250403713 9.054959892666481
