38
Energy = -265.97851942 eV
Fe 5.418842935477249 8.799958263553215 10.160675152445057
Fe 7.875714356928908 8.548384954226389 9.381866385537016
Fe 6.505680958894406 6.660888005241174 10.373691299439118
Fe 8.847005013029774 6.112240550754466 9.619869918358972
Fe 6.427227592565985 10.239554166701097 8.338096322716677
Fe 4.020569165007254 7.123204040841027 9.11813271837911
Fe 4.203764230019395 9.410663065488412 8.116708299312704
Fe 8.729013398300287 7.372908562275629 7.514215860961711
Fe 7.132434650847435 5.624750141054565 8.203993186820332
Fe 4.994802794030037 4.9767279875232955 9.84403383069717
Fe 6.087516682134809 7.816825068048854 8.074521296947365
Fe 7.877996985107842 9.26037696899318 6.650677781393103
Fe 7.296503669496563 4.221405480917438 9.997981959594938
Fe 8.266287922279103 3.47204669839377 7.602889202512168
Fe 5.6101149281231955 9.410957442802651 6.083945381619734
Fe 2.8224537212833076 5.269148069157981 6.30051731195771
Fe 4.856977853399143 5.511857678747239 7.41298830948455
Fe 4.093332565097072 7.529551139959851 6.532290903433929
Fe 5.784300615182743 3.4610920389532844 8.162907018051078
Fe 2.637764391779813 6.901665054784351 4.682922421495738
Fe 6.693867663844069 6.969948274276196 6.0469368805743136
Fe 6.6742656761696155 4.31316339651593 6.139496500519767
Fe 4.963363020902608 5.698868443014128 4.84907340393486
Fe 8.818670799473136 5.329653999418702 6.371755223574465
Fe 4.798039569769858 8.029079382296132 4.221288581377769
Fe 4.349107333001813 3.4538378198185047 5.975978404572209
Fe 3.352322226706377 4.360734554650756 3.9541743530657114
Fe 7.328138038991024 5.6306005165843995 4.249023871905073
Fe 9.041863656644855 7.446603178266103 5.005927022773432
Fe 8.434507584138766 3.4724594313568495 4.710591725082943
Fe 5.952386097103564 3.2892340483468714 4.163412512263729
Fe 7.170978539879555 8.48015615050049 4.132845856400515
Fe 3.7675284483607188 6.411420874369754 2.6986925429487667
Fe 5.438768841749736 4.677586801940739 2.440651948697798
Fe 9.74817802791483 5.3092619411622755 4.065030109388522
Fe 6.195043475107489 6.878928865640905 2.5143253392097664
Fe 7.906673645717623 4.422889326908709 2.4372544742332214
Fe 8.604842786201752 6.839401159878849 2.5937606400093536
