30
Energy = -205.38567188 eV
Fe 9.118108377644258 5.394382933842178 7.489152004370254
Fe 9.421936297335737 4.604864655237197 5.093255933671808
Fe 8.409701210575072 8.133260404815527 7.654420082481054
Fe 8.53491205247777 6.7175143785538065 5.60639774456747
Fe 8.248726923621073 9.087451246891598 5.45592129453626
Fe 8.741656130475555 3.082600247648006 6.8289786493907245
Fe 6.9619574471079995 6.219396765401593 8.153624806929109
Fe 6.792960749908777 9.988080765227892 7.158394296587878
Fe 7.424454633295571 3.918368550952467 8.51928131815943
Fe 7.779837023939916 2.8903716097682546 4.623366847632265
Fe 7.60601570634301 5.142262848697995 3.6031549774469536
Fe 6.779905416106539 7.263193952613963 4.083510525184643
Fe 6.989568749878172 4.942219805156331 6.030328791915
Fe 6.1829863166908074 8.389389879703794 8.732412433975004
Fe 6.325114045670439 7.571151152468316 6.319564340575605
Fe 4.558751675627575 9.133555000016518 6.798345806236721
Fe 6.030860384312453 9.634822214996214 4.912587056691039
Fe 5.713026139898999 3.877882586790926 4.532414412770833
Fe 5.107829206560534 5.769653503769997 3.2336786563980957
Fe 5.245796196469803 4.433216289779504 7.653969341187401
Fe 6.381992950967432 2.6099883844897342 6.574544000447823
Fe 4.509557484397444 7.898640447211958 4.57233829772712
Fe 4.5205280902276215 6.877434076218515 7.758836363016434
Fe 4.639811517331466 5.717842963281377 5.624385730331071
Fe 3.50396917842283 4.055017419205417 3.8150312708107945
Fe 3.89901463956399 3.326826634448521 6.046407667590548
Fe 2.9423791538162343 5.082316624642742 7.677315901504208
Fe 2.84426188773837 6.359609007306015 3.8558346443851925
Fe 2.721580137401428 7.125404737402634 6.107558150980143
Fe 2.071848735069746 4.827827114649411 5.584944031882815
