37
Energy = -256.20643398 eV
Fe 7.112372036570371 5.767528435566914 2.107175765664982
Fe 4.70564740439473 5.548087818642563 1.4377475952631797
Fe 5.597228528586698 7.811734600475778 1.5746040848849296
Fe 2.2757488735882214 1.6529893420611406 2.9406565161765434
Fe 5.65401266210707 4.1190053793252694 3.5177248809192196
Fe 5.339523747264051 2.739768785429164 5.560162832427904
Fe 7.250440585803351 7.804168066277712 3.458301924456561
Fe 0.8665067508555834 1.9450281457312821 4.785669604235578
Fe 2.279099582241956 5.641462085844732 1.4662921607138468
Fe 7.194956250778602 5.68372671549093 4.759694715720131
Fe 3.9341753505429957 1.664552910874917 7.194842001679408
Fe 5.329719847929082 6.561196130090313 3.5722295223065537
Fe 7.644170850063961 3.409186194421611 5.520370355889397
Fe 3.321718623457318 7.593858178887724 2.557207264497636
Fe 3.3088498350436346 5.350828103528622 3.587220311558449
Fe 7.036176008671561 2.0524097024400607 3.4995365104485963
Fe 3.6428363636790992 3.474044233174855 2.1587854898557945
Fe 1.328247446307708 3.873195430220791 2.9804151254127524
Fe 5.131829559224809 8.786610466997343 3.897042249078122
Fe 3.2704337617117103 0.9360336704721187 5.065068721001238
Fe 4.744320568323897 1.790836110502704 3.3722771547916417
Fe 6.232747908561374 3.4297616624287763 1.4857624335300776
Fe 3.1261540900106706 3.2904605051790052 4.7371586160705785
Fe 4.796873805022525 5.193748180430901 5.458498850337695
Fe 0.6155794232112934 4.2971944207351624 5.101371720431593
Fe 3.4676041994491182 7.435308803209851 5.065747455459231
Fe 2.483363087178592 5.4132549960406635 5.99808148943424
Fe 8.228615056450373 4.012019287797924 3.260713254330706
Fe 5.816395510785115 7.483146303959606 5.777397867864549
Fe 1.6943042650592104 0.7995160881661272 6.732182032512285
Fe 4.042294157970609 3.9830510279280107 7.388069181019642
Fe 6.833903467100696 1.1098946215846759 5.710649429302036
Fe 1.349122352825524 6.410205315541352 3.836098661276052
Fe 6.405233985346796 5.025027986564314 7.046760836213268
Fe 6.2825891757995285 2.739817974133345 7.651033544956831
Fe 4.255216023892614 6.495042432703912 7.313236888459204
Fe 1.8109163331551188 3.08522736610435 6.833140430784443
