35
Energy = -241.3322118 eV
Fe 9.54733551448158 5.150607112032003 5.307390395767633
Fe 10.168106094812002 6.585796694796094 7.241958445689704
Fe 8.769786029475716 3.4712364349980267 3.736621582239128
Fe 8.424779095109379 5.800543823852271 3.4189877758737914
Fe 9.266476985515638 7.612255100162549 5.168530721831846
Fe 7.900961065526271 7.528449623395785 7.324015993145381
Fe 7.563940535576363 3.730114047371082 5.725959853178501
Fe 6.626585231533408 8.012401321754398 9.302109243735238
Fe 6.916988299606602 8.472059342220746 5.326481244194075
Fe 8.387153924591589 5.0537007430926995 7.598416415964827
Fe 7.8805916312650846 8.11792934823486 3.209784745952754
Fe 6.181805029295165 9.375271665290773 7.3671989899136925
Fe 6.501985448741732 4.256036478021567 3.707354207696695
Fe 9.034114670300886 6.917372746141028 9.255975537262959
Fe 5.994092619115304 6.664778761056578 3.5614952071806045
Fe 7.27408379513874 6.046643860104739 5.537172866285507
Fe 6.297352570655145 3.672547951536059 7.750575700950194
Fe 7.042141988532501 5.602583483184936 9.532991101529857
Fe 5.871131568614861 6.088629016492789 7.634003047646283
Fe 3.9584724065451624 3.8701403453095895 7.183747554105212
Fe 5.301798113808107 4.796642694310772 5.5500048235824675
Fe 5.672678842805186 2.552227807168202 5.243460347510922
Fe 4.618685894057475 3.0733773649976905 3.0199567106312584
Fe 5.434604013504121 8.919466085023666 3.572207112593661
Fe 4.304288882051673 8.268158458329088 8.032609105869847
Fe 4.846105395339528 7.155836053679063 5.732203576428286
Fe 4.032520649049237 5.263191822326755 3.467100818811703
Fe 4.734691648225755 6.7666947779949425 9.849149105682484
Fe 4.762719194046198 4.482057772901221 9.348377127606023
Fe 3.2958248084390354 3.3566101829968207 4.858401375377601
Fe 4.378410972904554 9.430438722019222 5.690876465394403
Fe 3.4292998348208568 7.684773670974216 4.008373811195204
Fe 3.40756537903207 6.0714864943632305 7.826549749911828
Fe 2.853068805370474 5.650252028753582 5.479664712072319
Fe 2.510784771947902 7.884318468908033 6.36390430863752
