34
Energy = -232.46331625 eV
Fe 12.0054567214443 9.643208089216614 8.009940394083142
Fe 8.417015032943572 6.821158672814557 3.7942259858690166
Fe 9.079285049331151 8.742429014823363 7.740940690676886
Fe 5.39201272786975 9.849252544620303 10.067675843094726
Fe 8.39484322897854 4.455290037380453 6.886966770886443
Fe 7.6765214914479145 5.983530518071007 10.807606740741543
Fe 8.665492936991733 11.656190052284543 8.859306232434205
Fe 5.194587843197673 7.222689053146795 7.066701160229648
Fe 7.83618996799077 6.844763158897931 6.669539939427346
Fe 4.371149444053079 7.691348331034592 9.582315958832089
Fe 10.243583248089823 9.970592450793303 9.634804236664037
Fe 10.560873825310871 5.80888921348127 7.127547849417639
Fe 6.899284069366731 7.899834501676484 8.780927011370563
Fe 8.401509026766396 8.945844504887027 4.982606417556007
Fe 5.348720292169848 5.866889926398451 10.685910564892513
Fe 10.248169288358216 7.444078803499894 5.232212024477157
Fe 9.776786031876771 5.122729948225684 5.013014174900721
Fe 9.033245753220372 7.958733839712371 10.450173248188582
Fe 4.358831719189059 5.575248207155981 8.518470801353104
Fe 4.658959867550133 9.368231843680372 7.895850064767858
Fe 6.6331279575132225 9.121572920907 6.506885406103896
Fe 6.517970918716563 10.891043584984706 8.216208863299206
Fe 8.964426247550627 6.220395140740396 8.808834852078139
Fe 7.784086009774545 9.982014722920661 10.259471248128833
Fe 11.96689825665471 7.713998564951099 6.758816780412161
Fe 6.7412812761518195 5.331448564661873 8.6278972157426
Fe 11.055367106731222 7.6033028667386375 9.014975151414452
Fe 6.277707556527665 7.148133369656034 4.805294680342068
Fe 10.56092223985341 11.426322306760074 7.569844150441351
Fe 8.436264789882179 10.933265781642145 6.533798263865951
Fe 5.93467096580059 5.114430344757835 6.411912989088394
Fe 6.525578575842504 7.987847356092684 11.250603866338478
Fe 7.437112663379505 4.8859162043219335 4.62121467536428
Fe 10.670411444922756 9.742158385801956 5.921187789489005
