31
Energy = -212.772601 eV
Fe 6.918950396866518 3.870940157225969 8.836396274676657
Fe 5.332495305259428 5.312666726247851 9.677552413640246
Fe 7.5880730089174815 3.777686913908373 6.594396745998069
Fe 4.597725947725203 3.1777324928276554 8.862586851345236
Fe 7.13499459109089 6.16586991799451 7.790786619715379
Fe 5.686376498856936 2.375754475903712 6.956735112875537
Fe 7.267524403690374 2.9501603155967207 4.3754153944564305
Fe 9.13308309696099 5.582920889509538 6.617288334854173
Fe 5.382114451390362 4.858676362284878 7.150015829084747
Fe 9.322890672865967 4.106698691099282 4.801259567038609
Fe 4.900909247025899 7.062032351112396 8.180174657366438
Fe 3.2449456047577265 5.286770151152485 8.385206310990085
Fe 3.3789952771238876 3.4339738712902204 6.8643536026939485
Fe 7.029602574237072 5.461882341612374 5.013103032815136
Fe 8.125425417039768 7.559795666070896 6.051707764785493
Fe 5.151497165280166 3.8273290726465623 5.088587182037828
Fe 8.239519073312474 4.67356190552062 2.7720330094354
Fe 6.892016339106252 8.609230197258482 7.77328406823015
Fe 9.067010664052665 6.418742482615375 4.123065772970614
Fe 5.965440396387627 4.1384645321237 2.7844378533332224
Fe 3.5512572606106363 5.766698934608113 6.005832126634336
Fe 5.44415854180353 7.393926407671145 5.9145158438637635
Fe 4.74660411406626 9.411918002563224 7.598047449976683
Fe 7.114198185989817 7.784959650353959 4.021942878608854
Fe 6.648767806884926 6.312762348142547 2.3584900124693537
Fe 3.036912542772861 7.882171221716315 6.924575344490419
Fe 4.9428696504807474 6.088179096149708 3.9633076827591207
Fe 6.427810342274198 9.47102774646698 5.592521981286295
Fe 3.04454682478674 7.623318279928499 4.531270243454548
Fe 4.957375878064821 8.403708198789733 3.4777976414828484
Fe 4.092713931808921 9.580379902932053 5.355438429692606
