32
Energy = -221.90811176 eV
Fe 7.862517647702176 8.796343280740203 5.887627935987625
Fe 6.557154930086019 7.87543322374972 7.56612842621317
Fe 5.262618861187409 9.537348817015248 6.611778642231673
Fe 9.008370080714023 7.137293503657013 7.380111414136494
Fe 6.202335807670038 9.819521533628608 4.460124177863902
Fe 7.339735226867465 6.241255199226908 9.054879302061268
Fe 4.843021951522063 7.469157259486695 9.10563723367365
Fe 3.9642138693217097 7.482777711355465 6.860448403151433
Fe 7.740327761707255 8.345168334533927 3.5016695726444023
Fe 9.092145528130711 6.948734016440675 4.861791841878814
Fe 5.823250180427586 7.391534160436304 5.286606237567221
Fe 3.9653188027384902 8.892163066605987 4.6553428137783595
Fe 8.633566434497448 4.66371365048102 7.514237118578658
Fe 7.479839686394819 5.99072277785645 6.123111150819444
Fe 5.154710407289523 5.238962382929628 9.906764407742736
Fe 5.400021583607391 7.8797462153319415 2.977330146945344
Fe 6.938624084103953 3.8961848638123264 9.053759262596593
Fe 5.558657711969342 5.614686861705399 7.481501251482831
Fe 7.115690679065409 6.097011471910964 3.6261459562228557
Fe 3.20415861293429 5.7473751363106365 8.59036766432769
Fe 8.094822502293102 4.0835081492395595 4.8539638508333605
Fe 3.7953655412896565 6.483162354561371 4.439255699873903
Fe 6.565197166357429 3.4850469623993283 6.7992553563133065
Fe 5.592710384901119 4.739744927378157 4.993382096428145
Fe 4.488433758616075 3.6153891889890044 8.25979451330896
Fe 6.8258334068533815 3.8702753386358544 2.872009673744083
Fe 4.891710895777711 5.3062433272177625 2.7007937186951874
Fe 3.553251939806246 5.012587303408896 6.358738514511833
Fe 6.551300681834097 2.242336716600411 4.78943596088566
Fe 3.1125676882223043 4.215174011130734 4.1417156116138605
Fe 4.3871256276442265 2.789369064432127 5.75228166294163
Fe 4.798195483206916 2.8592686086842707 3.3285239466630716
