35
Energy = -241.65732734 eV
Fe 6.49537369015034 10.070036685426597 11.328456747469593
Fe 6.999547835553457 4.692881809907396 9.200064683525687
Fe 8.484661289455943 5.23903025764182 7.421768687985453
Fe 6.0830265415745775 5.507619713484903 7.054686553452628
Fe 6.1599432831094045 6.563332706587967 5.105737069119431
Fe 6.8785675910915005 9.535689626230187 6.863918968970378
Fe 8.095995201416024 7.61647915246392 6.076563038019717
Fe 6.849490224096457 8.078725685489143 3.3782121069137063
Fe 5.556816529316327 8.229772118344401 9.857828100754956
Fe 4.354994328132943 9.07737825940668 11.599576900816329
Fe 8.76203887345912 11.247620953526344 8.13366843625631
Fe 10.288091643432985 8.159920401243406 10.12472814854291
Fe 9.124747133232555 8.943123597601971 8.170462238491723
Fe 10.596981540432159 8.32186791680508 6.106288101396078
Fe 10.097956276316449 6.811488958816584 7.943962151323187
Fe 6.9372045953054995 9.958039035754679 9.065409842510515
Fe 4.996755561370947 6.05694866935073 9.139657597751745
Fe 8.879988485913719 10.38620492455138 10.421267603087228
Fe 5.364627195476269 7.836970442065814 7.339251893489012
Fe 8.97805478646096 6.023825908291824 9.872302661729169
Fe 5.23254101236567 8.752249249655204 5.099646037533041
Fe 9.828186315543057 6.068624303785902 5.523308013609367
Fe 10.919902331475768 10.529745637166396 7.154296760365957
Fe 6.332696915294003 8.028672323312941 12.373970960770981
Fe 7.358452300268435 7.159673597570366 8.410654028802648
Fe 4.537943052542984 6.681127360879279 11.454466812453752
Fe 10.947372322809354 10.37112561620467 9.459827947601156
Fe 6.775395329038176 6.177892798054043 10.916785489840048
Fe 8.349471000404973 6.277337872052395 3.700763771350976
Fe 7.0625620089624555 10.023397982475405 4.537957798733195
Fe 8.9863446450253 10.116424808744654 5.911376487946741
Fe 9.145601650666535 8.46890574088155 4.081116656649548
Fe 7.697893655003381 4.776062414174662 5.354401973310445
Fe 7.955237488094567 8.205282178973478 10.491022517463897
Fe 11.765465183483045 8.482366347264005 8.206478036048678
