32
Energy = -216.92478634 eV
Fe 3.8091884685021427 10.307739589022349 8.368683570623555
Fe 8.705557195942877 9.30845734944121 6.551725008169974
Fe 11.532924588298586 7.10511514709221 10.574016675962092
Fe 9.240896814826488 10.492092886641537 11.197032918514811
Fe 6.467556166759711 6.162562781487295 4.9212967796621685
Fe 9.105573073363493 10.447611609214817 8.622580055731843
Fe 7.7718306562676505 8.995575198691279 10.268759899311043
Fe 5.555187056851267 11.80867688318312 8.391324490628646
Fe 7.316874060582123 11.347657558537394 9.819284327503668
Fe 9.135185834578659 7.797853507512536 8.741734304021843
Fe 7.517456615268401 11.609178452049191 7.118151795342326
Fe 6.394780757893424 7.483126860919775 8.985164275756016
Fe 9.83379630047055 5.719986384854188 9.961229880773057
Fe 8.918862172623088 5.713116767657768 5.098240930917943
Fe 7.449575321369438 4.569172618925742 6.542419721466371
Fe 5.584889791552268 5.997353475185595 7.1603314255840385
Fe 6.02293847830665 8.256161771549596 6.015456343392503
Fe 8.098963138374973 7.937242363725098 4.6225504798780115
Fe 7.074865675569082 10.217726986571398 5.1518228032649125
Fe 10.958985219460436 9.306777555907312 7.49117145360914
Fe 9.705613753277609 5.446109856576801 7.525766050490033
Fe 7.66954597961135 5.435949139268972 8.739926694199873
Fe 11.429294146007944 7.040048128580432 8.263976457187887
Fe 5.460564917260109 9.680494432519692 9.912588308573588
Fe 7.796100242012059 7.002869862149283 6.927683568097647
Fe 4.479137080002264 8.258958001616351 7.797311063824206
Fe 7.763506366888588 6.564470719065732 10.788945349099155
Fe 9.533771579935458 7.915616285614178 11.479604915013153
Fe 5.101380289824051 10.485999131711413 6.42265635760553
Fe 6.8403241301993205 9.532184657540181 7.959471635494915
Fe 10.132789896880674 7.416647823871003 6.211460686062456
Fe 10.70490100318386 9.18890727260862 9.843382184322321
