39
Energy = -272.40325195 eV
Fe 3.5309992932598666 4.983164852697268 4.124291528999304
Fe 3.0982943697814505 6.646783509371785 5.807294931307037
Fe 5.653753037520112 4.692759775702487 3.1822636607190162
Fe 4.748964006255845 7.063395479558184 3.867183448576093
Fe 2.0425822714525506 5.57733939415174 7.7357042964570475
Fe 6.245332219364378 6.5993290949913455 1.835003187995857
Fe 5.2723485161826895 3.1995079926490013 5.04843215974281
Fe 8.003452081265673 4.896539158822582 2.375994943363089
Fe 3.460949275898699 4.164489463625728 6.330993874932939
Fe 4.986550318898087 7.8998600933660965 6.558724781184957
Fe 3.252459811089998 7.725604771426324 8.336709613795897
Fe 7.509464486419841 3.9785529750145514 4.578928413599218
Fe 5.562765637310075 5.661223459725862 5.709354261295938
Fe 6.218502941211735 8.61280988278148 4.826086018736416
Fe 3.1490345449773707 5.547382738049084 9.893763155427374
Fe 8.767325195859609 7.092909328945003 2.252635985020791
Fe 7.172847154664986 6.456830115893237 4.118650893154641
Fe 3.5934283840796337 3.597158128833843 8.641740193639016
Fe 6.948952136869466 8.622157379903923 2.662331413200243
Fe 7.634773813495378 2.7226554948343624 6.5220808291712205
Fe 4.403306889420249 5.846602461173802 7.882988040429612
Fe 5.80060765391394 3.8941079387032533 7.335955092869719
Fe 9.370280297425639 5.704817715435817 4.381309805023085
Fe 7.757093884973877 10.295259808481875 4.583474241327161
Fe 7.544656462782058 7.543261718802905 6.395045535131566
Fe 8.822131937637648 8.205291364790455 4.339172059523603
Fe 6.770249113632569 9.909971107453845 6.7712739506612065
Fe 5.544010872786226 4.455525241346064 9.693986946301463
Fe 8.143045407587818 5.216514133670016 6.501074703234758
Fe 5.885788756753741 8.581833735418746 8.583067670632682
Fe 5.138854205358556 6.867263450693787 10.077602481750475
Fe 6.666953081784853 6.288178895322829 8.243634323655305
Fe 7.870648081359735 4.045680575551619 8.601996766984698
Fe 9.865045124778643 7.259831219497291 6.422438443648285
Fe 9.24267241846233 9.661516464564063 6.26956973483593
Fe 8.373200073424751 8.691208186287492 8.268631697914579
Fe 7.5606541376800696 5.591078582563534 10.423892795542809
Fe 7.414813711612799 7.853177089724694 10.236461076789865
Fe 8.995323993156513 6.37054282056256 8.602372643813071
