34
Energy = -233.71839648 eV
Fe 7.096587291877228 4.5656344402130165 7.172398773768516
Fe 10.330648002181741 10.431893981548004 9.086455581784337
Fe 10.306359033159593 6.788567813537822 7.308880859419696
Fe 9.471184987257171 9.871171408715355 4.9424770435323095
Fe 6.576393061316 11.067464713735898 7.912332058194146
Fe 4.764094541231531 7.440473635046608 9.821192107583252
Fe 6.126404734320512 8.603246120014997 4.850165606466891
Fe 9.785914579946205 9.800262941620309 11.34887677825825
Fe 8.543590139185277 7.850041001425498 11.650236458793051
Fe 6.783585480889099 5.247484108991195 9.469994341724002
Fe 10.906986903068153 7.514118582449089 11.219099776833783
Fe 11.167740033434978 6.022978045838095 9.393909843268421
Fe 7.777593694808717 9.88843264749255 10.057762692177372
Fe 9.191837351073838 4.734402167075407 8.224014490798746
Fe 9.514187754443082 8.124557349477838 9.303760413218003
Fe 6.502292638800376 6.4201446701882725 5.7575013702306155
Fe 4.288334559138955 7.520612788079186 6.002201954480439
Fe 7.226245677269909 10.358311178894397 5.796598849655546
Fe 11.915669641255164 9.542454421179112 10.587288571520318
Fe 9.146656124590441 11.239278448812422 7.023707047530265
Fe 8.182240628153483 9.399544465240984 7.945432065589502
Fe 4.81845086294059 10.102793549975562 6.598016420171614
Fe 7.028381582975741 7.651627915178642 9.748767739386874
Fe 5.325948735782428 6.238719052981523 7.900963274463016
Fe 5.37798024825869 9.69298304944009 9.328133725250535
Fe 6.1444208982842605 8.395078263172811 7.391775209024557
Fe 8.32121222138263 8.082375676654287 5.779573550087079
Fe 8.950233142535097 5.9515061595214975 10.253916490361497
Fe 8.886461245475209 5.640616508157346 5.784308967530892
Fe 10.367354432825898 9.138456810537983 7.055771746425664
Fe 11.897312144269312 8.194436979022173 8.721170158547666
Fe 10.582036762735791 7.608314442691972 5.160206164714867
Fe 3.6977202669151845 8.576962637997983 8.082685760925608
Fe 7.948999096771227 6.780404091353982 7.8310969565412005
