30
Energy = -205.97586482 eV
Fe 5.942641541036242 6.843509876043206 1.5094298691728625
Fe 4.00959240642896 5.6899128309140075 2.2787191815067307
Fe 6.747742545195543 4.802270532518336 2.5479157493000715
Fe 6.473810470618849 9.011247773366113 2.441940470228579
Fe 4.774613964114189 3.330197151073087 2.88040225551071
Fe 7.219137156496662 7.092806123813206 3.5660186153923523
Fe 4.856827431271616 7.774658928269708 3.4387238024495472
Fe 2.8584622651387006 4.392007422941183 3.9993237223852685
Fe 5.211184059065988 5.229749353276089 4.195077965470872
Fe 6.76456111705759 3.164090451172245 4.4870239126366815
Fe 3.127777487776583 6.793330267754279 4.664695595171195
Fe 7.6759191914155265 5.3686905788987564 5.022983755947497
Fe 6.519259537951443 9.118384913258732 4.845808176648727
Fe 8.133394644663444 7.694287894782417 5.740844468930305
Fe 4.424028493207937 2.9667811365368304 5.30861585030919
Fe 6.268812475014166 8.367312780448472 7.310906485784643
Fe 8.184535671124182 3.64050633731256 6.62022584653983
Fe 4.199848587381354 9.01278295645405 5.389018854787258
Fe 5.620049426897354 6.944831645847903 5.720164321522532
Fe 3.605225720474779 5.149116491841821 6.19896238368434
Fe 5.947100762497064 4.558901969516645 6.390803533063157
Fe 6.3057506732143604 2.1044291262999884 6.745144181156149
Fe 4.114469284003851 1.3503045222080694 7.115482986626511
Fe 7.489771327860936 6.088432293146046 7.3999518783911045
Fe 3.6860032564044594 7.485960627346137 7.098704000574262
Fe 4.318764380766832 3.542641010356301 7.898940569870742
Fe 6.734727998571538 3.9061397912880325 8.564009534302437
Fe 5.1753943547712264 5.984436174990544 8.205350757633873
Fe 2.8731735114657515 5.620310074081975 8.34157082992744
Fe 5.59360925899849 1.8281579651283584 8.929429445960238
