36
Energy = -249.52276538 eV
Fe 6.17000131855672 7.216805079054431 4.616941387703075
Fe 2.357515918781844 7.360484955797661 3.033033928847084
Fe 8.92950700279743 3.4962897184605417 5.80647631849272
Fe 6.458498615084339 4.473614160592267 11.222465809877466
Fe 4.824779025096836 6.206270516569005 10.89343968558081
Fe 2.5954114546218396 5.25501733110472 3.993576864159886
Fe 6.989842538840279 5.425052866712121 6.113937137764389
Fe 6.671341806445635 3.371551032550641 5.080473066751754
Fe 7.449747115433166 3.693283808685583 7.6193622148556335
Fe 5.763325583440198 5.15095672538928 8.97522783763085
Fe 2.955801205016664 5.290725684042023 6.450999182223237
Fe 7.625052192468627 9.46044296306229 5.265004549012031
Fe 6.648863844614007 9.396916889568317 3.2039855565475808
Fe 9.391560345446544 5.35699678332668 7.119903093182367
Fe 7.375691727317699 8.820268882587666 9.219076977239077
Fe 4.466914322021141 8.544291587616877 3.116640353298405
Fe 6.628585940211666 5.162796261347085 3.354208115859906
Fe 7.124873236134438 6.729046019932917 10.60020926857229
Fe 8.593080324234156 7.316588448661648 5.823681714355619
Fe 4.987105295491987 3.9692618580843364 7.1199980403209375
Fe 5.158431543817193 9.189541096971716 5.402137235193657
Fe 7.6214575859824505 6.480180339509818 8.277666920108404
Fe 8.208145504189648 4.595349245706889 9.651066537372115
Fe 8.560674317926413 5.752953600744981 2.029716933775378
Fe 6.18966522502814 2.920431211687517 9.43796787217163
Fe 8.7063144062235 5.3497606721211755 4.424287972222121
Fe 3.569395677714356 7.258523194306143 5.036870912079178
Fe 8.349672754144082 7.701028747202495 3.4646836604667417
Fe 9.236545430013017 8.090915783472248 7.930349269196269
Fe 4.944609675276298 6.62224652756516 6.9400214300558245
Fe 3.5662384249391645 5.792024848046883 8.74285147854796
Fe 6.47795547202079 7.26581037492827 2.0944989948990305
Fe 6.727202304570148 8.279273417942754 7.028883740548062
Fe 4.791845638260323 5.037700111786628 4.937622310466329
Fe 5.313659860722622 7.676876901541831 9.074663148630837
Fe 4.438631298586465 6.158666284790386 2.766014413460569
