35
Energy = -242.09122791 eV
Fe 9.582154443985617 4.43707962113488 8.434117700790713
Fe 8.680085411917068 6.566920853771503 9.010752022472323
Fe 7.5794878659849125 8.615022018986616 9.573450361720532
Fe 10.2016210064728 6.4824279498487165 6.965610604141913
Fe 10.571987796816439 4.272694556760578 6.399553974646282
Fe 8.862014602354972 8.587618224097447 7.428055751792251
Fe 4.21696712884728 9.908194886710026 8.314545084495517
Fe 7.219351007763559 4.123551935709767 8.461331939920164
Fe 6.266256958850855 6.228776032191829 9.167408710407496
Fe 6.607550329389214 10.135468022337905 7.997993136383027
Fe 5.183773106691727 8.331751144549907 9.638642599246065
Fe 8.311949294580378 3.4708522013546137 6.37850875036241
Fe 4.814910718476604 4.019968673621752 8.543170679634281
Fe 7.953564724562533 5.845480316077547 6.936831731958122
Fe 6.704231740248619 7.866553718317987 7.4672504748552715
Fe 9.401986391733516 5.2253146803302615 4.707297524234689
Fe 8.53459244974715 7.429086068131336 5.218696793423432
Fe 6.099234239373963 7.257508064552308 5.2536019549386035
Fe 3.8635806723124357 6.071243480180642 9.145892049859095
Fe 5.567189284889846 5.6080425725599286 6.9338055898402535
Fe 7.321494360885897 8.58240617039662 3.426032484555742
Fe 7.750577765261138 6.317757858065461 3.006463941255566
Fe 7.070562338018022 5.0826042040933075 4.826361884549455
Fe 6.842642732609258 2.868533321394552 4.372124527958959
Fe 5.8069663518889065 3.342121387696557 6.41904004468796
Fe 2.798064587709902 8.170575364368933 9.042759852980252
Fe 7.212417315525558 9.547091033809668 5.625733907584247
Fe 6.107142415580952 4.433668572393416 2.717741703335804
Fe 4.226995130314391 7.563907603964437 7.373671378021537
Fe 4.952700456033178 9.419502090438149 6.131439119421787
Fe 5.0745313111460275 8.957058262952597 3.838537448438605
Fe 3.7822666925832933 7.132965525132017 5.0746648484574415
Fe 5.416288123552685 6.664412059173202 3.0933152988882426
Fe 3.38755616813703 5.146046416014355 6.84164284383861
Fe 4.709246202358338 4.773819648044523 4.718239817674352
