31
Energy = -209.63914118 eV
Fe 4.116401266498775 11.993758464859607 7.785748668666242
Fe 7.951929642338505 5.699808605642552 4.465146726859299
Fe 7.6602806880291485 7.519179053188291 10.755942022208806
Fe 9.737502228355677 5.037597950204205 5.8633875660723325
Fe 6.3459286101063395 11.658975270432379 7.055509543251396
Fe 4.603458440348346 8.427118918381375 5.418547550522729
Fe 7.067550488466936 3.912787794692994 5.689097493508025
Fe 8.988629155732548 3.433855041194066 4.405007913655127
Fe 9.130668609216752 9.39542590283174 10.229655469511439
Fe 9.696981405468312 9.160080368513452 7.926367812255195
Fe 8.906929977423074 7.5106148238205686 6.055092702130245
Fe 9.871028048414013 4.1960053150122505 8.06245161336503
Fe 9.884563472668772 6.545578995524423 7.842082150694533
Fe 6.138705328936591 10.298389504573615 5.036149852742502
Fe 5.62717781214556 5.994364019854016 5.455704747351832
Fe 7.406547285393532 10.237329046652063 8.728477059564247
Fe 5.309304742545381 10.944805703089413 9.429934552704282
Fe 7.9347436694310645 7.829454620165728 8.484242622902142
Fe 4.082477159865471 10.94872112396969 5.743482745239816
Fe 8.49692078480941 5.60807482588901 9.455659841709934
Fe 6.8522226747014034 9.85437763347535 11.071329955270885
Fe 6.855652118261756 7.795294915303585 4.719815110704915
Fe 5.726235703664898 8.448917590332739 9.439778424118671
Fe 4.938872423553751 9.679734021080389 7.478647150481168
Fe 7.53175671447912 3.7307921687934886 8.139096907109302
Fe 10.085696352284423 7.35310890023782 9.959997746432895
Fe 5.965059540195834 7.589848545296119 7.066674075390361
Fe 6.101369140418639 6.118922657157797 8.964731035235866
Fe 7.549863619621275 5.7895861003926266 7.104679390605911
Fe 7.491682962081283 9.376382169353176 6.599176865191815
Fe 9.00754371876471 2.642650756632474 6.58301972612339
