39
Energy = -267.50310874 eV
Fe 5.382486552188496 2.58449334127675 3.086687346030674
Fe 6.753006856618054 4.105800948773792 4.278909013080287
Fe 5.910359603114447 7.344779980299427 1.9575201281123429
Fe 5.6741003196342135 4.998246848054946 2.2806933426206566
Fe 7.857171502137977 8.314325062953863 2.9188868245894213
Fe 9.62804250614522 6.976466809125034 4.317174603274191
Fe 10.62196470764093 5.578226063882953 5.872708644823738
Fe 9.128801437290507 4.2923193857794235 4.68670852757007
Fe 7.780577780723721 6.007448116415112 3.2659636491543993
Fe 5.277361090328568 2.4468996537396652 5.5252403571677
Fe 4.262293395814823 4.399398427047519 4.140013797408671
Fe 3.6504981541683272 6.365659112482668 3.01662276289528
Fe 4.037764999700771 8.585041366384202 2.5899030095907336
Fe 5.880311863542476 9.29347419902085 3.7756011898036306
Fe 7.451281488332114 3.3280513627251587 6.497907135493185
Fe 5.536593344080886 4.864059302296288 6.138799322507944
Fe 7.645623723245226 8.16172296731456 5.2394131886587925
Fe 5.714664041995618 6.801375697224699 4.391423569192003
Fe 9.237287490939071 4.649342267932288 7.487752701098074
Fe 3.449130879171703 6.095942269095342 5.582819636809256
Fe 5.551246286593386 9.169595906961675 6.118645392715944
Fe 5.147688942484725 3.1229895535155814 7.964512003230856
Fe 9.59571211905431 7.461103590941876 6.738710667061059
Fe 6.062143015409461 7.067614293538931 7.009505560165349
Fe 3.2728662024321467 2.395468900936024 4.3028411391626395
Fe 6.769174617205953 4.926541977216261 8.234282984369353
Fe 7.848806577297714 5.842029713658743 5.941993567326046
Fe 3.694993786311045 8.342853962703753 4.8436132604495565
Fe 3.295538256962855 3.74228061175041 6.406198486922188
Fe 5.295513983723824 8.925388468185632 8.572434331435407
Fe 8.351947329769734 6.639740256012084 8.566537382002613
Fe 3.0534062489665086 3.9287438714957563 8.866877763819915
Fe 7.56168304562147 8.673791093035218 7.72089057203644
Fe 3.701395002674107 7.794734609394843 7.231843308989696
Fe 4.184204370584911 5.614958030032301 7.921527004622418
Fe 6.069743933839299 6.953111642601353 9.439448430049735
Fe 3.729261942492071 7.073739100131872 9.689798036256146
Fe 5.033038460898652 6.525577547344852 11.515398951456213
Fe 5.0464951386483605 4.750844686501157 10.008373405830088
