36
Energy = -247.39660237 eV
Fe 6.852625135399708 7.7893209382431055 8.966782520075734
Fe 10.287114479135262 7.015328147938936 7.386307949924707
Fe 8.34610667383911 8.384920377491182 7.0493514027876865
Fe 7.14835968851843 10.101904498140158 8.392134271637005
Fe 9.287383968662361 9.028344255744816 9.072300866212478
Fe 10.82987271975119 7.5673336091506895 10.097016078491741
Fe 6.88778486191451 10.012198762285335 6.037936652274686
Fe 9.620384499625422 12.919593954677786 7.717109750800893
Fe 7.32560425955499 9.816934373044681 10.724850209949091
Fe 8.473649385409203 7.884390954132387 11.027309459762572
Fe 6.833073036498098 4.974686874552704 8.484124528772401
Fe 7.952320704997132 6.101124401776801 6.780211874437822
Fe 8.740288963226906 6.5182177250708095 9.082752341174785
Fe 9.608530686522597 4.5625362905422495 8.279876953277691
Fe 9.584843747878388 7.141217849896956 5.0628140884090165
Fe 9.309127870294635 10.594595675925085 7.126592415034705
Fe 8.958030919932662 11.43289233239693 9.38979576678835
Fe 10.038221170717282 9.86826879907977 11.175912269782572
Fe 8.172965438450111 4.053236365415287 10.096022625409455
Fe 8.406412963686154 6.521489836905299 12.8830675332728
Fe 8.159267731176547 5.286038473085973 4.642492796619313
Fe 7.379089759047967 10.065248365964612 3.814563001433509
Fe 7.819616881089316 13.860820400495369 8.835528598160606
Fe 8.429014854890331 11.534417758609473 11.862882839949714
Fe 7.356307806475754 7.852827994149205 4.908843605527957
Fe 9.278900860425004 9.57691134301692 4.9418466003215205
Fe 10.11224837065123 4.933840586480981 5.941546007875314
Fe 8.12238532412678 3.752366922248294 6.671607077487698
Fe 7.022381966596302 6.00008398658436 10.768116097197218
Fe 9.6716460511215 5.618764355324203 11.073470934826679
Fe 10.458796660896947 7.640265303326631 12.44711495867507
Fe 8.603765493749203 9.124381365489072 12.966251036987346
Fe 6.83357349582063 12.140199198491421 10.051640175042502
Fe 9.296236074641618 13.288789293974093 10.553949382091595
Fe 7.269723043381059 12.14999872526584 7.331879677301726
Fe 8.462862143373584 11.825040890125228 5.294559301309244
