35
Energy = -240.06997719 eV
Fe 10.267633672420029 8.358910460534416 4.584418511782839
Fe 10.969459456421859 8.800393191275946 9.39543265797456
Fe 6.7044023787808324 9.425692978113812 11.08162655255282
Fe 6.995292081330015 9.972647244365175 7.147980031375091
Fe 4.561733456988077 9.179148046064975 6.503965890467693
Fe 5.5234366417261045 9.160963418769052 8.834553255422376
Fe 8.828495725625544 7.753497270866849 11.227923236706395
Fe 6.484969196287521 7.168359839437715 11.57627567226218
Fe 7.564046077927253 5.662832584404968 5.774018137018871
Fe 9.185312846857027 9.728738870593599 8.022261827041513
Fe 5.821369489564514 6.563030815584509 9.221341975980685
Fe 7.85478995909198 5.773456044393455 10.372090410930994
Fe 9.925734485242183 5.296233647641396 6.978453032289853
Fe 5.329008118377327 5.496106804465565 7.070482760736456
Fe 7.731259163337844 5.8014220186055905 8.018581194612317
Fe 10.900160679962186 8.972243256924985 11.673901225022538
Fe 6.524807660158808 9.271161936969925 4.995983247640764
Fe 9.644040182521346 5.8610971016834785 4.769879648400019
Fe 9.026659877984015 7.581087292268678 6.776627748167473
Fe 11.077117340509744 8.966936385111216 6.7496207668807084
Fe 7.9934392181910034 7.638209428001637 4.480662333928467
Fe 8.836030316264738 9.86699458470227 5.629391857083388
Fe 7.663521975551159 8.203751340926381 9.005074852539163
Fe 4.500954516280994 8.478863926462266 4.078301826253982
Fe 11.549828580646624 6.919147417505013 7.904030434180769
Fe 4.570133242344415 8.10499507769428 10.625461706231455
Fe 3.9332650379879293 7.484708550997864 8.213668520545744
Fe 3.859329981874624 7.008046113133555 6.014646006795236
Fe 7.262840074403722 10.879496717819144 9.282294534136875
Fe 9.618592922913761 6.801906625366431 9.070234903801502
Fe 9.02008123858507 9.868809120506018 10.424784844195463
Fe 11.188748985761102 6.907196163250789 10.696534153226914
Fe 5.710007037587554 6.73945065250123 4.569892693564742
Fe 11.572530376607705 6.759464952168209 5.699754491743329
Fe 6.380788531786417 7.633895506530653 6.834923576045982
