35
Energy = -242.97701119 eV
Fe 10.772997430709893 10.517435777883145 4.6763507613512125
Fe 11.001690440772267 7.13740213676547 7.988395808417215
Fe 5.0123360308464555 9.16185738230261 4.834611385920917
Fe 8.870047337640669 10.121278186979456 6.14297130201905
Fe 7.812682077488308 8.97439993461744 10.093863470089863
Fe 7.7890448566580845 5.17030853532687 6.520580497478508
Fe 7.300602941908004 8.806725475944617 4.994825880008093
Fe 8.100929716909302 11.033770861876137 8.344659979224346
Fe 7.21594964639406 11.433075680855497 10.501317308375313
Fe 9.474808036117066 10.444155041767623 10.6264737506438
Fe 7.552644141660474 10.091171938820413 12.394515101670114
Fe 7.251616348658777 8.706705017265861 7.608424717632323
Fe 6.24718366742619 6.933669357732819 5.653818538353509
Fe 5.008598853684478 8.423766518836983 7.158922643281349
Fe 9.613409920326255 8.57109847918719 4.229676770061185
Fe 9.901121604562476 5.194846551127825 7.359427344873957
Fe 10.285801713998081 7.94807240567435 10.244210310284918
Fe 10.27918010826359 5.56395117273005 9.801111811127193
Fe 8.963743514314856 7.518274764388174 6.466876158007997
Fe 6.392464214856232 5.756366796751761 10.35545228232451
Fe 11.099678964526035 9.004510629549051 6.419541338152092
Fe 5.760679181563725 7.868697212306935 9.566053017817332
Fe 9.573906163964027 9.17237256803592 8.324110287627088
Fe 8.364554233699486 6.4392691431837354 4.496217419361366
Fe 6.194787576831572 6.202617345662187 7.935312273708675
Fe 10.8389129653283 6.677095789694884 5.403087194189554
Fe 6.3521747405404225 10.556968829757478 6.4926732178416975
Fe 5.807517227179815 10.242301333580757 8.8878823298515
Fe 11.966015799048975 8.464201645502397 4.313028575976941
Fe 8.495331031077866 6.478994559827599 11.17753048373822
Fe 5.52997300474735 9.658638526799923 11.192259906319826
Fe 8.384948446175454 6.8876730043060785 8.774918970411433
Fe 8.154890917617843 4.630440342285106 9.055236336816597
Fe 6.684514479005682 7.785935533587884 12.018774883225003
Fe 9.21091941169515 8.523791863736907 12.254964939958407
