39
Energy = -269.07807709 eV
Fe 6.318886126544785 3.0605538195030566 8.515932305066983
Fe 5.249969115317772 2.9165393885167545 6.0997826055679685
Fe 7.595373530330101 2.577760623124632 6.648138383223694
Fe 2.964682500812907 3.707758767351301 5.510971073077973
Fe 5.137524263526033 4.526307543596574 4.27938407150711
Fe 7.387890950055984 3.801273479956203 4.523667239956695
Fe 9.146150437373876 4.359622117062258 6.170152662098202
Fe 8.150924973846871 4.5671608403594925 8.361527187885878
Fe 3.226352446554702 5.917129250833213 4.01563410328832
Fe 7.892518956188968 6.355978275106933 5.233314992910038
Fe 4.122227477884886 3.6698202714227572 8.060610924717508
Fe 1.5605674093013235 5.693165836712343 5.603572878606917
Fe 4.031973821875163 5.551965131744795 6.528142738492227
Fe 7.207524499834593 5.672521933399537 3.0141396343596583
Fe 6.516279256133333 4.805319776457957 6.539745678749068
Fe 9.43324265917513 5.108005925101401 3.879515063843795
Fe 2.000746503136723 4.540441867990979 7.637078225365688
Fe 10.858361292980913 5.965837244482548 5.8584454957069925
Fe 5.003219819605333 6.251088446599669 2.527965171728573
Fe 2.0121568412754924 6.942297393855569 7.607486909603748
Fe 5.468803673731591 6.7992149935284445 5.08233430151846
Fe 5.815656687266603 5.454925092677824 8.759676121411461
Fe 10.905580840824943 6.829844562942838 3.711884001652237
Fe 3.528864168919295 5.913686130653044 9.067079471522579
Fe 9.034744698398521 6.537675728751958 7.269984525444047
Fe 8.783526691229877 7.586728337091593 3.3368185354990985
Fe 6.6450350011115304 7.163012552289592 7.268348484050599
Fe 4.068575519237674 8.254352548045704 3.5365653879786754
Fe 6.446221621241819 8.09001148670686 3.406359318915569
Fe 2.9814908182597892 7.747843393190426 5.578399008342129
Fe 5.4747661201545 7.6563288278413655 9.640693164223753
Fe 9.811076424123721 8.061367000161853 5.512740995283002
Fe 5.113088332902269 9.120750987440053 5.531953378864473
Fe 4.361546977751017 7.731678181810748 7.567982463415909
Fe 7.908078372814252 6.791562827748866 9.410189475952134
Fe 7.473688249442038 8.661554067664536 5.542657098342808
Fe 6.140997797008917 9.49884542400634 7.6778726178993315
Fe 8.664079727203827 8.824654635158126 7.657403952446413
Fe 7.34790126651872 8.99660326135767 9.567049980422945
