36
Energy = -247.43701816 eV
Fe 6.234691923273368 5.18882966829009 9.537815472760853
Fe 6.700972053383154 7.565512838601267 10.352150982908094
Fe 8.436795358956733 4.155235693433723 8.479277912284799
Fe 7.078897566527351 9.809854316461438 10.711612890048517
Fe 8.023596909356598 6.3891375290838095 8.574075736052377
Fe 6.238061040690292 4.601174724483265 7.289294215065103
Fe 5.578660046316977 7.087323310681449 8.27578678161562
Fe 8.70139581887538 8.643858020187636 9.326639299462846
Fe 10.29624538483107 5.4022082124503825 7.625059738416515
Fe 4.861499102886001 8.975274500967764 9.757733562495181
Fe 7.758875675805897 2.536083771495025 6.992780470047018
Fe 4.094159400972085 5.321462961980419 8.023193667919612
Fe 3.3228136394934746 7.7814282994515604 8.431379896217212
Fe 9.71326874397291 7.680171833164352 7.3035382215280755
Fe 8.135503987852227 5.567649717892757 6.306040705858489
Fe 9.656949553692122 3.7388698136702447 6.0988811890991945
Fe 6.651097347324623 9.706815715058367 8.477911718700637
Fe 7.621783347458637 2.970011216112291 4.744212791992289
Fe 8.960694751486606 10.003057458979649 7.434156922583139
Fe 5.6263203536965305 2.7939201075741256 5.970017104313119
Fe 7.401351345347262 8.063233072139532 6.828727969926766
Fe 4.9142276767613104 8.96620305506975 6.889038746189314
Fe 5.739173354906109 6.7201997883667115 5.74091295046259
Fe 6.997832996606292 10.518632412943642 6.21463806309802
Fe 3.421190823246797 6.919282912965404 6.286033951554666
Fe 8.934428375555806 4.8057363482608055 4.047421986143763
Fe 8.964229290083912 8.874830798681032 5.26392543456959
Fe 10.204069921527289 6.34236895922616 5.345993266464444
Fe 6.372374649772563 4.929126406270869 4.369673052436121
Fe 4.886600090447919 10.611818838911168 5.183067795915858
Fe 6.453009550036687 8.881124699686868 4.617998523190695
Fe 4.371718520448494 4.693064420805707 5.714619695532452
Fe 7.870210195740683 6.922727067390146 4.401790115175404
Fe 4.137277852830894 8.414120959217298 4.547286765925303
Fe 5.849813620411585 7.063965560333651 3.128742502268863
Fe 3.9446082915541933 6.099364187389394 3.9552127500232745
