31
Energy = -210.704612 eV
Fe 9.121273681062364 3.171499882138311 7.331612919071044
Fe 6.975586405871317 3.963377970166721 7.859392513962681
Fe 8.713021499087047 4.878869383176154 9.103859003092772
Fe 4.81367269770341 5.5009116896028685 7.86555034045307
Fe 7.700531005086409 3.76899301886772 5.414233756325268
Fe 6.702991456655541 6.217790568804145 9.07360148252858
Fe 4.432915852418174 7.561391944739665 8.836311908045051
Fe 2.7551313860996216 5.743507960389468 8.755824569968183
Fe 5.323149235043579 3.7332114794622266 6.103632097375834
Fe 10.189848813042955 4.310932283981459 5.217358960421309
Fe 9.031404674966437 5.360472323904649 6.8155930998801395
Fe 10.37797171329259 7.0018984410113925 6.0850944222655725
Fe 2.949470812874148 4.420510587315534 6.701041917865077
Fe 8.954889853838862 7.191637808223182 8.241595741794384
Fe 6.772451826718681 5.994268399952891 6.511107303367577
Fe 3.68091889267621 3.8581989764621922 4.396707660149138
Fe 8.262373229978287 7.793740806682414 5.847027054124022
Fe 2.771875458147947 6.976020722317813 6.855124328955095
Fe 6.80812527430708 8.294846606477776 7.921863020443114
Fe 4.512943455175017 5.958516366210596 5.452991564185024
Fe 8.404875562355075 5.892592416457413 4.461588042190374
Fe 2.0895261074899585 5.689886750673217 4.862442451877701
Fe 8.938541221630237 9.337506661217068 7.32145615793647
Fe 6.0764533099253 4.981003999162565 4.0430172308734456
Fe 4.949034278205728 8.060100338697954 6.541824560487346
Fe 6.325222674525163 7.435819320908087 4.581661764660579
Fe 3.878487358727932 5.785787832238253 3.117055057085251
Fe 3.4192077265789553 7.718461356617522 4.38629913768942
Fe 6.830002684164774 9.691545609217291 5.942557129723431
Fe 5.526136729865263 7.458488205391622 2.682045973430862
Fe 5.090446352310647 9.39324660864608 4.4972067951012615
