39
Energy = -272.69186008 eV
Fe 10.322820677815525 7.1819119624728955 7.867741844088313
Fe 10.558710975840672 5.735957357254549 6.046654025626877
Fe 8.743562221337028 5.119432346947136 7.917064628960184
Fe 10.411237799472598 7.9898924235912085 5.406720993054634
Fe 8.148451945552278 2.964863202931183 7.025954801097912
Fe 8.257402651629235 7.648479394327339 8.938904669561781
Fe 8.90778106205341 4.426206380593496 5.251780259534849
Fe 9.357883340058137 9.206084820742607 7.24714790057094
Fe 6.601201272921807 3.8283823720481145 8.62680566584243
Fe 8.323436201140558 6.924872415013806 6.447059374397415
Fe 9.007982353185998 6.568859654308841 4.067234727971221
Fe 7.12524641520082 2.63603389732774 4.975864068767119
Fe 5.641430167133667 2.590158087974795 6.858882317312871
Fe 4.199911567203301 3.141861564110004 8.759598476575402
Fe 6.827800678655706 4.936426544804434 6.169445252502743
Fe 5.655564377663251 8.108538687022406 9.140329810090446
Fe 6.537385623000122 6.199596188600516 8.236140474972688
Fe 4.744265679337906 5.339832244719814 9.59219947265011
Fe 7.001441699667986 8.783465100778676 7.204117571245014
Fe 4.712156278144809 4.894327128332586 7.103950098979435
Fe 6.872467668618013 4.861410551548458 3.8015337138618426
Fe 5.351394047082915 7.235914681865141 6.449822346779674
Fe 5.072371095691161 3.681371219400282 4.769341673508023
Fe 2.577279285032932 4.819946273573436 8.326153789113405
Fe 6.808358606104594 7.347345425254045 4.561479346031929
Fe 3.171042015992891 3.3564463017721873 6.341878666703169
Fe 3.7082510744248274 7.009500716488529 8.145184196027325
Fe 8.347365106652143 9.044198193093717 5.035418788604873
Fe 4.540236443221678 9.410436918740832 7.485832545704959
Fe 5.718780290251532 9.521770085309095 5.360257576261557
Fe 4.690259333534579 6.004399003290894 4.5123093396058795
Fe 5.987338480463634 6.759147249741166 2.435918371206618
Fe 4.773821828725318 4.508681528587688 2.5671476716960067
Fe 2.8063469663293237 5.846501575802493 6.056227390920363
Fe 3.384621179544923 8.241139648438379 5.748404714347443
Fe 2.7934964970320175 4.646542099598663 3.921728315367283
Fe 4.521615869004961 8.286124881662118 3.6540800495367107
Fe 3.603937789792652 6.462752746316323 2.1734012792284845
Fe 2.3043577296153983 7.0592228832628505 3.9515032526063987
