35
Energy = -243.63529728 eV
Fe 7.017187570562554 6.983936319743346 5.261147720533807
Fe 4.526658409679051 6.600611013385792 8.41032430805688
Fe 6.94309570183248 7.261471363704823 9.056953652912583
Fe 8.589296027470056 5.250792611266769 8.647159773779046
Fe 6.094921467332688 3.4500236188363598 7.102144685857838
Fe 4.006330115197875 4.851292230756231 6.42272552095671
Fe 6.335664167113142 4.873455706654164 9.602897626002697
Fe 7.686219840976569 8.356467297949663 3.4617863000646962
Fe 5.733840076391335 9.094861049919361 4.8532408932539095
Fe 8.353045153177533 9.050214415907579 5.7437392525064155
Fe 9.487176516102915 7.0048944845801495 4.81360283243554
Fe 7.781383344498574 5.729122649019841 3.4396685081907754
Fe 5.504480374872466 6.910973624446796 3.4633319045795172
Fe 4.581559733034341 7.097165832799859 5.8349017228457045
Fe 6.299801481201766 8.258466082406795 7.134080924014004
Fe 8.541167601567029 7.020360569350266 7.169319031270112
Fe 8.155120321159359 4.810769087536087 5.841263709283083
Fe 5.824477646800075 4.821702419614393 4.864358457517725
Fe 6.366959128172895 5.6685619271020915 7.248959333317596
Fe 9.30306255215799 7.713751814061215 9.634551496509989
Fe 8.400388564772484 9.366994247176384 8.20653665388439
Fe 10.35842584954848 5.4853820484686 6.440737087750236
Fe 10.43743110658068 8.20009974851025 7.130293270744912
Fe 4.357838390498719 9.262380712613847 7.33339647254708
Fe 6.6769332052452 10.543705801066224 6.634273843014618
Fe 4.731656170094013 8.531251528873904 9.747300021789393
Fe 5.4479060284783705 6.616035642575727 10.89653102979554
Fe 7.136687002762553 8.556233488737506 10.903048216749854
Fe 7.945540022724201 6.160341507825069 10.903786953125447
Fe 6.3336413148486495 9.969512829146181 9.043113529814674
Fe 4.427173158274727 4.2024570569766 8.568418326346292
Fe 10.750479707900956 6.347614205144893 8.543930890287225
Fe 7.410544493122368 10.615176273791693 4.337220853258263
Fe 3.6968786008020906 5.6147456463248115 4.194591295985346
Fe 9.814240242483134 4.776386233575179 4.167874990864411
