33
Energy = -225.99520401 eV
Fe 11.369528024323813 6.114678018691783 4.566652511031366
Fe 7.505462574488923 8.107149538660709 8.003356264786076
Fe 9.786280360987767 8.754804253923773 8.594901793657494
Fe 9.462446856970777 7.466974698659542 6.1815449197612775
Fe 8.756646822141056 10.090673831295668 6.9836035177106925
Fe 7.058880341279364 6.4175305739956245 6.3876390692002865
Fe 8.814412099545136 7.767718251422233 10.365418982620167
Fe 4.859080675687274 6.9843754107620395 10.586596867249398
Fe 6.76530497999912 4.514046126754588 8.506920062140813
Fe 7.199582814629255 8.881905441173995 5.661962259492306
Fe 5.3543606594619675 11.096385926077861 9.455593138236257
Fe 11.09862001155952 9.236088058318865 6.700565883531618
Fe 5.4775650018658775 8.781101431072182 9.23449140554187
Fe 9.108703847997457 5.457143908280603 4.752555726409494
Fe 7.501201877841957 7.140282103164256 4.166152889245333
Fe 6.373282985451934 10.351772894439367 7.462487674745319
Fe 5.2500615916299616 6.456708470160469 8.214621540051018
Fe 11.501508446780614 8.472588414053375 4.511258347178563
Fe 6.343414485767347 10.510404309931328 11.334153417543483
Fe 7.733410925194385 9.93765663068183 9.519220571057511
Fe 6.931305428729793 4.705458499898641 4.650989926724127
Fe 5.237315136068099 8.33965171955088 6.86652729229974
Fe 11.111050809312182 6.942674622531149 8.369262235407577
Fe 12.21991821506252 7.191352694063765 6.3855790867727515
Fe 9.276165344799734 9.334084779691716 4.640406274037716
Fe 9.691422339634586 7.364041029875874 3.3839150717800974
Fe 5.562995687636333 4.605318288920644 6.576249265337555
Fe 8.885659148548216 6.1418637737429504 8.291470007223731
Fe 8.219459572101375 4.322303493820435 6.705256156207566
Fe 4.368144620275519 9.286751042684843 11.195236942773228
Fe 6.727321220636654 8.214041751803487 11.429795271588507
Fe 10.545915546605128 5.2335621421496255 6.771300713831467
Fe 6.968196258948635 6.47064204346836 9.758834629217434
