33
Energy = -224.21784097 eV
Fe 8.321033269873103 4.6868958601256185 2.767471904784098
Fe 6.989658496269802 3.8481654310175917 4.550390591670502
Fe 5.896393426326231 5.290113603699611 2.963496797949192
Fe 8.694355030773778 5.608956434921736 4.8675110257688985
Fe 5.532284234424618 3.376118480980554 6.418542562023459
Fe 7.067104202066839 2.772070793886332 8.050506897426507
Fe 4.3657437548886255 4.701921279518897 4.783069448905135
Fe 7.26025774205802 6.129331556982719 1.2834019583647425
Fe 7.898607585784933 7.178905255232886 3.2355827814261193
Fe 7.496959501511507 4.773533512431956 6.866442302302599
Fe 6.127679570250342 4.637180442466721 8.937377114774561
Fe 6.394030379872338 6.245124288637197 5.127483328167085
Fe 4.461069632286949 3.1452254350773217 8.474346133574414
Fe 3.0426532961155104 4.122033639963506 6.742681783553766
Fe 5.627003508542198 7.548392139885332 2.3048494425262356
Fe 9.357534850681583 6.406436202513532 7.1945009898170875
Fe 4.230374953495801 6.99805522329199 4.161582134593929
Fe 5.044763582221379 5.619217966608963 7.090823560705837
Fe 3.4278501840222497 5.430723564129875 8.728122602352736
Fe 2.9392693696754995 6.395811508385252 6.165778479793056
Fe 8.204087139059787 5.800539088447307 9.040662452724565
Fe 6.189123810841192 8.672532266822278 4.262453579712663
Fe 8.156433062532834 7.937141174979552 5.545320131803033
Fe 7.0249976665313065 7.113826770658133 7.4141713573471675
Fe 9.96177048401176 7.208312050329473 9.252874586184404
Fe 5.512735202087255 7.02045235100929 9.229087268108284
Fe 5.104011319160749 7.964283915870528 6.278334343982674
Fe 3.5394004677641675 7.679177528372379 8.066500406192278
Fe 7.6887748682418335 8.165198409502437 9.554289927987774
Fe 6.890554279524699 9.72175025936962 6.446318996918024
Fe 8.912641642116629 8.738180154572165 7.710623721793431
Fe 5.562174516422884 9.202120018742452 8.403812664357574
Fe 7.567373645671693 10.336918671959706 8.619951742951377
