32
Energy = -218.9619198 eV
Fe 9.160558885220063 13.094109275784511 9.271932811479896
Fe 6.392881125151785 4.580372327975313 3.9519710962122288
Fe 7.734068004669943 7.705830133354806 7.760042114876268
Fe 9.526084283728315 11.210778905201643 10.669998048779568
Fe 7.349317731514686 3.1057072388782654 5.520467961863503
Fe 8.313119700983663 9.93257019943416 6.447434441190027
Fe 10.064063623812903 8.562495578772513 7.509211930471279
Fe 6.501685469397841 8.419894536507481 5.57448717811689
Fe 10.206074822203378 6.770255562359972 9.150858684087488
Fe 9.904923087968081 10.996435554568501 8.182728888096692
Fe 7.455834693897775 11.869330677004914 7.998928870821918
Fe 7.070933383618271 5.798466702924134 6.456412785214468
Fe 7.1938150717744005 6.769433111193078 3.983609554777938
Fe 7.556953061485003 9.857543142093721 11.188653702346148
Fe 8.927747202678486 3.8936263076783795 7.014633765956291
Fe 8.857216340653528 7.740447989267195 5.424702973809972
Fe 8.119804477759661 7.431617846871224 10.22952636403511
Fe 8.394380428520979 5.286810905324987 8.862910400116023
Fe 6.199539395753288 6.129479708397552 9.099722351746372
Fe 7.423670275455841 12.263893451377982 10.655340357561231
Fe 5.90925621296671 10.91974309482387 9.590303975187824
Fe 6.008706371375214 8.482214019379473 9.539411973729583
Fe 8.747029998589523 5.108609024830818 4.829278997343938
Fe 6.594034844961465 3.8219505441443884 7.840835008325224
Fe 5.054616494234313 6.341511808527363 5.185272556266338
Fe 10.077025012751145 9.007248690600152 9.965366117176242
Fe 8.068817441458414 9.794487616674258 8.937195659119789
Fe 9.744268352900255 6.118666054624453 6.9290402881190145
Fe 4.693491532595213 5.27882494090333 7.439378897873014
Fe 5.139121949310843 3.7965777931249596 5.68526641407086
Fe 6.08178743537001 9.85221510626215 7.455156388723373
Fe 5.166016092588026 7.622491696569772 7.397744464865055
