32
Energy = -219.67825987 eV
Fe 10.423117389942291 10.303556050302518 5.787432258170037
Fe 7.927049263120831 10.712323065668226 6.13860303932473
Fe 6.712322427285312 9.862739509123127 10.233297532837762
Fe 6.582652562577857 7.157334502643229 7.265400570363076
Fe 8.994687648008282 10.499111289249177 4.043989641525629
Fe 7.327022789749224 7.6172245787380035 11.694048969714665
Fe 7.273674482666508 8.979988409479308 4.004131341583065
Fe 6.206962945424603 6.971967018597056 4.956155377155233
Fe 8.312663392669597 6.805577221260708 3.8495249265963367
Fe 5.065048857408965 8.977085224827805 8.441669083519342
Fe 5.880176193700865 4.962532444036261 6.5383044010006826
Fe 5.935354789230279 9.226461810850859 6.014480501890937
Fe 7.334192179225303 9.328668891243163 8.026888413815458
Fe 5.514873671300651 5.282768358411382 8.865783114224879
Fe 8.099411225117077 5.763848180283274 6.07256868322966
Fe 8.833912997210083 7.402516656603693 7.9777832932475174
Fe 10.866033175165306 7.8583810675354 9.009606378753576
Fe 10.910345295127437 8.118190100718085 6.634400119025946
Fe 8.424488649336864 8.365381861026222 5.855121715838109
Fe 5.333157204097514 6.163006185170043 11.176656173032692
Fe 9.103818075707233 6.438908523511921 10.165907069802783
Fe 10.280512272765945 5.690608195888027 7.879185021674111
Fe 9.63095090483039 9.806000738485173 7.906465061398375
Fe 5.081349089996355 8.509511110016721 10.983775695964788
Fe 7.810498155453728 5.172709890374332 8.396034871601369
Fe 10.048440809593176 8.410152027447934 4.188219843243968
Fe 6.783527563466911 7.343517831851175 9.536026472999943
Fe 8.802741575483703 8.849109720510977 10.064568628813761
Fe 10.220425855723787 6.293030156118211 5.470441030777052
Fe 4.091473700200188 7.059194355509251 9.272513306573245
Fe 7.308787104613297 5.085695960420414 10.770697357727762
Fe 4.428043175123677 6.9225391513674355 6.846594165706641
