39
Energy = -272.9105964 eV
Fe 7.363559284796769 10.091605162172476 7.108827976230704
Fe 9.437658933539682 8.769899762102431 7.128814849781688
Fe 6.683981090370998 7.982875319384587 6.957962149567896
Fe 3.2990013511031777 9.351312967762976 8.43055645244243
Fe 5.571009788425223 9.135373139141695 8.767673201219644
Fe 4.515241899662615 9.278977059697558 6.425774703513078
Fe 8.007703989031723 8.662213406075814 9.093868544921172
Fe 8.211791705568674 8.228753322021173 5.157642002403666
Fe 5.713669771682095 7.890700251891983 4.774680505967856
Fe 10.184455052800581 7.661105811759462 9.246284484846802
Fe 2.217687559500554 7.6949814673030765 7.216196807591377
Fe 8.450983103009532 6.563796061715577 7.5975175405517374
Fe 3.8550567322351266 7.385528920774542 9.607288649305342
Fe 3.2775297287737164 7.682055633108455 5.024713693789019
Fe 6.356576557841367 6.8939567944808795 9.218970690299177
Fe 10.99466861108446 6.880182048396203 7.244289006144496
Fe 8.529940470981154 6.35475074959743 10.170171040208022
Fe 4.690564103876042 6.939361605548299 2.9545354168458005
Fe 10.408900854325626 7.778711062494863 4.995607884388018
Fe 4.820565567873412 5.1164950559191595 9.251709312951188
Fe 7.30182032852526 7.6719359243600405 3.044586898991495
Fe 2.617184645548115 5.614691737662391 8.42061265413785
Fe 4.436865096691705 6.970505467126495 7.293720092373314
Fe 9.944995504448414 5.058961634930067 8.453459829658302
Fe 9.75866243081263 5.551549117593587 5.715534249471571
Fe 7.453344240581751 6.079889102698904 5.29295651934727
Fe 9.111885196022026 6.226712606226629 3.4558776493530035
Fe 4.794913192522231 5.7086623766813664 5.102784308890943
Fe 6.690553378742124 5.375178612947582 3.1466449726502903
Fe 7.501175069924969 4.579553994496086 9.06341746293386
Fe 2.5836032839766934 5.485494557503506 5.9915592055578415
Fe 4.256612819990586 4.211080316072682 7.125952782650715
Fe 8.310889649083862 4.040346674235172 6.763553394534385
Fe 6.289818943138589 5.361508320653888 7.251897820528
Fe 8.448881123487073 4.004633767356916 4.201982401678188
Fe 4.456577973277188 4.522383159027883 3.0183684426111896
Fe 6.355678407995739 3.070043649141382 3.0712319846848657
Fe 3.8927192400563917 3.3741033787055366 4.957561705106303
Fe 6.243267863107367 3.790124545647657 5.295207256286937
