38
Energy = -261.79859743 eV
Fe 10.774666298005107 8.743784711360348 6.140048026693184
Fe 9.10168017374829 9.231222915900881 4.6565509001473115
Fe 7.33828922046286 9.839511160426209 6.023766675816108
Fe 5.7089177738083015 9.739386518092624 4.369789683311868
Fe 9.670519552279327 6.9907167339606655 5.046573547081286
Fe 7.185576404949957 7.81232747304358 4.43900127062763
Fe 4.750890820892744 7.5846605374704135 3.8167083264029773
Fe 9.118648713424443 9.665409129740544 7.542771503446427
Fe 6.639270926403154 9.421299675367313 8.231398079279804
Fe 10.181426640529695 7.248256954743486 7.850954393148924
Fe 5.0202624399134805 10.338311667778123 6.636177318314319
Fe 6.433248021173878 6.077564209746588 2.965087250382886
Fe 7.716386755855952 5.50751227079858 5.050922982814012
Fe 8.068661494315874 7.5235338480811516 6.866160176698752
Fe 5.761909607537 7.928699140286899 6.308203381793585
Fe 3.6464420152888866 8.71487632162218 5.654692551264164
Fe 9.450555939623445 5.261554634195532 6.7039805057525035
Fe 8.333665053280003 8.160910618818242 9.307226137663704
Fe 4.260560237143161 5.177302011939348 3.3060830737338898
Fe 4.266504450022723 8.675001108391129 8.213025206882286
Fe 7.988357571111518 3.236049329763505 5.956067358160294
Fe 6.223430953501537 7.08530663219681 8.636246247123074
Fe 7.0173144051536855 5.119604572869813 7.3179490461331405
Fe 8.519760117191044 5.789390925980632 8.96954444383123
Fe 2.8257310312248656 6.480115448001005 4.818763250937472
Fe 5.327333911101734 5.761475769904098 5.4191764626370835
Fe 8.993740287993175 3.396176299208608 8.04587946003593
Fe 6.389401363989617 3.8826514361138673 3.8525243642250357
Fe 3.854501746087286 6.643230172283153 6.957532014044382
Fe 5.613353279075629 3.4485810732773445 6.029064122159308
Fe 4.047873551763943 6.523313241849906 9.353677746932583
Fe 4.772107035032278 4.7251758710230005 7.937257539342691
Fe 2.1825125661821425 4.364986579965851 3.9066534850294388
Fe 6.0694966752165005 5.045611960204338 9.83468878257609
Fe 3.3362878897249524 4.383853551115648 5.902856607980206
Fe 6.544994093242072 2.8744878579941364 8.2125603322963
Fe 7.853517319762135 3.687513079628806 9.97691124302036
Fe 4.202688900867526 2.9671329243466174 4.094770592944913
