31
Energy = -212.5920423 eV
Fe 5.84233395530418 4.021408871460408 9.206314522472292
Fe 6.979508022164893 3.9921822883988254 6.933088030643513
Fe 8.569499477653126 8.959082773580954 7.7547800762309675
Fe 6.8562361255523605 8.117016989770379 9.412993751473898
Fe 7.329151933974075 10.999901050823473 9.473391636499182
Fe 4.132507872026365 7.052799482619749 6.766302849830378
Fe 7.599828938451604 11.68201788858255 7.287302258527079
Fe 6.058869301295577 5.932465009106665 5.759410542930644
Fe 7.817013659371714 7.611044318369126 5.385028550428582
Fe 9.938681160114514 7.035827604809409 6.114815070246309
Fe 8.396989953397954 5.218533462351626 5.459756834878391
Fe 10.696262241691727 9.076801282242016 9.466052183544774
Fe 5.850624853130716 10.100729140259654 7.926962855620695
Fe 7.964282085918517 6.386073566291725 7.781978947082074
Fe 9.501588634287312 9.237654178228164 5.072766221073975
Fe 7.307130511089691 9.958447393735765 5.7579586915459355
Fe 9.589228856135758 11.001637243809498 8.755160476451985
Fe 7.297665257769695 5.68658094416029 10.225687954816207
Fe 10.922808844068586 9.141415208574895 7.111374156092985
Fe 8.528237861777766 9.501304742282624 10.608920337177544
Fe 4.6580539001647265 4.566184769074134 7.066240626964001
Fe 6.220427714090112 8.051524256154392 6.996664428763262
Fe 4.525074636883022 8.139991155381763 8.876143607912386
Fe 5.651916956875219 9.70998354806012 10.531280651948759
Fe 9.656705660084574 11.08860567365981 6.40033732326355
Fe 9.669522377003064 4.676622065472433 7.30247989396711
Fe 8.141705554092523 3.6295419418373256 8.864236773868896
Fe 9.60121101321365 5.1548981141982715 9.748473962111259
Fe 9.003573019803435 7.400579761559463 9.931921061923665
Fe 5.639761819122399 6.170674672236525 8.463106739271733
Fe 10.56341288757341 6.869789430192982 8.293639110263161
