34
Energy = -236.3872146 eV
Fe 3.9905697562288216 8.147605430303416 7.200413114085984
Fe 5.605736674127133 6.284637250463593 7.184350482175801
Fe 3.3134754136485136 5.806799906732561 7.644958056989336
Fe 5.983953726652453 8.490628403383838 5.864338988320597
Fe 2.0617262680059563 6.829425951551849 6.007223146306362
Fe 6.639898778072404 8.355079172674985 8.08322515931667
Fe 3.5332711419149105 8.77949913496984 4.94438527276852
Fe 4.175562559895782 6.672178940920414 5.130211870381303
Fe 5.334868482874445 4.372420968645577 8.42028490013844
Fe 7.329381720569225 6.186368784843957 8.934207448345072
Fe 3.238499511923159 3.3462290860534 7.924773060176693
Fe 1.9651693764895566 4.113610219202431 6.040089694865436
Fe 5.547977296672237 8.343692966118342 3.5086714536261514
Fe 8.388700663403247 9.108304855021428 6.511311660850942
Fe 7.878824364373545 6.627665526397694 6.470261248261286
Fe 9.009988011783822 7.83221109149321 8.372956257766937
Fe 2.525532409368351 5.283034173737386 4.103812898094795
Fe 3.283129201775832 3.0789796001659724 3.9306993815314044
Fe 3.5467913488485383 2.0091345093155044 6.00022403121146
Fe 4.290990233169897 4.371856289616269 5.93631908396896
Fe 7.893615954413444 8.266610113003058 4.3352946065490645
Fe 6.7517085953671065 6.5051237878093175 2.5077837526266524
Fe 6.388364070324551 6.345902284070715 4.7952207513635425
Fe 5.620159789848997 2.4832759076649404 7.09819126437649
Fe 4.180642355825242 6.728074668848547 2.7296682125894285
Fe 7.759391628834208 4.177043964627656 7.8358278038301945
Fe 9.676302453061208 5.68632712175407 7.79169804808934
Fe 5.019925233621741 4.732174789678947 3.6115451181538987
Fe 5.584651172925547 2.5864967728388537 4.605198239806053
Fe 9.948033369126826 7.313168905654705 5.9394388610399
Fe 6.631068636266286 4.295664505002633 5.862687804525895
Fe 7.3686993250607955 4.358096027484326 3.6139936906704984
Fe 8.913933442359122 6.2597076520541854 3.9516341969343842
Fe 9.003380576823316 4.675002113928216 5.681889212907281
