35
Energy = -242.32955544 eV
Fe 8.829320451623822 4.68557293119381 7.289103412123654
Fe 5.412022325637637 9.638174540208183 9.093013482393937
Fe 7.4904860272530795 7.737933561638559 5.1163823703269635
Fe 8.292363284155375 5.578903129120447 5.161428415202103
Fe 7.1361698439671635 9.67827786339667 10.82719682660179
Fe 8.67603979823791 11.992010195532007 7.441248143668069
Fe 9.87021701135832 6.218766471104395 9.203768988698462
Fe 8.299304224167736 10.392929194654124 9.06226836406663
Fe 5.719219978214717 8.653602300572771 6.6563092541235775
Fe 8.894388991831674 7.0099651921464865 7.185529390058207
Fe 9.58173485365057 8.694615905404703 8.995632887701005
Fe 6.628742260540986 6.266708696428747 6.887056458240247
Fe 5.844511690001942 7.768199704302325 10.628548729397894
Fe 6.669771107763191 10.773214608216454 7.226968021987591
Fe 9.106380063407332 3.941255576969313 9.519923127102562
Fe 6.666286021262544 4.100097877699298 6.1012605294100135
Fe 5.016792867205945 7.125556519902634 8.50173501993933
Fe 9.849743567187197 7.595956069026351 5.061597961663895
Fe 9.006854936013521 5.413344779332884 11.302647331331977
Fe 5.2486915857906 4.689287237898443 8.176649543651896
Fe 11.196696001298154 9.472795082657765 5.424660461372064
Fe 7.22048524381566 8.315011378937564 8.43931916527932
Fe 6.584040518118656 9.893555309677515 4.798219117750167
Fe 10.573635693251212 10.537564210753802 7.638207683291636
Fe 7.123819111453875 3.3363801061032015 8.245351634725148
Fe 8.935579537089613 9.714728000370899 4.186768284895759
Fe 8.350468181633477 7.710743701674257 10.682401437762355
Fe 6.881327888110714 4.056889563661185 10.515847100444601
Fe 7.759135194539914 11.766303860041686 5.293703061154029
Fe 10.98971192087271 8.106456154621279 7.243763812377855
Fe 10.048404677984907 11.421717571648143 5.445250866831901
Fe 6.898711610147508 6.067783669982669 11.875687957901484
Fe 4.998670072723795 5.551191644886258 10.347530997018058
Fe 7.335357652080195 5.9417624045576405 9.244262729610442
Fe 8.628189289054182 9.46449023469595 6.561636298589819
