35
Energy = -241.73180358 eV
Fe 5.822963433045323 6.688974804772402 2.4528232699795955
Fe 7.426726375365293 5.012623087001051 2.2843638336748757
Fe 8.089609995200851 7.096188101328317 3.4358296731458817
Fe 8.14729902099997 9.03619688637246 5.179603951052966
Fe 6.072226732896976 8.282794749788165 4.180243308189898
Fe 7.033789543433903 3.170010522975571 3.6665909067107685
Fe 6.058006785087323 10.23920427053639 5.640440683751157
Fe 8.936872459436188 4.820491007014523 4.147096929233439
Fe 4.398510028686645 6.516277110994845 4.556533123148936
Fe 8.654941803371322 6.672465042530066 5.8476100073693225
Fe 6.686481529330498 5.627138722701425 4.742976266184173
Fe 5.020863926759878 4.57340563248297 3.1315094163774946
Fe 4.315102763246055 8.557101370885484 6.063574632054888
Fe 9.216065672986504 2.613395916942454 4.725352047678594
Fe 6.390213438541044 7.49849562908391 6.348589981638269
Fe 8.598858971734497 8.401065639156917 7.465678567641663
Fe 7.945129042792106 10.667121872371194 6.973121878348088
Fe 7.041165772496688 5.323674264104728 7.34298746292705
Fe 5.955360104636399 9.403290703972367 7.86012786855316
Fe 7.83925400507841 9.76218637782604 9.159773202240908
Fe 3.0047414552810174 4.649700715961466 4.964567147300873
Fe 7.509767126514271 3.3852000097071255 5.985132247861607
Fe 9.454850540564083 4.522893877895644 6.494205334691598
Fe 5.196569943207197 3.8201596065504546 5.4050175456132
Fe 4.6528961283247865 5.690323646534838 6.801209496819916
Fe 8.896163208152783 6.137961216609925 8.334075195896604
Fe 6.9726852237097985 7.4305897624366395 8.862752281634192
Fe 2.628410197039631 6.914704722142606 6.449983203826698
Fe 4.406477870422639 7.525702322981206 8.348208873331764
Fe 1.7554453469632814 4.858577135544359 6.9203381418016425
Fe 5.815262639960172 3.3583783684069646 7.810375669395882
Fe 3.4823825906629673 3.350843953861057 7.189868079880929
Fe 5.551081176543657 5.471115030980046 9.252050224166085
Fe 3.0573116669849654 5.534771321370618 8.735362693923861
Fe 4.134715842398983 3.6162130020283136 9.43953746635693
