34
Energy = -235.19051135 eV
Fe 8.849269889390737 5.745203655113772 5.822713703871899
Fe 7.68145911185413 5.240800100215684 9.618067229508357
Fe 6.588481821454436 6.165927518974865 7.296734203179003
Fe 10.492484358197473 4.30094141982247 6.681568136360678
Fe 5.825461027227191 10.144165368738939 6.735438921890252
Fe 9.946701426954693 9.089176645818439 6.919404497821861
Fe 5.051950848668144 8.10248879135111 8.183963723172424
Fe 8.385737807210223 11.266187905360988 9.898888801000755
Fe 4.99038769435755 5.248735769869877 5.477517693598725
Fe 6.951583924898489 7.515162171402436 9.404662473446184
Fe 10.315551457295028 5.4283914663140544 8.935768419908685
Fe 10.423153407857981 10.707596725351907 8.739255768605867
Fe 8.885172075170342 6.831441639638087 7.867176211403672
Fe 4.044314036605938 6.018848867708253 7.4310313272407305
Fe 7.772426899931357 9.110745040603462 11.161229996419332
Fe 10.22393631891646 9.39515573040136 10.807615713309847
Fe 8.731175862402901 9.035353965781935 8.94361897859656
Fe 6.898497377291269 6.665926069102848 4.818725541072534
Fe 10.95520115148194 7.953047157316274 8.835438780401725
Fe 9.04502683375094 10.864971615657355 12.088209878202811
Fe 5.304204376912372 5.791554457692968 9.430417929931066
Fe 7.052537294008371 4.1963791504242645 5.644493293600469
Fe 8.619291930879697 10.178905058251662 5.278041289989591
Fe 6.825010522690397 11.713819686922935 5.289669583331928
Fe 5.770685496165585 4.0795373491177065 7.759892845591437
Fe 9.059381115177736 7.920406535322361 5.050617022305275
Fe 7.36132098939429 8.451331472686125 6.926086245076863
Fe 9.21606208401778 7.072877113434625 10.425186552104961
Fe 8.136781019588376 10.90779019582437 7.41543233153977
Fe 6.651107244064129 9.111934076769387 4.624043335285673
Fe 10.968846790441118 6.768404274404452 6.7718353403060485
Fe 6.456310351953326 9.93380538188071 9.087693118672355
Fe 5.038978590271762 7.7268950022458975 5.867154730134607
Fe 8.29154226526011 4.267015083122131 7.676228144849678
