37
Energy = -258.90668422 eV
Fe 7.251200283867188 3.8036338968427486 3.294143070775601
Fe 5.054775790348978 4.4288091301592 4.284497223940179
Fe 8.561878394114084 5.60385856302948 2.4220630061254007
Fe 6.084395104043916 2.2334584444262138 4.700240696426338
Fe 6.098355002712724 5.620337639020618 1.8832306190459194
Fe 8.528204462743235 2.712538910739658 5.220255847773686
Fe 8.847707037916202 5.030479746526323 4.647257655468125
Fe 3.1326667757866353 5.323370901218247 5.437299028207966
Fe 7.528125674841779 7.679802185111731 2.262520514985911
Fe 6.975667115933001 4.315005431866903 5.884354044702085
Fe 8.764568794614481 7.405691204275823 4.349052172896923
Fe 5.268757833797418 7.980412240464353 2.7681980935172184
Fe 3.9636191948604913 5.995366179925796 2.9998175917435597
Fe 6.784730580933393 1.9854783254091217 6.922267796409071
Fe 4.582953157465184 3.234189425234545 6.340286598156964
Fe 8.44524865210416 3.581308384788728 7.536318287990084
Fe 6.6221629870543195 6.171834875122286 4.042184687671713
Fe 9.13620952010171 5.874820319659635 6.734234807523846
Fe 4.688963766356391 7.230033996113413 4.942571974258495
Fe 6.700519410750087 8.822336535378641 4.458284815533792
Fe 5.871509887313125 3.7078757777941864 8.251762060041294
Fe 7.175642687026287 7.1714490065435825 6.114336401890015
Fe 5.282806563834469 5.6515852790958725 6.6723497773116796
Fe 7.271701521808416 5.629602945435478 8.146866863823353
Fe 3.3590471025401447 4.79733390491257 7.793796250974979
Fe 8.377488589567802 7.720000589109451 8.121435302250854
Fe 3.5700618345873183 7.25233761230209 7.083646055527618
Fe 5.064287279385232 9.246184721328751 6.235760880196642
Fe 7.40925049731655 9.490197135370355 6.90139546577955
Fe 5.7568213978374265 7.803966574917925 8.053958561417048
Fe 5.007626257260412 5.817048990002354 9.23810191441787
Fe 6.981017977394681 6.897566401830479 10.135751977739082
Fe 3.2293314316030712 7.2498981446958854 9.383114067285746
Fe 7.314055433027621 9.21008356060662 9.52703429210859
Fe 3.63931917918238 9.33792059814998 8.354641986608685
Fe 5.695271916113999 10.3947143558686 8.305789048132159
Fe 5.110276550433629 8.54152917773175 10.199041752089464
