31
Energy = -210.82043341 eV
Fe 6.88024202346332 12.794709707318066 6.742223517765562
Fe 6.411254764016895 10.19374625489202 6.793359226510244
Fe 7.403574711227923 4.727068668115341 11.088239317340623
Fe 8.527800767252298 5.820986871284578 9.402265897644604
Fe 5.226138648257504 11.807273180967226 7.999079405321488
Fe 10.112225576982928 7.220446210546229 8.229904878454827
Fe 5.600706893270708 4.9485538057547895 9.674419540544388
Fe 9.030096473323926 9.696202738914822 7.750618023404748
Fe 8.71586737138924 5.450653424197734 7.120196488121421
Fe 9.181321204198085 10.608249862432746 10.07386037762149
Fe 8.582094917262229 8.354130161712645 9.890154503126936
Fe 9.208783960899629 12.46979684037857 7.913406278321368
Fe 8.534366616244542 6.693455372957144 11.775738034286151
Fe 6.386686423758916 5.703673857959634 7.650824167545139
Fe 10.49636983774632 6.650659215652771 10.567473761521775
Fe 9.580317436700648 7.456063818082251 6.030094609790957
Fe 5.649064227882933 7.941650482268569 6.4983968235623655
Fe 10.00419872132422 8.69856676150317 11.691190205415214
Fe 7.637793485572939 7.647998084075683 7.679408686195944
Fe 10.79063981206269 11.430194600928592 6.472670469974001
Fe 6.6448050953968405 6.982071771892359 10.243836549982204
Fe 7.575874942447556 3.8950099632983837 8.698114300996952
Fe 10.071889359376561 9.602649000138817 5.2174615827762
Fe 7.758540444730146 8.774726052803247 5.444709014751952
Fe 8.400032643943304 11.212935900878657 5.936740797929124
Fe 10.983402842342176 8.955851457033521 9.572048388603271
Fe 7.346238459661312 11.428771662422994 8.67274845754238
Fe 11.342436176750697 9.103089003997077 7.172936347001025
Fe 6.412839183292187 9.228402908252317 8.950504630493636
Fe 4.97644293051097 7.327577986993171 8.680205539024074
Fe 11.028199518889492 11.15528514022278 8.751050272483605
