37
Energy = -255.53941677 eV
Fe 7.472544756645542 4.89150222832785 8.81746106213616
Fe 10.409210818183817 4.076668574043331 4.773567166255833
Fe 5.143517536879419 4.327352112551851 9.559795026347588
Fe 5.427873403697861 5.866794996673802 7.766441168523355
Fe 7.047957065989514 4.960920826084964 11.088645723101228
Fe 8.958486699574879 3.9546060671294954 6.748870035747845
Fe 3.584886617040628 4.712702844010056 7.255514792005711
Fe 3.6985231128224365 6.303342026603112 9.418430949565078
Fe 4.738408290006705 5.503837696855399 11.51035966634118
Fe 11.181141423089548 5.305319327344907 6.543625539104791
Fe 8.442141887124421 6.914429815621032 10.177449881994992
Fe 8.01979167237181 4.305064888824091 4.706801495381402
Fe 3.424516999794468 7.1818716606139485 7.100346685282528
Fe 5.961129014323709 6.864599209923913 10.095503876259098
Fe 5.777938194622067 4.294427110048202 5.851249375549893
Fe 7.490814425994506 5.669738861588992 6.53977556584905
Fe 7.1151950904632315 9.25319657066167 9.723858301552559
Fe 4.331844229429142 6.036734684618323 5.298195506150078
Fe 4.988692237463745 8.458369434994175 8.434939468458607
Fe 7.21646416705946 7.388139935513501 8.181242775972159
Fe 5.851025862365183 7.5674643114418885 6.22687696944198
Fe 9.41919426846943 6.183239161267227 7.939430146870637
Fe 9.613272975530982 6.28031507129621 5.039520986460382
Fe 5.7075439534599655 10.868728334234266 8.470515861934693
Fe 8.268933226223917 11.061571007521836 8.655260750967592
Fe 4.654804443587215 9.551018355789754 6.448221451440089
Fe 8.452723597388006 8.097284493135279 3.5561496575683176
Fe 8.314061755286595 7.994103828768816 6.0288146306718575
Fe 7.012853315176449 9.58348211997168 7.145473538212146
Fe 6.181058634424629 8.961176085962787 4.532660674526896
Fe 9.169636151979116 8.676905101913432 8.450543835011967
Fe 10.806425719910063 7.809307693439193 6.862964265441419
Fe 10.335635655460354 8.760963330616315 4.792692318755403
Fe 7.299822441200996 11.726822207183337 6.594542994629769
Fe 9.583688465307445 10.214988363241146 6.717594980719288
Fe 8.224211615118966 10.207484905836695 4.859301864181582
Fe 6.99408212770341 6.505578607516452 4.407412862756349
