36
Energy = -250.36924656 eV
Fe 5.4919330671706525 5.031248680997286 0.8392520173965892
Fe 4.587404577189308 7.35029895375949 0.8212458631625287
Fe 3.76775488166412 3.0155140609855304 1.4512670908335854
Fe 3.3100467192444167 5.652210945594227 1.7890642451363146
Fe 6.285909300505046 2.455132342419647 2.100886111677147
Fe 4.591330280573422 0.5995239681007509 2.227684735580399
Fe 1.563056979157391 4.021244225659387 1.5829618919731983
Fe 7.44635333223436 4.555460963506726 2.792815793561935
Fe 5.768783112559273 6.732100716654944 2.7151406410860255
Fe 5.1154053579150025 4.414171220660521 3.043242300687136
Fe 2.329933065020106 1.6442235595412487 2.924239535136141
Fe 3.663331769374211 7.963749945010468 2.973384002066592
Fe 8.179483294574766 2.0050570509133983 3.5015394089464897
Fe 2.6188463623435774 3.952571688720422 3.5691549317186664
Fe 4.451723639042081 2.2465965591949892 3.764877278035752
Fe 1.5779185638415627 6.118002693621522 3.5203199052074514
Fe 6.269852045075503 0.6848196931147809 4.148175209162355
Fe 3.8499995104637135 6.082311410373763 4.194139501600826
Fe 4.326288581909696 3.9422076459847717 5.353632196221428
Fe 6.310076701511945 5.628869628449341 4.909274960920615
Fe 5.274845408359203 7.824718412312442 5.208109932234403
Fe 3.7775614010865017 0.2542895004628698 4.679789515117578
Fe 2.58619965936997 7.5224920545302965 5.605761265627243
Fe 0.6126473600624468 6.554197301885053 5.999493948155591
Fe 6.595800648430743 3.2156650886137843 4.642582675500046
Fe 5.068556895037959 1.794252463524886 6.212130893617906
Fe 2.1506864809843216 5.019832991636537 5.706723421503111
Fe 7.470911375414518 1.6594793905370566 6.029960673559101
Fe 2.59583440320262 2.311350597608358 5.462139945817816
Fe 4.452467334760938 7.8052217856662525 7.728846575831521
Fe 4.3731987870485565 5.951017393607886 6.484845191729069
Fe 6.583822559828558 6.630663716643109 7.117257494346076
Fe 2.5365325925174553 6.134571322808547 7.877192461748743
Fe 6.141944253917609 4.079840120865592 6.974853745924444
Fe 3.5715688281404443 3.8848517142339385 7.631813831217178
Fe 4.992003195987453 5.552252517318205 8.706213133476519
