34
Energy = -233.77731167 eV
Fe 8.471281742847639 9.457687132372962 6.334568710261825
Fe 6.92017362830449 8.416002792865823 8.23020802730339
Fe 10.317397036870231 8.261692219531101 5.339823277678917
Fe 7.080988489821205 9.827227579818992 4.420336940457079
Fe 5.267890126504673 7.132844502153203 9.466898949267074
Fe 8.803422933525285 4.629823582600184 6.665414927968007
Fe 4.439497864229342 8.359578507154374 7.199790475836992
Fe 7.348392879409978 5.973987233670325 8.153351477187542
Fe 6.603967708051171 7.844067644279069 6.020614462449256
Fe 8.312020855127033 7.711811139201688 4.386115434960097
Fe 6.070167051803164 10.131675000645092 6.649955321808081
Fe 6.0159851255161225 4.865996885124069 9.690749302463654
Fe 3.888851313842601 5.742241877584604 10.860804801446656
Fe 8.866394876792127 7.104415683036379 6.742129313996275
Fe 5.1896904012967555 6.111730741814226 7.291583097225815
Fe 9.70864650962568 5.920044620617409 4.768855706369882
Fe 3.071144192563918 7.022003154343729 8.70798872462738
Fe 7.805831043552266 3.5439123381047515 8.530678454872671
Fe 7.402476335749552 2.92552111082827 5.922506192225607
Fe 4.765878491362286 9.25571909710241 4.819411341780669
Fe 8.712707901578687 3.904858743938358 4.192352784877423
Fe 5.859311112152861 3.8381203265898858 7.398401402623563
Fe 2.876483848825748 5.915438975705541 6.5798028810472395
Fe 6.947815030145286 5.571993937714595 5.356009538662223
Fe 3.8406641123709955 4.841390106022092 8.784714929073704
Fe 4.504373516319048 6.888925461811191 5.083311567024034
Fe 6.247536344679896 7.727918107489951 3.4917411247080903
Fe 5.085380233229667 2.2860919158157924 5.703654505443921
Fe 3.9766155248487594 7.683939053701603 3.009557547121217
Fe 7.751113042930969 5.7468312147565666 3.0557875790013203
Fe 3.441403167718887 3.625513252777148 6.944814670286329
Fe 5.298941770737462 5.558366018946562 3.1103539810966367
Fe 4.671912064889015 4.5662457731222785 5.206235117028904
Fe 6.384342350239462 3.5599370220345157 3.8628681008038335
