31
Energy = -213.90996304 eV
Fe 7.755392531405892 4.438493146017171 2.6728930944867613
Fe 5.474383920188862 5.249569736287884 2.3610722671145963
Fe 7.457377094711258 6.756879807267629 1.932755147971826
Fe 6.448157871971459 3.284849190888548 4.223649054251831
Fe 8.994953744324178 6.301969023240556 3.634662766661236
Fe 5.771868539359084 7.99382605210627 2.823875306051644
Fe 8.576807664839453 4.375850294061896 5.086910188635875
Fe 6.577588954089619 5.884068235669508 4.251268993583241
Fe 4.155716683003334 6.731217833391454 3.8457237257072916
Fe 4.379086887707396 4.337757677948938 4.519308485660918
Fe 7.777063651128379 8.278647601943923 3.9766483167661004
Fe 6.64626623311856 4.533933106455932 6.287091139401897
Fe 5.862475310264248 7.925853684190973 5.388458552147154
Fe 8.099285357402314 6.742893110435032 5.905150892493984
Fe 8.69978911679765 5.088374917798109 7.511330170172906
Fe 2.435753346576019 5.910340554978054 5.242700283538357
Fe 4.712566794641516 5.96113205784186 6.181079746915702
Fe 8.9100118486506 7.523670446418063 8.024836174793915
Fe 7.192537913031193 8.848997305305552 7.16975143176514
Fe 3.378566916972818 8.109903825736454 5.654759210688849
Fe 4.98616409712065 3.0950766816200943 6.4869036449497415
Fe 6.514037841638303 6.450916677140109 7.785617776495667
Fe 2.861977549348756 4.1349425997766085 6.760864741711442
Fe 4.826552201169585 8.325131618534286 7.56725127536797
Fe 2.916219924002742 6.607775105316026 7.551041962305167
Fe 8.178626041464929 5.976572547787753 9.640999407898414
Fe 6.850459377729475 3.967531013492436 8.568187642811031
Fe 6.718229647366605 7.973501415109865 9.451232398320467
Fe 4.64477273352301 4.813380571533595 8.249061892620375
Fe 4.448728716318992 7.043005033765239 9.438160444830292
Fe 5.9936345821257735 5.481543909084003 10.187912481704572
