30
Energy = -205.89876631 eV
Fe 5.213016146361446 5.223028911106399 2.081253131879586
Fe 6.513574560331513 3.414348786429415 1.5850921226501806
Fe 6.094714343984512 1.413878853352866 2.6107096547923114
Fe 6.601873794644148 7.386489122769468 2.7851326024866006
Fe 4.164139142843543 2.806875820802911 2.678813414531779
Fe 4.058219956361226 7.244350490332229 3.202203554793337
Fe 3.666503914747473 4.858222045384429 3.8583609049487295
Fe 5.72771383589652 8.377710636749649 4.804065015716906
Fe 5.810568017468384 5.8991821819639245 4.286720363024276
Fe 7.559614985851361 4.981731888657692 3.115496472132781
Fe 5.086008777251852 1.1312955054276423 4.626232338733162
Fe 1.6691596309552756 3.910606074507114 4.221406154574165
Fe 7.9492213314131535 6.9012300998275 4.852327291777852
Fe 5.939747444749379 3.371475411143556 4.042398757998369
Fe 1.9391219548668517 6.391432856268609 4.444850992672515
Fe 3.577930910823047 2.7817796452024264 5.213045744656677
Fe 7.3874030099105195 4.4495476531024885 5.65966254505
Fe 3.8933099120479726 6.8370403168312235 5.579173461990641
Fe 4.881417458428466 4.565836510048003 5.954768968678289
Fe 5.930855049353419 2.5160743180372935 6.454743570495523
Fe 6.100210878326909 6.523428916187304 6.508328465204314
Fe 7.280564116230567 8.451362124122236 6.616181358628508
Fe 8.163304413515611 6.009467820548264 7.242574076515457
Fe 2.4408904877139177 4.876314687994023 6.252661864484676
Fe 4.776504567453006 8.433996345962255 7.220399010275824
Fe 6.250076758598957 4.535234830734971 7.978776825536691
Fe 3.92280615406265 3.405743344109305 7.661965605601531
Fe 4.105351259248778 5.952542489375584 7.872333172683819
Fe 6.391207089279644 7.114488891630703 8.680878847291389
Fe 4.38189767006676 7.712210994177384 9.386371282980646
