38
Energy = -262.84287182 eV
Fe 10.040872029959582 9.537265635696588 5.051689915790664
Fe 8.87709212150277 7.770787034978704 3.9423789817792128
Fe 9.814318155585628 7.465692096057867 6.109120970052461
Fe 8.612718849042164 5.451638615268152 4.856313997417027
Fe 7.578580315397872 6.138956392628457 2.716435964204971
Fe 9.119166356630505 9.276672144945966 7.38235247358231
Fe 7.785945578928186 9.48165452171126 5.290283848407229
Fe 9.009753228886536 5.413517045883623 7.262797623369907
Fe 6.220658935441665 4.591209776508745 1.7733366418927536
Fe 7.263683517019871 3.5382764282263923 3.566084814167105
Fe 6.391768127667335 7.720909755778985 4.079201701024765
Fe 7.446178929100374 7.28035367321795 6.186428699107798
Fe 8.388611796618477 7.2465301951447225 8.49629924962988
Fe 7.802743340388484 3.3972560761234463 5.871844084433512
Fe 8.438315809020628 3.3249643455475475 8.125178419427352
Fe 4.616064951066271 4.010707942388239 3.292471979575273
Fe 5.000176681796507 6.45837319507096 2.5061775532262303
Fe 6.790234234625769 9.005557137614106 7.592660439223485
Fe 5.295240344556414 9.322370642248465 5.675733608869413
Fe 6.682005834162688 5.105266976686588 6.960609187742898
Fe 4.005807790600988 8.2826700100203 3.913822910996416
Fe 6.13328703778719 5.293787587241843 4.580186445433798
Fe 6.120746880904876 2.983515955500425 7.871095917527283
Fe 5.889549839536326 6.8778570542062365 8.456758276283999
Fe 5.459282108378123 2.9652382502477637 5.449643380106865
Fe 5.107016263496322 6.902932606197937 6.22077971085378
Fe 7.377443818674875 5.018871566049129 9.235520917263932
Fe 3.696888779569589 5.958157792151566 4.492581431996527
Fe 4.883164268303184 4.665533711536314 8.93061235517458
Fe 4.405123550276282 8.808872068947458 7.728064937780202
Fe 3.0009138428573245 3.513035389130804 4.930358357166941
Fe 4.264585307577746 4.652358371983055 6.642713921034026
Fe 2.9787018251892667 8.103956760463586 5.964429265890406
Fe 3.5739313966634194 6.608173454510949 8.024958493792921
Fe 2.1498030341977112 5.693482171939129 6.261012323223777
Fe 3.789669499558908 2.525801496701679 7.40664345122842
Fe 2.5862658293300527 4.448662948730398 8.633488640862552
Fe 1.7054520842936673 3.4608954673091827 6.821691405052825
