34
Energy = -233.99144327 eV
Fe 7.927190287790593 4.433398017967889 9.008854330306887
Fe 7.751170591579712 7.040461890363579 4.935057735028362
Fe 11.773109412940931 4.2715358255169775 8.565894296650946
Fe 8.240148952459107 8.178922082688095 7.15274010253664
Fe 9.460209690203023 5.265755718494119 5.297326249307511
Fe 6.048189095577825 7.896809758865864 10.465965126379949
Fe 6.9310718130587725 11.916745280624424 8.227284267408683
Fe 8.61841258212068 10.349155101496619 8.628922410204442
Fe 7.704541924907279 5.343747465950505 6.704813348272886
Fe 4.231973149527299 8.65960486487169 6.195984414241369
Fe 11.228784648169269 5.817796636635933 6.872136236036735
Fe 10.51470008689423 8.692752561530183 8.887604788991709
Fe 8.029463322709669 6.064166474853959 10.674990107975557
Fe 11.776349515401757 6.557739907473485 9.156012645041505
Fe 11.899276483642527 8.130099684495493 7.19971870086418
Fe 3.586107664578379 9.898606793548105 8.051638443421032
Fe 10.118515239930696 7.044439803792877 10.721019516757789
Fe 6.912538176365552 6.659720197164355 8.593762454063413
Fe 6.205708718626252 9.27808960909617 8.089372445355702
Fe 9.664332477590401 4.04933699022449 7.513347495271006
Fe 8.827325283484269 9.187966175990299 4.829580630597419
Fe 10.13158396197018 9.828653156024847 6.761893207694592
Fe 6.431734107178941 9.111016024233473 5.431407294241038
Fe 6.775684246665315 10.241497272544722 10.26785099682606
Fe 10.063627267105003 7.441537377944301 5.902767346500965
Fe 9.366382863604153 6.4936944104232275 8.273333680244132
Fe 5.257201830221677 10.999524159395936 6.71959981339803
Fe 7.8352061699638575 10.705706292880672 6.4004753449748675
Fe 10.05922184550378 4.753607531675485 10.019433280290427
Fe 8.250662058138477 8.253366075011709 9.629992662799697
Fe 4.493878246704726 7.601660428433435 8.487273786595019
Fe 4.965784735321372 11.413379999414486 9.294260997957348
Fe 5.89808970295204 7.083010406369263 6.518757077440746
Fe 4.352548326927824 9.35379517810201 10.205278535307315
