35
Energy = -244.66580118 eV
Fe 3.260545966493568 7.432396845587646 7.057168397858416
Fe 7.312504091076101 9.544758089924422 7.067291959177654
Fe 6.170259663592583 8.915807033674973 9.006322279647668
Fe 8.687685107196467 5.758014977700233 3.948712191373992
Fe 4.778544240909022 2.7971498612986516 4.867349771010129
Fe 2.1848745525509528 5.379507176019164 6.947690674799025
Fe 3.308444355300042 3.409002859065117 6.787180848927214
Fe 6.174746982186087 6.721262722056107 4.60764009620168
Fe 4.4955519181325405 5.329929815493342 8.136799589778803
Fe 8.0853446479766 7.574718221319273 5.817357318113695
Fe 4.717146521641617 9.542995164273735 7.097690591209878
Fe 5.72193241246506 7.509327073060474 6.984221343764002
Fe 6.810774530816742 4.43354605149075 4.961168089846063
Fe 4.505870562538495 5.4739030457277025 5.74233147092279
Fe 4.0322076640918425 6.423703446038939 3.3366376111017417
Fe 9.182187247573273 3.5226457717109847 4.777274014664774
Fe 7.166664368181866 2.1430880192409227 5.1002435897051255
Fe 4.1372028026485586 8.174265244715006 4.953081933188775
Fe 6.477944009956708 4.055929260142981 9.101044352087753
Fe 8.055416769793332 3.3450665923942005 6.994245173246678
Fe 5.645131984979065 3.307975677377404 6.986498745615303
Fe 2.827211527652934 4.282803414940026 4.5265119659602036
Fe 8.144944810745754 7.45125169828189 8.150272074572644
Fe 7.8861687718987215 8.000388010172442 3.4901708890539216
Fe 6.37401606637939 6.4597377494701895 9.37057684969881
Fe 7.513984993006253 3.5128591046116933 2.9790576789043426
Fe 6.82296591558374 5.4870435937071385 7.089774893402133
Fe 5.102812997899186 4.3645599879827905 3.1988041776614007
Fe 4.2697984749127595 7.611145761549872 9.140917094867511
Fe 9.100984923911305 5.472009803472687 6.317760491185281
Fe 6.7965808140477195 5.917395580389074 2.514472302592573
Fe 5.554103555423462 8.264176491499251 2.7975983685741097
Fe 2.2553262189898295 6.535573093227585 4.907730334531717
Fe 8.54440659549184 5.103780801119736 8.724797759727878
Fe 6.291158027389502 9.184178827297666 5.018821726523714
