35
Energy = -239.57280193 eV
Fe 7.005378171286131 6.91837357467949 10.17243206220248
Fe 8.405574316662959 5.858144410460483 8.492549779032629
Fe 5.999573641210773 4.763898470593209 9.699831585631882
Fe 8.317778713211894 8.31729600616889 8.81310943525625
Fe 4.705283081268603 6.968112699400524 9.840943458197254
Fe 9.881753868513423 4.02955357808452 7.834933516560825
Fe 7.56669446668872 3.781426659258143 7.945243066944771
Fe 3.671008723164839 5.3042157159609244 8.476329729913132
Fe 5.169537490151547 3.686735726397165 7.59331816889719
Fe 5.9424875624581714 8.47465373294709 8.44642085922227
Fe 8.026283386399136 7.429707909364678 6.686127310442601
Fe 6.078166859837512 6.072144120053829 7.830235501710507
Fe 7.313994229816597 9.81711854265499 7.1411973150662345
Fe 8.702636807416733 3.06933370305479 5.895200865575151
Fe 6.571823855603091 2.0851065046666117 6.540718416559651
Fe 3.9878635006621455 7.446552724191467 7.510256315736317
Fe 9.16327137998134 5.3703272562000635 6.059245855348204
Fe 6.159514732366598 11.123197643879404 5.614339489949609
Fe 7.751497314435857 9.18947168193029 4.932471107655349
Fe 7.622243344076021 6.598190390829068 4.426575239378476
Fe 5.852046556755272 7.620481391127422 5.854257160714929
Fe 4.67134638925102 9.685405030368715 6.733806560219292
Fe 6.722469647648973 4.751909184816138 5.803909115124098
Fe 6.910980868566946 2.581884701876985 4.336514638132451
Fe 2.933167555215905 3.7642239713930494 6.86383154771351
Fe 3.42561561412426 7.823195607650051 5.28615263173276
Fe 4.297827934552042 5.537830105147109 5.946252824526975
Fe 4.720695111906834 3.241179464487027 5.294006759556796
Fe 6.634286212119442 10.64702878539859 3.433081579938244
Fe 8.311329465298437 4.436424156377589 3.7655682353769038
Fe 4.978608853428571 9.351121187626497 4.356111956415399
Fe 6.6775135687479334 8.23955255556053 3.0277858674112026
Fe 5.037907942885008 6.705766153823156 3.7933845473277867
Fe 5.807344018592072 4.558608750699819 3.555882640257913
Fe 6.977835182458958 6.009725732644197 2.2213522853658936
