37
Energy = -255.95116138 eV
Fe 3.4806727014301777 6.5031084837304105 8.604351414978144
Fe 6.735523880669196 3.60341666068932 9.147187616986587
Fe 5.7184361382778945 5.204862228839614 5.255210633420802
Fe 4.728197734330496 6.231237342945882 3.3815221696594406
Fe 9.155825187432574 4.500055856291161 3.921935992711675
Fe 4.389263583360166 4.476545112675009 9.566531824461554
Fe 8.06163365301711 8.709727921620717 3.855998823477657
Fe 5.844869241049339 7.745458305705613 4.870042105060457
Fe 2.7342874151603103 8.445402250835825 7.273750791312732
Fe 5.442171306171337 4.925278251823778 7.609838819750129
Fe 6.419268789317997 6.868730207041166 6.965352728163906
Fe 4.215659319429689 9.335275222189459 5.565644834741365
Fe 4.688147338054109 3.178585098058601 5.73016097593826
Fe 10.470943480826268 4.760962942599086 6.0784804306674225
Fe 7.778982234937779 5.670617767059546 8.449580161297
Fe 6.734919430517216 9.569532679921064 6.1826577430551515
Fe 3.1801295072000855 5.023116044593594 4.924645802429893
Fe 6.363945762337044 7.831967636627742 2.42781756189672
Fe 6.898931731123555 3.1868641692146844 6.840471009240009
Fe 6.0485132968836295 9.960948288563898 3.907550680259258
Fe 4.727188873133627 2.5716153146904075 8.021932919012043
Fe 7.978295298645303 5.2778795000320535 6.124069360860944
Fe 7.466890952914991 6.223898826973403 3.835539695948369
Fe 9.03616292777199 2.860094550131372 5.714864203384639
Fe 5.04848201515058 8.559203031424502 7.825966773770635
Fe 9.705605716279363 6.541928509323912 7.377444061943237
Fe 4.152824587762578 6.704150755196721 6.34397090056458
Fe 7.049035151667448 3.546948977237029 4.4028025568497595
Fe 8.254244433540574 7.752584442409596 5.942912324062045
Fe 7.803695760341956 8.150537222130493 8.245606310935223
Fe 2.785200013338529 7.479349958619138 4.708580342865024
Fe 1.8180213709685604 6.213047179427651 6.709301945410956
Fe 9.796776089263199 6.629265584701267 4.690951984927015
Fe 5.875468982822658 6.607087284986084 9.273365786009789
Fe 4.179460997650391 8.61358625492864 3.149661134675962
Fe 3.158020960087976 4.348402669754384 7.332064152225611
Fe 9.087109094930872 3.811999370679358 7.849443418512534
