32
Energy = -218.30386663 eV
Fe 4.171319834560636 9.578060181215202 7.026808544527817
Fe 5.5691550837916655 6.256268881487838 9.93772997503427
Fe 7.947973574929274 3.11908718052681 8.17736113833622
Fe 5.7016336782692285 2.5266531019564358 7.834894689091
Fe 7.776086365553894 9.213069775122886 4.29130074759233
Fe 7.957168144710187 5.390840534378166 9.568164981480466
Fe 8.962449835637036 3.428354057708687 5.800615490021495
Fe 6.291699916675513 6.0187428546531745 6.155998973996894
Fe 3.2530229172330323 4.877372137823133 4.259178972356568
Fe 8.160147899645265 5.366991886792869 4.6274511679699755
Fe 6.668972920096324 3.6752003725954094 5.994945768256345
Fe 5.578155398615266 5.152159883755403 3.9008701944107145
Fe 5.1330002382769635 8.557456677340236 8.880050111316885
Fe 6.8825055355173985 7.041006251452194 8.244791327667057
Fe 5.894045720263484 8.378975501177552 6.3159237982450716
Fe 6.680323132459768 7.235276959096732 4.1846855390151925
Fe 4.304462583911916 4.5511371826691285 6.345285313572142
Fe 4.214799612618292 6.888606511923756 5.310234195805687
Fe 9.027970954861388 7.570882209370628 8.367856878083982
Fe 8.434529020489405 5.257190485776729 7.2058776552946515
Fe 7.279752889612529 9.348428222326637 7.975893226270101
Fe 7.1991745176341215 3.4029734928292243 3.739403407471774
Fe 8.824198339887504 9.716749369782237 6.350467428170943
Fe 6.422782362638884 3.5941610754306703 10.00427192356274
Fe 6.455005326194674 10.550459611791492 5.925204392958003
Fe 4.373435901511743 6.747722234304733 7.697792713471721
Fe 5.2328999827054625 9.001262305626115 4.065480475934775
Fe 5.829080451683536 7.060793559253724 2.116873504290061
Fe 4.835442194102956 2.954025450319421 4.669544127986255
Fe 8.204952494114771 7.526603065206611 6.144341214961917
Fe 5.956258573983287 4.8051632076827575 8.16984559852989
Fe 3.8240895671101556 7.013286042568848 3.0934520855520127
