31
Energy = -210.91169443 eV
Fe 9.473788920969437 5.9200464857713895 11.207481730401
Fe 11.072278542375226 7.304826589206553 5.879916322305996
Fe 8.019433674249985 5.716534843754832 7.471073971263145
Fe 7.340996920300103 8.024882814520824 7.198371932636686
Fe 9.116737537469644 8.208011147490788 11.715590891618477
Fe 7.342044314528758 6.536420187313405 11.941329240426201
Fe 6.88659084048339 8.712774673369449 10.95866705010852
Fe 4.977542143915453 7.478520432148092 6.628184619716274
Fe 9.659985616664505 7.533523510764619 7.5837408759662335
Fe 9.910050056179085 5.532460477994193 8.859472999954296
Fe 7.113878651410855 9.991636227772847 8.63900195454034
Fe 10.654778513064732 7.567058895948967 9.908133237998147
Fe 9.244268497137568 9.375086312758219 9.618898517079813
Fe 10.01540852887924 5.102078354801385 6.542154581360451
Fe 8.651849078397975 6.6189963980134445 5.294089539201855
Fe 5.536867481596645 8.211555299323745 8.982077211641341
Fe 7.618708949231308 4.97531286965806 9.862309887848081
Fe 6.408240546069604 5.994101819412758 5.615751449120132
Fe 7.976387354587213 7.2859283060012565 9.477190914930935
Fe 3.3427744456191575 8.933894467891253 5.8186278332512975
Fe 11.270231557151346 8.998402844029885 8.089474345236313
Fe 7.235234986381873 10.431369598867946 6.081844461141113
Fe 4.9376271444463775 9.926100541262299 4.581916052913458
Fe 5.305082304893219 9.697154449144282 6.997446618897117
Fe 9.07332120040112 8.857496924455774 5.446468770014043
Fe 11.807832643348608 6.42327848283308 7.868217780687977
Fe 6.704870569479648 8.41163187133966 5.017448561397827
Fe 5.704751096545322 6.343741691179244 10.40625747895664
Fe 5.906288003155734 5.943286492332829 8.101636158792978
Fe 4.540591176035085 7.7020622376221075 4.3447677459870135
Fe 9.239397754176608 10.07675607802189 7.385967298194465
