36
Energy = -249.13495593 eV
Fe 4.50996129918133 7.422057156915849 8.461240400044172
Fe 3.603390783500174 3.909625411618867 1.4315224063763876
Fe 2.9046619599580685 6.204471531210913 1.027713652547899
Fe 6.052153423896979 3.3618312689212075 0.8796136936138561
Fe 5.412816211612428 5.781555750124324 1.0986976103287136
Fe 4.7295701777246295 1.9166694027957616 2.544486374682491
Fe 4.554308905499678 7.81675734053695 2.082627442469345
Fe 1.6599733392289358 4.871613168767138 2.9238365670283293
Fe 2.1948799335923224 2.197695987449609 2.8420745968929384
Fe 7.623287902272187 4.993803506055957 2.2742405694200727
Fe 3.874857188681142 5.830357940927906 3.0974930752057763
Fe 2.087974581943478 7.272833339045451 3.2938566792324764
Fe 5.575417475742807 4.254984354110364 2.9359179798183974
Fe 5.954620091754077 0.663534591886775 4.196914470017378
Fe 6.232544242619735 6.621868537985404 3.504687723424328
Fe 7.23393664964547 2.5245541480835842 3.029929971573976
Fe 3.4219191072089092 3.645550516329217 3.946853521097074
Fe 4.235303467442612 7.628985865821069 4.6841379748307
Fe 6.281989054251581 6.493086750844931 6.532148208398519
Fe 7.687841154357279 2.292112592290439 5.401267972961538
Fe 7.3577222945638425 4.640115475278137 4.728391083420842
Fe 2.00178585895058 7.724535763410785 5.709368219816555
Fe 2.549849286104661 5.570647806280745 5.197276959740479
Fe 5.566039037449114 2.8456087708871554 4.826564559826774
Fe 3.8668883394150853 3.4791641506840345 6.415882392893271
Fe 1.7521151431946922 3.1572061062669983 5.683247771075338
Fe 5.024623701826787 5.2593541525463285 5.190026630228418
Fe 5.433966231371901 1.3636289674527373 6.6170952755270696
Fe 3.5724008574162345 1.3949489423704604 4.825302849326588
Fe 2.1079832138826595 5.426529970182725 7.422410994507814
Fe 6.305014899947744 3.9090182348410423 6.912331533214163
Fe 3.90947720425204 7.067732666616665 6.985332256289339
Fe 4.449962035290482 5.059072339469978 8.032179736153276
Fe 4.619417860984949 2.6204119460138777 8.461240400044172
Fe 2.2700139993689947 3.2050402456560967 8.181469003543821
Fe 3.0132441846001954 1.204946399053567 7.0950092226417345
