30
Energy = -206.41090215 eV
Fe 6.8357017891573895 9.031718933169028 3.3562340148937007
Fe 6.259533530663079 6.5556464477136025 3.6382455082721243
Fe 5.730987548592127 4.4927542227646065 4.759140959039766
Fe 8.11685246926096 5.370940606004213 4.928626637125956
Fe 8.028723170223213 7.730605639073432 4.924133692934067
Fe 4.644274555825962 8.127169334936069 4.200606809281217
Fe 10.162411645823148 6.567069668627955 5.529731258171391
Fe 5.404657157561164 10.345416310732082 4.5914059745614235
Fe 9.79327024560112 8.955711569661066 5.714772772591677
Fe 7.081668318863928 4.34517950918417 6.783133865439337
Fe 7.9076591109634125 10.302213862803622 5.072460571144823
Fe 3.8060742743159555 6.102858550128969 5.35937350311572
Fe 4.5965681813646535 4.4820170531105825 6.940546587539964
Fe 6.397252619661738 8.944186063925716 5.999264443074211
Fe 5.93549173059241 6.570643172782312 5.990872401702506
Fe 8.1637027441292 6.732781934049558 7.185281894175789
Fe 3.8855270253207017 6.741846920960195 7.764279784287838
Fe 10.223663481049504 7.565758377094046 7.722512974539312
Fe 4.181662124653343 8.599769903001443 6.4100497022115235
Fe 5.959267602614055 8.152254876738596 8.073439158540069
Fe 8.217504097058564 9.112337020303388 7.44085752133139
Fe 6.1062177667145185 5.871817751018443 8.27972852467898
Fe 9.615310333061784 4.862593255250726 7.061078836720282
Fe 8.041303576079793 4.586687234097424 8.989190226850914
Fe 4.153130979129466 4.919752576477561 9.37548130895374
Fe 7.782122236224671 7.195827001836174 9.511437132379415
Fe 4.985292743765897 7.154418337437371 9.993154868683733
Fe 9.835765160592274 5.926214152638176 9.232425237263955
Fe 5.884631074239572 3.4681352793401867 8.793085300406979
Fe 6.436691602070616 5.35859333031367 10.55236742526257
