34
Energy = -232.90402059 eV
Fe 9.101676553933908 6.707605917553337 6.251673290144671
Fe 8.00614506786407 5.479935412447515 7.93295574259246
Fe 8.281457232389805 9.138845559210147 6.39522503708013
Fe 7.859652442147037 7.5961110899775806 4.521232687601485
Fe 8.300656974990538 9.74956762006473 3.986412374190333
Fe 9.052910437485204 5.4108138125503205 4.184956403984585
Fe 6.574171907120159 7.567795836957237 6.723691538114847
Fe 6.899441171452084 5.599061059645982 5.597953201355484
Fe 6.966910320584761 7.572715351748451 9.06123331807334
Fe 8.13634088817605 4.253730044407281 2.208691677222516
Fe 6.862330725687923 5.966565732343023 3.073139267074611
Fe 6.098177222366711 9.64626101706075 7.646013831145805
Fe 6.413349972936347 8.498554799397754 2.8677080321078963
Fe 6.2644447541839385 9.564625391264144 5.069909181506385
Fe 7.3603271168816535 5.7032897000351195 10.318064730733841
Fe 8.803109128919012 4.092239027452428 6.135703649134672
Fe 7.349882956282142 3.5364060268318718 4.250017799921574
Fe 4.34591411490421 8.852683250712342 6.304636274288202
Fe 5.848753051250822 3.857035540140803 2.412679752448279
Fe 5.259030803665993 7.282056027988793 4.497489079776403
Fe 6.871841610946014 3.7616113688243575 9.218430489577097
Fe 4.605940297662985 5.999064252642668 2.612408619200021
Fe 4.688710310844149 7.72835153963477 8.539549461862451
Fe 5.062578710694334 5.662273084791295 10.200319528063348
Fe 6.459808394557197 3.591604732177865 6.73815222935587
Fe 5.69785823078834 5.545077164165947 7.932880513429914
Fe 5.167979296010446 4.5377725196115835 4.595505476962669
Fe 4.128006699160214 6.555782565569545 6.441957067186122
Fe 3.142000543820958 5.717819867896462 4.534361870840252
Fe 4.559787406182508 3.570386575361638 8.823684217364896
Fe 3.2157620857335725 5.692693257078566 8.586248470860909
Fe 4.014373480181122 4.151452420743423 6.546603753654481
Fe 1.943361666892018 5.483958495642901 6.642102505570202
Fe 2.3146089968997243 3.5541853592448702 7.908471834789107
