38
Energy = -265.13833764 eV
Fe 5.914341462142814 5.268899455503324 3.279997968789749
Fe 3.3185281128305153 6.2677689893408495 3.1526237369669126
Fe 3.9304196459225214 3.9569371250041994 3.6294477272926913
Fe 7.562980606284609 8.830657631671222 2.7927889260530927
Fe 7.941317608796666 6.505052132268426 3.440198885299047
Fe 5.473976412859314 7.570107538920556 2.750309234110214
Fe 9.07914078399599 8.293877602572797 4.82154200426811
Fe 2.1392856846362336 4.747050586004697 4.903088623684437
Fe 7.944292025299178 4.055490191896596 3.964712410793666
Fe 5.783925797707684 3.6001110266808207 5.179822526688331
Fe 4.499423263092127 5.997460461669134 5.073303501904201
Fe 5.600257941258841 9.955935014399078 3.7044742859549746
Fe 4.17490608179443 8.330612982340304 4.675408220693666
Fe 6.699222962319183 7.912935555585154 4.8206261531939205
Fe 9.363538871727705 5.618901890131734 5.138778863028478
Fe 7.650948083617064 10.234820473953762 4.814344591790738
Fe 6.875806941026249 5.659800260718552 5.63656173375521
Fe 2.1636761181753914 7.063743036878721 5.184590460863129
Fe 3.6865903790558296 3.488168505524807 6.173220421911103
Fe 8.036089542424136 3.867533896664909 6.330840903317482
Fe 5.504416882970988 9.637791513706828 6.202153498335533
Fe 8.401301605018348 7.066534637006285 6.744212918033202
Fe 5.856778944511972 7.410331103260187 6.944943200335425
Fe 9.702236702764488 5.11976971053853 7.657591445352786
Fe 7.740807108490669 9.250214602061144 6.935462242065065
Fe 3.59288859725055 7.680927780416486 7.045025078007874
Fe 4.978385130986214 5.139385966672262 7.201525501912183
Fe 6.8779289385966464 7.9343309863135865 8.96206901370319
Fe 2.696448039343339 5.539973121201097 7.140630438170023
Fe 8.618919043331827 3.1490758763454023 8.424259646154288
Fe 7.196949550888235 5.359347613280696 8.023378535888368
Fe 8.998653062768335 6.971143766722339 9.0360350171707
Fe 6.148012917164003 3.0273366156380837 7.655485265334379
Fe 4.850511128442999 6.735223734301821 9.0918108441019
Fe 8.817372594308413 4.873269836468605 10.024200430177043
Fe 4.770350239440646 4.380032291201279 9.309395250656216
Fe 6.82653725467917 3.5271425411187174 9.94226272788686
Fe 6.726064868451871 5.95912035200855 10.370092502101548
