38
Energy = -263.59262627 eV
Fe 4.481477632045828 3.898484930411638 7.774580091405709
Fe 5.47093049605273 2.1083475710985127 1.4242075059031603
Fe 6.732663884188517 4.441972627355334 1.4681548333686254
Fe 2.872075135835722 2.4338423469159896 1.453894859162557
Fe 4.8916457579260895 6.215463668443368 1.1028021780331945
Fe 2.514752287748559 4.984940603819086 1.1065592744850172
Fe 4.533384424562903 4.126773063373243 2.247499110812237
Fe 7.520301575193972 6.850467305048423 2.2780089526811578
Fe 2.8145658891734358 7.3718203203479 1.4382942072386022
Fe 0.6350127429232217 3.3396557539219436 2.1939557472249445
Fe 6.476936948018036 3.144620641724853 3.5473052733649264
Fe 4.222181545421481 1.9903420531998697 3.5562594842801514
Fe 8.16507894983279 5.041217296614158 4.046495906988459
Fe 5.942157499678263 5.768913430608849 3.410704418365799
Fe 2.447264059825868 3.9219011054662434 3.3933293933950632
Fe 3.444097016357505 6.195159034451108 3.302308498715118
Fe 1.6269903902389138 1.6525318230223915 3.8344177891370057
Fe 5.080057656226559 7.851884423800985 2.902189256440826
Fe 1.0923584725563833 5.795353004605363 2.927720151119528
Fe 4.408967928948836 4.280691471141182 4.561492359019251
Fe 0.5236093935633805 4.00403918850944 4.750859034008781
Fe 7.082103289580063 7.065691655699261 5.0582980707294425
Fe 2.4003949108160016 5.410595130853899 5.499769794784099
Fe 4.6782291885575 6.626469330634245 5.445262777829617
Fe 2.860785325926687 2.7454646966753136 5.540919164559991
Fe 7.937071078988385 2.988576466828036 5.633077742629096
Fe 6.362500361749757 4.682438343726424 5.571564798089688
Fe 3.874170618618673 0.6114763282506854 5.634482509727328
Fe 5.48997822705952 2.3857686022902675 5.7870434243225555
Fe 8.216822688991384 5.495290950424018 6.583685808580996
Fe 0.4239106387992201 2.0995901798126044 5.959462249720092
Fe 4.247745106493948 4.411504905366511 6.944875063264812
Fe 3.399097656303837 6.417039888184416 7.528416442147353
Fe 1.797442516854734 3.7417949510227357 7.321612467198479
Fe 5.963711951102259 6.229854564350497 7.4445526147019425
Fe 6.537093749293753 3.798210145186878 7.6851795495065165
Fe 4.156978082263677 2.1823346860434425 7.724123038989349
Fe 2.1269519255534695 1.1409745140446768 7.161045211534469
