39
Energy = -270.56698287 eV
Fe 8.393629122448274 5.614479412322303 8.471161494735211
Fe 8.91335710328161 7.009992479079025 6.7239528050916055
Fe 6.179941616569498 6.216370727606385 9.57665029675704
Fe 6.8909137737773065 7.941500825803712 7.936506813413536
Fe 10.05770214840591 4.759547288420395 6.686377339847864
Fe 5.511923733108197 8.459520715059432 9.950279799345635
Fe 6.632046603150527 4.005999072240715 8.598398788445424
Fe 3.84557542087019 6.722401665461487 10.129721809867776
Fe 8.80902920194894 3.13673819632359 8.27257035619391
Fe 7.166953572720399 7.420508570701893 5.2562871454381455
Fe 8.78372196524994 5.841269166217473 4.549655610615742
Fe 4.285588464336982 4.923800510913408 8.412879501752746
Fe 6.277898560664403 5.889872588189259 7.015407555755276
Fe 6.90579841921901 9.580342498421015 6.143876660791708
Fe 9.953152453534752 3.9076763136065766 4.346294570571166
Fe 3.069484950492801 8.714768002468526 9.071613872682093
Fe 4.465388976019238 7.19305412213 7.956187476491417
Fe 9.44638860033967 2.445250678731984 6.060659171888756
Fe 5.009508772722606 9.619447541358278 7.903460411610942
Fe 5.207794486404202 3.3780466830260596 6.96041888161587
Fe 7.833609632150673 4.315087741601155 6.263300914817016
Fe 7.16295672301614 2.0694436853026157 6.555435718511541
Fe 2.4087180474780308 6.559062405413354 7.36513626720387
Fe 4.552980949821439 10.326923637203857 5.699385832704483
Fe 5.038854674190888 7.9580480768078266 5.959532695307651
Fe 2.8317049043067626 8.810141121217226 6.655262351400092
Fe 5.997004075476556 9.231247607636549 3.967886900174908
Fe 7.717685453951903 3.061919780242863 4.234037390379331
Fe 4.285575543844505 5.4398864136911635 5.87164752934766
Fe 7.392600340565544 7.1985943978990585 2.912559708675996
Fe 8.055444617164529 4.873574139929536 2.5226862456318346
Fe 6.437204927779057 5.267494107003731 4.451300445441306
Fe 5.3739769442381355 3.1378388665564336 4.757659300796716
Fe 2.7188501962898064 6.850018074887309 4.979759818130925
Fe 3.497052284052739 8.914530030676847 4.208952041466656
Fe 4.991353647182284 7.063419699075383 3.8026656113146147
Fe 6.048142942176145 3.550415155824365 2.5147217933001365
Fe 5.758718237426303 5.812729139378656 1.936383292516063
Fe 4.11451851933036 4.8387666739637085 3.5363712263872076
