38
Energy = -263.9743298 eV
Fe 10.711156848989729 9.796262903962385 13.601084088950184
Fe 8.763470466435873 9.172431489395219 11.946388244574576
Fe 12.908229045507847 9.144482632398276 12.90363454612931
Fe 9.346439368141159 11.561996404554135 12.170754769355762
Fe 11.03600096923837 7.670678487948511 12.25923281854697
Fe 14.64252348342275 12.230463206502504 7.722052235531501
Fe 9.009209579502688 10.474261658451587 9.85026955823425
Fe 13.45798093730011 10.437239810303604 10.884989490564053
Fe 9.72598110883544 14.147451432451057 12.504112687633562
Fe 10.581361813341061 12.400707993059193 14.137962054991748
Fe 12.31473879325646 12.06260831106375 7.454438055180551
Fe 11.34226091355704 14.46671870205027 9.694714415898051
Fe 15.39493199726872 11.34581197440175 9.950654479949739
Fe 11.64770292170657 15.927780126826569 11.836387793308988
Fe 12.56227810402264 8.334536956488694 10.338491246437922
Fe 11.900361633156066 13.692661986021736 11.938356192086248
Fe 12.510962717361739 10.903938780507822 14.853675845608626
Fe 11.710502200951582 14.863257908533573 14.118707303301639
Fe 11.457891792240664 10.343817352684182 8.955830491534604
Fe 10.291105763137468 9.403310241543515 15.792846276107374
Fe 12.127212711510246 11.47772958057039 12.496887201708285
Fe 8.573057923195728 10.467697232939635 14.210065184609997
Fe 8.946237760911268 6.893761279412062 11.660042891253001
Fe 12.971491430409783 12.497391900275382 9.679410708020615
Fe 14.263597607635852 12.828376908422443 11.732622342681482
Fe 13.302160731157795 14.21732090150178 8.076717799518082
Fe 13.330517588757447 13.010144233576934 14.044235915147219
Fe 13.773440798993166 10.176914985283611 8.489327111639183
Fe 15.263246701861311 13.613115205076731 9.648666738075397
Fe 11.797982180964013 13.281144799352644 15.897046735587496
Fe 10.664604056616374 12.233827672373177 10.329577158285563
Fe 11.029021134016476 9.930094204187574 11.21508076811824
Fe 9.621777001359266 14.30105855998907 14.996238084895799
Fe 10.070259083483995 8.237057151758611 9.920829567063018
Fe 14.510497645505943 10.878678839947444 13.127886701219596
Fe 13.513429832481046 14.981643719580516 10.454067733287701
Fe 9.210589992446785 8.010041710053418 13.949925579632973
Fe 13.840743953679238 15.046120224331245 12.807476699484866
