31
Energy = -211.48955434 eV
Fe 3.4436993564934624 7.299225552434263 2.7261187944212066
Fe 3.034360916107707 6.118982197675568 4.753249729206171
Fe 4.581122157332445 5.357991298445774 3.0602770369279444
Fe 3.036897145441404 8.48526632735976 4.7975341585300795
Fe 5.967981477249141 7.342825798466055 2.2475519896741427
Fe 4.540377682010042 9.250603630029785 3.1045927521665466
Fe 5.011989011421388 5.011375536940851 5.459989349002318
Fe 3.9801984987933863 7.049099940578056 6.6810495041964675
Fe 5.262003755764653 7.372411087562091 4.4818550907432
Fe 4.077427674880856 4.609961486548751 7.833608628021905
Fe 6.796049602400764 3.255482796727411 5.186665926838744
Fe 4.797063931347353 2.809893798048844 6.42046612103869
Fe 6.726207506558559 5.393469705633837 3.600848156706631
Fe 5.146663952195038 9.644647328334345 5.380545493793028
Fe 6.755896263955304 9.26629593964408 3.6462211025336546
Fe 6.889493365566765 1.9441197144510198 7.2067680818257935
Fe 5.307698092311236 2.605703372233658 8.728574174819242
Fe 6.668033494586841 6.671701069150069 6.385637108869951
Fe 5.558404018851344 4.516314471575378 9.789258127175552
Fe 5.327453770424803 6.5782930318376005 8.677382134825368
Fe 7.945124747115572 7.347096881633446 4.058124503144793
Fe 5.535200248856229 8.651021774451454 7.431954011615196
Fe 6.481558684209953 4.378653788678664 7.4456698431416495
Fe 7.437079066590047 8.982173382075104 5.92782619559394
Fe 8.318126741387088 5.120767405167859 5.317173293846711
Fe 8.663232586882598 3.2844305508598555 6.777252578381444
Fe 7.727593626653228 3.3613035958578625 9.096239949883804
Fe 7.433104948889573 5.7713809903569615 9.48514095687767
Fe 9.008002465550058 7.241637978524955 6.230667338143267
Fe 7.629286230745339 7.747432888383496 8.175912054873892
Fe 8.838304879670691 5.432984745346916 7.745224638763129
