36
Energy = -248.00236153 eV
Fe 7.268528754736741 5.468364539061735 9.988381680369764
Fe 9.260907598966492 6.165670713209653 8.627902961240153
Fe 8.300126047489796 3.8856567936678763 8.398577784694504
Fe 3.992150940356885 3.319106888280962 6.972598867488324
Fe 5.7462854787077 4.740436745045701 8.313453974598456
Fe 6.519201727760213 2.8607756683152905 6.7364797049597485
Fe 7.7390676309652395 7.83863203577306 10.076662100208319
Fe 5.4669892155609485 6.930792959122991 9.50671106564321
Fe 5.021618166209095 2.7729462616121245 4.778655185905381
Fe 3.131819708144234 4.160853886912011 4.470765132717853
Fe 7.187802804178444 6.839670185939806 7.828478436247001
Fe 3.6656065613791555 5.903380326953051 7.992026378893004
Fe 10.183762537496637 5.00646210875758 6.696488130881322
Fe 8.884253919095572 3.118417098893315 6.041131458300856
Fe 8.743700432695753 8.65797576093397 8.061346017664269
Fe 5.297123534281025 4.854231553184892 5.995612415693538
Fe 7.721861600388432 5.03930879108953 6.5387210628783246
Fe 6.3056771361700505 9.000454944952425 8.33310566428977
Fe 9.050946968458126 7.1285765680709545 6.259353098038414
Fe 2.2914792561376767 5.016954124793877 6.399465404805279
Fe 2.714975370621061 7.726593727750453 6.3889808519128115
Fe 5.100844277966197 7.427233505098341 7.019205421103084
Fe 9.070951452380005 5.4292180012476745 4.526057048257084
Fe 7.129204138406173 4.057408653754071 4.489679773148246
Fe 5.229123103351147 5.0009163471417715 3.5043237777181435
Fe 8.81344488553747 7.768871411578706 4.012271860045353
Fe 6.604983263386713 6.709979601989622 5.0378250254161285
Fe 7.2705636361973625 8.8200003986221 6.038873571508228
Fe 4.017211577617382 6.493694950107516 4.992397405162039
Fe 3.159919580152453 5.884278820425802 2.7295396040807973
Fe 7.338202378333375 6.246849823782035 2.8663005626144136
Fe 1.6807972205904715 6.4078745034125175 4.543182312736468
Fe 4.9009550536086435 8.827844219457095 5.06705865895326
Fe 6.786236658843614 8.86635621503339 3.6058201417190467
Fe 5.1200383252480215 7.394241741405816 2.9139979415407167
Fe 2.9728332419088828 8.2629174447029 3.7687592090115465
