33
Energy = -227.73361938 eV
Fe 2.3802441180442644 7.797730707552783 7.810939988049101
Fe 3.247040064424087 5.581798087917211 7.580996750390176
Fe 2.84472233657481 4.706571324516825 5.330019521084103
Fe 2.722004854432678 7.13549222603427 5.574182981410299
Fe 3.829758574831612 6.958491909184141 9.601335540062008
Fe 5.081728921345601 3.9714450138917603 4.332403739673679
Fe 6.286993999308032 4.69510002847142 2.3646147973708764
Fe 3.7602718158847264 5.878200275055404 3.4241259139036506
Fe 3.8995422061110885 9.352390482428497 8.92770638716553
Fe 4.907419321490359 3.963391929651363 6.812844588613623
Fe 3.859337640668067 9.30309634791803 6.336427145966446
Fe 5.5723915287475805 5.621041557774901 8.697917011097967
Fe 4.807583579540278 7.50500651794559 7.448595847129264
Fe 4.252494958499309 8.147202710719998 4.092961237517323
Fe 4.872044050435718 5.995379201412571 5.541667405468479
Fe 6.861687842238643 2.597667376411287 3.523879497070677
Fe 5.921202590778494 9.62022046202945 7.628574378203513
Fe 6.834906012343802 2.864040672507331 5.9186293901276805
Fe 6.129630675307353 6.696090875777299 3.6439118288689754
Fe 6.148469161435165 8.220687267582322 5.6105437447051445
Fe 7.325655089569077 4.8484356965173765 4.668422674115023
Fe 6.0047249670810805 7.998007518041237 9.523464908289354
Fe 6.891078481251473 3.690492877987376 8.244992007895144
Fe 6.868289608835305 5.783181213847202 6.631422051715255
Fe 8.58452217810523 3.9614558624921643 2.599287661695824
Fe 9.047774067120669 3.0201748135096373 4.6832505506935185
Fe 8.311288481455211 6.242520139529166 2.7465696568180507
Fe 8.253825606857426 7.167269298756346 4.992787371501122
Fe 7.446921173391334 7.76810031530812 7.6768349701109475
Fe 8.71484419986842 4.210641245151952 6.7571246101448486
Fe 8.058597463242334 5.691721876731556 8.803645219173264
Fe 9.696873922147875 5.279428058538 4.552480790522843
Fe 9.363522476438355 6.396849552979874 6.915143303450171
