38
Energy = -264.34547759 eV
Fe 7.491458954996301 6.575570858945457 2.4139054099262682
Fe 8.954222107787036 8.351293177430579 3.684944941605999
Fe 5.430583714962771 5.576772340709451 3.567045980872989
Fe 7.065371019794396 9.056339742547575 2.5451571350975652
Fe 8.96565242099874 6.088241227193999 4.222228477759419
Fe 5.2512399046777425 7.574015673902064 2.287904353515885
Fe 4.979349402668673 3.8735726156301786 5.115734726857973
Fe 7.29218876199851 4.149502128099997 3.55486373430988
Fe 3.16161580047965 5.321055003159667 3.94416994181167
Fe 6.580825281302053 7.459631274650487 4.463691482971401
Fe 9.193857848143557 5.851874854771468 6.823844226309083
Fe 8.367087025840796 7.933849644108158 5.992186021830942
Fe 5.238723442836139 9.59782071243377 3.9248210251437348
Fe 9.170567663177842 3.8686143062899863 5.247809087828517
Fe 7.383616313958548 9.861234565974097 4.953482931283698
Fe 7.149902851389094 5.301914118183652 5.524440939828167
Fe 6.983710462924122 2.7454826855556207 5.669496068723654
Fe 2.6546073203605287 3.5925153784038275 5.453834683489437
Fe 3.91362972282592 7.6033779316737595 4.306841065256686
Fe 4.701198418314938 6.240290115533457 6.133622284500548
Fe 8.29534367802941 3.7274233459303336 7.512321937370609
Fe 4.54230501309642 2.260292813834836 6.759887029326874
Fe 5.974568196369382 4.32494837128278 7.382281211938344
Fe 2.2085252532691264 6.091703669602347 5.925216841247233
Fe 8.86839884428233 7.694583572662633 8.417054799913073
Fe 6.711449448433497 6.823655203961715 7.32036705277246
Fe 5.480059805750595 8.73064528874967 6.120842845259416
Fe 3.5713687984586904 4.496730548732715 7.398996658015576
Fe 3.1152723439280208 8.267121314233254 6.51125365707471
Fe 6.609994418282789 1.998374169934802 7.952637628340323
Fe 7.804921114133603 5.5822570594892715 8.986852062130875
Fe 7.170427788003849 9.253062601899213 7.706401539091205
Fe 2.8823493591016267 6.594003125924827 8.207678586605551
Fe 6.6245948687273275 3.6830055767452516 9.669124818595764
Fe 4.502806960938963 3.0352085009912266 8.999529483398778
Fe 5.0967836100188535 5.730322562793751 9.01247399123452
Fe 4.7946952647355205 8.077882202640327 8.299186519343515
Fe 6.756009440312736 7.653141863096868 9.615988388139517
