36
Energy = -247.38337016 eV
Fe 6.212837488397586 7.241435792955098 2.4424329384158567
Fe 9.512494243059782 8.792640637452868 3.898834238260844
Fe 7.666320331228327 6.133322427252854 6.476954771630588
Fe 8.050398601259248 8.386461451511437 5.454311086017524
Fe 4.057122989725083 4.921650341721154 7.999824326988576
Fe 6.072056176099931 9.910598564158807 5.726890605553738
Fe 8.486747610804025 4.042491789358072 9.257145640010789
Fe 7.046296796061195 9.064408607034796 3.530593619640013
Fe 4.078788115705808 7.960746589814086 8.819128477893832
Fe 8.200550886622775 10.066310113340077 7.0845546296617075
Fe 5.888685447086388 3.401733556771347 9.560485147811665
Fe 5.435446961517605 6.256261494191735 9.684827054779731
Fe 7.370965944225375 10.481757090883448 9.237209067161317
Fe 7.958323110292778 6.461467174515658 9.14618731433338
Fe 9.219601986171241 7.839136715656051 7.411107504361828
Fe 6.40615404929687 8.378960270232875 10.077083146827265
Fe 8.767752822098426 8.686366335860503 9.566460447023738
Fe 4.16800551359402 8.752400102349595 6.333159752355309
Fe 4.499036555603077 8.345868417609788 3.791512258588097
Fe 6.32844061329429 11.62158349579272 7.29611519932115
Fe 7.523552869940177 3.677368102655238 6.495465809805751
Fe 5.307763260656482 2.932081618598028 7.34798988588555
Fe 9.416904342933712 4.61640353287143 5.541758126610878
Fe 5.970544964284172 7.414748517861941 5.156223488416487
Fe 9.7721865179328 5.510347896552491 7.685878646416548
Fe 6.750418912900196 8.117433774963514 7.718720021563074
Fe 4.953126328331799 6.697684022011713 7.140449545746847
Fe 7.642553765814096 6.153720860298093 4.06520941802173
Fe 3.6881473762036334 6.4676054633907585 5.188689678644037
Fe 5.1389976044033565 5.591184276220244 3.5576677785026987
Fe 6.497280005892795 4.9370738835298535 8.105723602466464
Fe 7.388906898348311 2.187532765230349 8.256957006261423
Fe 5.273235481705821 9.878245585876313 8.247953957566835
Fe 9.857928583091997 6.966164382194324 5.4638608901154075
Fe 9.740820139640107 3.215851606083523 7.503041324827977
Fe 5.643971234143368 4.88331727156727 5.721958120878182
