35
Energy = -243.89521455 eV
Fe 8.881499129105743 8.271387439801636 6.981653509825621
Fe 8.641374354962629 6.209229964849222 8.182274706405703
Fe 9.388970960602608 6.2402780796488795 5.712800248235735
Fe 6.8886045626981325 8.337603316991009 8.338279605885413
Fe 8.215001151100763 8.194809877753354 4.6754305703706915
Fe 6.491640870065328 8.931206460716119 6.133962947573994
Fe 6.5125151328710285 6.231317149444775 9.348898491673195
Fe 8.539322092160306 4.1945994564904785 6.731024133243036
Fe 4.836360610650424 7.986436271325748 9.599422127143207
Fe 7.080912263149652 6.575259887418403 6.444313947852826
Fe 6.3135835188186515 4.70031584269283 7.595006430101712
Fe 8.663358385800304 6.262928745880965 3.3130487165102562
Fe 9.675431981671823 4.327536032944174 4.293915819397712
Fe 4.46581429887514 9.221197302319515 7.571858806702456
Fe 6.241609530678429 6.936460805735081 4.268050558138815
Fe 4.838948145733139 6.890134920186967 7.315403980768344
Fe 2.731186729138728 7.619073391594013 8.71871458457305
Fe 8.299299203444585 2.532712238736811 4.965349055248157
Fe 4.2398964245237405 5.555080068475484 9.132373758144634
Fe 7.2253223820371755 4.764676100021355 4.784905699215116
Fe 7.9050112638645444 3.8774275248725036 2.6594070647061243
Fe 6.1166573105931255 2.9743658445307477 5.9687506988685
Fe 4.48018069856978 8.07794652853074 5.138084436270307
Fe 6.658553837787751 5.923263251713485 2.1571146834485075
Fe 2.536897062674786 8.25178228016584 6.533083467597929
Fe 4.7203183502098645 5.288899292664569 5.4331046501215585
Fe 4.11495314614636 3.822459896959756 7.233994663491015
Fe 2.6554800843121584 5.837199212997304 7.148916235254872
Fe 6.36308589491361 2.2931456624532096 3.6266929073962233
Fe 4.231511471372652 6.540093006233307 3.112916408335866
Fe 5.364649755161932 4.36236849191142 3.3062140185473905
Fe 2.600332187799809 6.449532199650068 4.87711836290836
Fe 4.096656002278094 2.7784970801915008 4.764772009913379
Fe 2.2639713979004754 4.045297713160637 5.641819901543989
Fe 2.948431934372807 4.487793780238813 3.4833072083047902
