39
Energy = -269.50088758 eV
Fe 4.1778138418461745 3.9190022205696295 1.9657063808919375
Fe 5.632014317921575 5.682173689814507 2.3704611910511355
Fe 6.388655883598216 7.949027564417243 2.60815347764576
Fe 4.136702995648016 7.442147017251121 3.3673450271647796
Fe 6.85701070904373 3.7143776941927924 2.0866756506451445
Fe 5.282088490719008 1.9405124311115507 2.4507680840137143
Fe 3.743063969790258 5.154426715972457 3.9173862867959564
Fe 7.961475435572863 6.161581298213926 3.0063619014499654
Fe 3.4515094327555453 2.6851164507995526 3.910091537278936
Fe 5.557626872241039 8.819654086209363 4.728732335990307
Fe 6.093396221036544 6.283798660405221 4.62865202393913
Fe 7.441553935079516 2.0177293686031796 3.6662216159785204
Fe 7.775550741770917 8.285163352523075 4.532545513611283
Fe 5.668342015089239 3.7425644140969063 4.21362595179591
Fe 7.949445663934152 4.19770793144797 4.429620651614643
Fe 5.459274629356836 1.1630790232776702 4.689300372636632
Fe 2.1235834307315717 6.497964626039581 4.736748657504494
Fe 4.106114964199759 7.183059444597527 5.866415077861666
Fe 6.919260546460749 9.728538544766241 6.558920158134131
Fe 6.8526239644212446 2.537126404411371 6.036990290081904
Fe 8.544100522767746 6.29321741715472 5.394224006672423
Fe 4.381443769755469 9.376994647490022 6.643418926544763
Fe 4.195901867031596 2.516476068971269 6.132111463321163
Fe 4.579110738061687 4.8410926173019515 6.0761875588612115
Fe 2.290131316631839 4.111200693400247 5.6312283344833824
Fe 8.893270234250227 8.414232697924314 6.651513973606837
Fe 6.918842280830297 4.912249976215046 6.580026038401139
Fe 3.9018742081723197 7.805809005093917 8.284100338745352
Fe 6.428942932182275 7.350506628790725 6.956317107894329
Fe 5.523510866258452 3.2948113313395795 7.9136371193806685
Fe 5.759160232286651 9.410802021179727 8.596663786955919
Fe 2.4649934902637645 5.966837588464791 7.118009906457987
Fe 3.2278195842165207 3.9216256124088873 7.987948595851
Fe 8.697908392094206 6.336434052626851 7.797163053054987
Fe 4.827490434409861 5.733156351291724 8.186517501391085
Fe 7.938626836842925 8.615673613345198 8.756254153712144
Fe 6.940418715908386 5.090312014699085 8.952469195072778
Fe 5.927450592519335 7.3176866593681105 9.678271691107462
Fe 8.140692438391412 6.744927578306396 10.052012576490833
