33
Energy = -227.07650787 eV
Fe 6.77832868986713 12.246290019246695 4.3577192098447926
Fe 9.465914915538006 9.738400197881734 5.568330882574329
Fe 5.430107771117725 8.610216897685696 5.958896841557096
Fe 8.260135257004313 11.842444123975586 6.062602044971935
Fe 6.8734782944926485 7.2979624458036305 7.639343853783333
Fe 7.772144262407877 7.625615671392535 5.378890336962444
Fe 10.916810366846883 7.184289223195587 9.19647324319001
Fe 5.437817781269719 9.568508836530503 8.200641678575401
Fe 7.198591802695136 9.97401071200684 4.461466022324967
Fe 9.727797157712146 6.792024026617533 11.319329554023705
Fe 8.274936675670675 7.01392934555279 9.487646586586798
Fe 9.19014816766358 8.240648732897512 7.61425374034242
Fe 5.971574146646011 5.799410429894852 9.568272544383694
Fe 7.416888275503232 9.587552980884933 6.793416124085995
Fe 10.15596759767843 7.491118925345287 5.493593302808292
Fe 11.447419583875744 6.179963881094332 7.120112968685095
Fe 10.056062345784522 9.129274113405163 9.909967175191106
Fe 9.934310203029801 5.093126457541306 9.338363873466387
Fe 9.453374904820663 10.645257386606353 7.941849314098515
Fe 7.173377595766097 6.656360248669701 11.650568146927382
Fe 4.614004578058694 7.27726245396231 7.984626932215282
Fe 5.599205894224397 6.334574755865426 5.495912279436377
Fe 8.241036611352163 8.760207778604505 11.368188297630715
Fe 7.620117842439882 5.306327705567173 5.877440544271859
Fe 5.536119990355071 5.06123885167705 7.353984235392603
Fe 7.025411905243447 11.570652317346296 8.153586406547719
Fe 9.31581321428514 6.0478516344488185 7.258706352997887
Fe 7.724866002520742 9.493085270988445 9.163075591595945
Fe 8.092728151795821 4.797136500193633 10.67180912223018
Fe 6.051808582784812 8.130526148299168 9.999305950507905
Fe 7.669897216008899 4.711826468749896 8.206220763675454
Fe 5.753266939029557 11.1211727746082 6.081330398407017
Fe 11.250298725026326 8.881294561923886 7.268086694964414
