31
Energy = -213.4631429 eV
Fe 3.032775950081657 6.22620579007012 8.121916367247424
Fe 4.382721901028073 6.399597932623683 9.885318368832246
Fe 4.01003340770337 4.998864839174649 6.249687926097594
Fe 3.5802787514789953 5.9622030578343255 3.93221564099633
Fe 4.684417662312852 4.336540863688858 8.424151352177988
Fe 4.225611490206003 8.733307462209831 4.330482021930569
Fe 5.280400797830816 3.9501666671953988 4.619486053185305
Fe 4.659542354420005 8.499538429143415 8.53628840041862
Fe 3.707262040096284 7.420990485047188 6.212921793950264
Fe 5.485953847404107 6.627395210437137 7.5133358506955314
Fe 4.984107906856281 7.547180927635312 2.6007704554337496
Fe 6.3956699972934565 7.629752071764391 9.8592858999366
Fe 6.354404374279152 5.10983102758983 9.834500968416913
Fe 5.434699112547551 2.78217855773389 6.719618368378057
Fe 6.587622659735384 4.83841187767919 6.523534802878339
Fe 5.502956172383212 6.5786175617330995 4.970767606643466
Fe 5.72822565825671 8.778281473423167 6.238409110864511
Fe 5.396124837222743 5.218445055599741 2.6461083698851766
Fe 7.2549733088791495 3.5138249477059635 8.23702844851586
Fe 7.318712697399957 8.521205034757376 7.8973686335243265
Fe 7.8329800284570155 6.246761116375615 8.438472106193366
Fe 7.259514909334455 6.899516966674959 2.696959244665648
Fe 7.549423906473568 6.922957115360008 6.012754194180271
Fe 6.722069320062727 8.682798712939386 4.083046022991456
Fe 7.8566982713959055 3.1516796142617283 5.754511762370726
Fe 9.21402622867448 4.734068531655293 7.392781595379997
Fe 8.32343955780248 9.170852742952373 5.816369555812304
Fe 7.354879432135505 5.0540697729588935 4.1106533934193745
Fe 9.634333690322054 7.133297154398138 6.81536015624439
Fe 9.398100294116485 5.041507688811187 5.170749405070421
Fe 9.029816872718325 7.311467652438011 4.3195173316867574
