38
Energy = -260.04294545 eV
Fe 5.154976980426055 2.721791093060041 2.4326406962063953
Fe 6.812015385653892 4.187995692391704 2.9444875421560868
Fe 4.566113239231145 5.130219406741202 2.444657265353068
Fe 6.62396600285935 6.571189588947675 3.0193446415309886
Fe 8.639711536149155 5.552459196579498 3.612543913624295
Fe 3.647795747250423 3.59823684127277 3.9406473210407214
Fe 5.830477397966644 2.622064213378445 4.596496889231444
Fe 4.213227014481692 7.130220230250212 3.7154909328206567
Fe 10.422335289225975 6.8687925789046735 4.353231644845403
Fe 8.37864305512495 8.078756285992558 4.1055436624940125
Fe 7.532993586505552 4.152728443641571 5.298479829326336
Fe 5.436893733095336 5.063349448093927 4.636122762528228
Fe 3.0897650169421493 5.615011262069869 5.071402350332769
Fe 6.092468968087337 8.44954848618624 4.45502342126948
Fe 3.8691440575269054 9.301974429805938 4.298853819774661
Fe 9.6779642105796 7.745916355336303 6.389104569262739
Fe 9.596492554870798 5.375146539118354 5.882690938344171
Fe 4.252238702407513 3.679421886127085 6.290930165989271
Fe 6.338116383573915 2.750939619961464 7.168840440002454
Fe 4.982273700445198 6.924686802411929 6.002263556034531
Fe 8.4193963109027 3.8591847655685316 7.483225536016733
Fe 7.319542841571139 6.529191185460928 5.518399220490508
Fe 5.048575509614976 9.2176219755392 6.338186954304064
Fe 3.4921178791199106 5.639028372565107 7.453380407733373
Fe 7.546425561692229 8.768106304256769 6.434884899600077
Fe 6.078869463280502 5.1227736747066945 7.080665341524046
Fe 2.8467710313028567 7.880870165260502 5.800225271301517
Fe 8.282248790548508 6.180615301415526 7.79808502249524
Fe 3.977823017082635 7.943588147762124 8.135103315379837
Fe 4.679208498454935 3.565905368833591 8.647932925174484
Fe 8.589937670055102 8.492019440525894 8.523938223260785
Fe 6.276982068122659 7.486540961739636 7.9473120067711935
Fe 6.949429377009288 4.221657053065325 9.257178356617636
Fe 5.08372934344576 5.857475245139557 9.239109656431127
Fe 7.307758210370232 6.602879916463609 9.970609803474648
Fe 6.052359079489439 9.724500232237142 8.470860798962262
Fe 5.078508031726163 8.044355428860612 10.23269677414272
Fe 7.184706299751117 8.890846744563877 10.29903284372446
