35
Energy = -243.47140539 eV
Fe 3.8318255788271016 6.882332428300348 6.611196203078034
Fe 5.333734652065805 8.149436906321611 5.351351432756295
Fe 9.001807410960348 5.705242835307239 11.170052226608036
Fe 9.857771454523117 6.55303375366206 5.071999765589593
Fe 5.517757373741578 5.436842431301681 5.831157714680534
Fe 11.09388986350197 7.133869862059835 7.684342466768399
Fe 8.119291316427818 5.991312668395597 8.748365944525872
Fe 9.763150885563897 7.516844295063391 9.606513257822979
Fe 8.760405269689006 3.572506893499875 7.9006572945001405
Fe 5.823881598302499 10.80345779587431 8.279037863795734
Fe 7.456037731717894 7.116260715199302 4.930629711387385
Fe 7.534999885662857 8.553587234463757 8.701140833801833
Fe 7.625281536550655 7.564026759142545 10.895807560057627
Fe 10.206819690888361 5.140000097885008 6.996614082697957
Fe 8.139259926390565 3.804934378576922 10.090919397614595
Fe 7.300727352080296 9.4161535641427 6.502151757863715
Fe 9.15228281435915 9.020179640810266 5.147288738535913
Fe 6.404397307861948 6.976086326310469 7.2516462600189175
Fe 9.28447753864156 11.145770406062764 6.319857955757762
Fe 8.8920842655446 7.4315833267227855 6.970996745800822
Fe 5.58378195325682 7.515916045926264 9.585380399993547
Fe 4.9335743163834325 8.779261825744776 7.687154158346111
Fe 6.4644078690420095 9.755674504922423 10.344900488576798
Fe 6.479595059290836 5.438435943590964 10.423444723650706
Fe 8.916254326906909 9.645110792227767 10.365325663333568
Fe 6.915094410996593 9.108012588401762 3.8554396938326487
Fe 7.674658187956843 11.095338729478943 4.55945564514392
Fe 7.095837292876433 12.032091967812997 6.66443497002194
Fe 7.937523900227589 5.218459095673059 6.288958349180191
Fe 10.316453421980428 5.041890771690815 9.344959412955237
Fe 6.454329976493435 4.401172881118125 8.115009658453644
Fe 4.595761486241241 5.752866265490713 8.40981213691059
Fe 8.152441565754849 11.022618722146504 8.57055756971615
Fe 5.451443984003737 10.548381866695118 5.677713467810422
Fe 9.768825525650227 9.382823379530649 7.881605286058273
