33
Energy = -226.13672886 eV
Fe 4.613625157885987 5.40617395628814 3.1169879535279916
Fe 2.4722369852747854 6.1833461023555625 2.959998805737084
Fe 4.484463625517953 7.6983869574848 2.673192398046842
Fe 6.908227507294626 4.72360098524875 3.715144560687472
Fe 6.887303870361212 7.046545180723177 3.1850882302768784
Fe 9.127829612003485 4.066994092515856 3.947364629854206
Fe 9.206599504428173 6.443451594770917 3.836795521699394
Fe 5.336763674320667 3.8916954244048205 5.025208943136866
Fe 3.132542449368126 5.086432260732393 5.044590314979939
Fe 7.712144756539164 3.5263903719477776 5.7527139105500185
Fe 3.302106873022477 7.433330873920934 4.7240686304914705
Fe 5.516548467863825 6.5370490900471285 4.9992032276664355
Fe 5.527397038339317 8.805395609867173 4.554413856527261
Fe 7.826398529333097 5.925645338501165 5.556286249235586
Fe 7.832094227375401 8.273330145624058 5.100957217909805
Fe 3.976828929420931 3.754990686394985 7.1075289091704725
Fe 9.880993728922645 5.003880803992213 5.929450868742328
Fe 8.383544816024125 4.414912808364051 7.771393246757936
Fe 6.42002253637999 7.626289844413654 6.962263188271433
Fe 6.455057662691953 10.20933792296005 6.15829814919013
Fe 6.206966317723825 2.902397595189411 7.604718575430767
Fe 6.012942391247349 5.126129139100291 6.863478898810331
Fe 4.727171106863678 4.99398310533055 8.98529370788906
Fe 4.383463180449904 8.729062825681407 6.69143163273991
Fe 4.080197857972028 6.280970912786115 6.971213194761624
Fe 4.5886453165237935 2.722295596512395 9.252543228322889
Fe 7.611891205863173 8.199569356194434 9.208944268743155
Fe 8.270395088242008 9.378874541180725 7.275969078817296
Fe 8.775349333611857 6.970229374203995 7.42565689284115
Fe 6.914776601889013 6.00208165755559 8.858374406293846
Fe 6.793269467775567 3.7781832551365007 9.657933044494039
Fe 5.9324381350873265 9.66081509587983 8.366228632204283
Fe 5.058590071808005 7.523659374616821 8.94493741256214
