31
Energy = -209.39985083 eV
Fe 4.331883927787624 9.794504903845164 8.82763543878699
Fe 7.07177605623856 7.047351320509655 8.750405590576435
Fe 5.8538971485718445 10.452108631741986 10.617671432573554
Fe 6.093026391650835 5.045822899346116 7.855976745498444
Fe 10.19114745237574 9.275216286801514 6.585386077599454
Fe 10.868716282108805 7.455638955701698 5.308746553708759
Fe 8.876621701006561 9.067294811610505 4.53486188590095
Fe 5.176776018030575 5.70068793583975 10.168058963951392
Fe 5.123621037266728 8.157205519089723 10.53043612018874
Fe 6.4850081122095276 9.309170845730025 5.390332665625081
Fe 10.06294747878083 5.278933535044387 5.9082744128243005
Fe 5.83050912378907 7.006418050374492 6.414663007038739
Fe 4.42885596150477 8.938403120770271 6.594399108689157
Fe 8.951422562477141 8.99526688778313 8.585798401060106
Fe 7.073928016199859 7.281802329480377 4.332281204005853
Fe 9.188435472661812 6.453958517580817 3.9372209133499916
Fe 7.600379966702487 5.406898236513741 5.804791674301246
Fe 7.363976792716126 4.8947413669724344 10.053045677688655
Fe 5.268644233428765 12.014872425889783 9.023997505085704
Fe 5.674975950244283 11.091784405714519 6.9133134613519305
Fe 8.190934699071756 7.7419309728147025 6.628309475747554
Fe 7.456376488067885 11.10399199500574 8.909907322828094
Fe 12.076944435819023 3.4433752824030837 5.187412582892562
Fe 6.437110145749442 9.071547152473357 8.032267240232851
Fe 8.655484773946062 5.212337722155184 7.988210470585804
Fe 8.090239527916772 10.429908618192249 6.631521536049265
Fe 4.534043893002028 7.201566860425774 8.417443397844536
Fe 6.937764545662787 6.74240713568188 11.345898005220551
Fe 9.126386488545856 6.835049913270267 9.895500455086715
Fe 7.583820824013527 8.934652787444088 10.543710170244706
Fe 10.259151209386806 7.085414774675822 7.741087229413837
