31
Energy = -214.22671393 eV
Fe 8.56262394225539 5.1244543519683665 7.972256466830697
Fe 8.83006825626694 3.5250432349445706 6.196915840881642
Fe 6.870031662379876 2.934638477837675 7.577360601221531
Fe 6.567917930064248 4.888594104923082 9.051708849476698
Fe 9.152847185427342 7.357160784012915 7.421485090940154
Fe 7.380496598258103 7.206181987313307 9.172211998135088
Fe 8.75287867100658 5.898977244613303 5.6034326793507985
Fe 6.949956320525518 2.579433078502915 5.016289703216574
Fe 6.633851819013608 4.683801422692107 6.202687944369416
Fe 7.939447009656341 4.519492843314828 3.887351945226627
Fe 4.477703714719158 4.1946021928466415 7.887729476381377
Fe 6.713286650511055 6.914947743273464 7.027300316043455
Fe 7.738679735158814 9.269974287842972 7.5854682899322095
Fe 4.809436261463417 6.443860686798764 8.498418788586452
Fe 4.69811692898653 3.124082006039847 5.83211486631233
Fe 5.554785142646016 8.683984478780152 8.343706157234159
Fe 2.597707866243241 6.1461472557662065 7.559614429927048
Fe 8.55419175907884 6.876727455562609 3.3702771261527316
Fe 6.406198074632614 6.554483272397729 4.701261042456897
Fe 4.518387298948759 5.813343634751939 5.985648944378923
Fe 2.537249257504629 4.154679666448507 6.40688299241759
Fe 8.08676315173576 8.272912224148387 5.300896742799712
Fe 5.55807277677845 4.3386324459590915 3.926828205729455
Fe 3.818838557104465 8.060080910966693 6.817471653396692
Fe 3.135221356429788 4.336573036152113 4.204881638289747
Fe 5.895479663208145 9.035180499661488 5.908877110972317
Fe 6.558719026533727 6.152849984075214 2.339598681632994
Fe 2.408484770814808 6.434133482177096 5.135383403884794
Fe 6.386741521063965 8.363734176862625 3.3581390160574123
Fe 4.157704691254301 8.1705984402807 4.487276740641173
Fe 4.307725625573441 6.248317018392179 3.2860270200637185
