37
Energy = -257.86184896 eV
Fe 4.95759948623562 4.969253869139369 0.07565286688941578
Fe 4.170589923472453 2.4143560138037663 0.4168153458582484
Fe 6.662973226113826 3.1491772053491136 0.9166840283140222
Fe 2.6228507884761245 4.408764456128861 1.0718662954354923
Fe 6.591953335992406 5.630174235958451 1.8752590397805484
Fe 4.8187928967347 3.9055190336494903 2.0257222401806465
Fe 4.047178565033738 6.306530466388042 2.0215086880964366
Fe 5.478854658122058 1.500999477953318 2.3717654982689873
Fe 2.9559665154572623 2.213584344735823 2.5068849653033105
Fe 1.669287906534496 6.332995382401741 2.9431369634579467
Fe 6.990210162607893 3.424822014722444 3.3163910010432787
Fe 1.0293038912508239 3.887929794105176 2.819820203029361
Fe 3.056702820549849 4.495522711468973 3.513031669286128
Fe 3.1237162872007764 8.39099999536555 3.195449138918727
Fe 5.643283285592554 7.646598105730077 3.4370904853458004
Fe 5.490407640452834 5.179535142827662 3.934344826277981
Fe 4.706900081291426 2.8196490245437267 4.131458926043459
Fe 3.854879495342031 0.659997955581713 4.6900481422384175
Fe 7.488068584281938 6.191188346468781 4.235234556523517
Fe 3.6578814403755704 6.5878681542768085 4.461526830356847
Fe 6.389599920246097 1.432974183396446 5.126997553586138
Fe 2.225887709526924 2.744642140511338 4.907217405531437
Fe 1.5887371546609725 5.230961624016429 5.298678665516765
Fe 6.697020232108455 8.179614032252285 5.342345154655876
Fe 1.693826686375364 7.643597457537189 5.163150914492675
Fe 6.396291073923786 3.905000929369573 5.7989779863293025
Fe 3.916292233975618 4.5753429072263545 5.77233817273729
Fe 4.28794784304441 8.485004382246428 5.5019430373444305
Fe 4.393039372615915 2.392856831199178 6.3601502468479385
Fe 5.584861828440896 6.271768483410714 6.137780691191139
Fe 5.029867362165027 0.2765703467417563 6.843573792095291
Fe 2.552195801392691 1.1710409241161552 6.834576691454527
Fe 3.154965448436415 6.545911509170805 6.8435905873952265
Fe 6.498150496791957 2.2040067516591093 7.506423204267602
Fe 2.5198661381893377 3.5931455783472535 7.41330965233393
Fe 5.081439582053696 4.318407283954672 7.807512445010843
Fe 4.190883585871575 2.1319623651834885 8.600015549499252
