39
Energy = -269.30052636 eV
Fe 7.417377894675143 5.337385958518564 2.565959015687899
Fe 4.656109037261029 4.572878594260699 2.2749768643826886
Fe 9.14851308567849 6.573585979300964 3.7371054050955497
Fe 6.538865339853344 3.0037057455368714 3.0436617115142153
Fe 5.504164586606604 6.6356944999802705 2.894159523671652
Fe 7.361658573079347 8.009521395101608 2.849896942385623
Fe 8.417035456961973 4.230076697799171 4.359457159593854
Fe 9.45380133388173 8.976132710502425 3.637185572714549
Fe 5.08535616156152 8.654028909484051 3.837072710953083
Fe 3.409547963241844 4.744453696070492 4.108367570717663
Fe 3.1700288588462406 6.87906893759941 3.061691554653876
Fe 4.39592905753323 2.6670450538990758 4.226910266813392
Fe 5.8745031015582585 4.715546494041372 4.392009648851764
Fe 2.823759845241896 8.100853015959007 5.083073162384058
Fe 6.536841400906744 2.455440725147494 5.419262869792071
Fe 7.14520413113394 6.735695994395105 5.021799071808328
Fe 4.51738444274561 6.574877154333968 5.092261341043101
Fe 2.411127015288927 3.497704164929523 5.7918609945316115
Fe 2.462721460439314 5.85939045118995 5.950347302563117
Fe 1.3130657493078755 5.632680761871537 4.1563128881711355
Fe 9.090001658914664 7.948444255507476 5.744206351950922
Fe 4.334151863920225 1.960449046288854 6.504926101311322
Fe 4.659856122466734 4.327548374605306 6.52452483439412
Fe 7.238481251450903 9.296401632014783 4.8015725338716
Fe 5.067829815625936 8.676282735820367 6.230258183570652
Fe 5.780308585967254 6.426533476401861 7.008020590570334
Fe 7.234766862591911 4.516370124567006 6.389551611347536
Fe 9.477035899753794 5.555379341223793 6.052437032476676
Fe 2.2337091952768193 2.2426673118669633 7.740782087317864
Fe 3.4701851359095714 7.207058005976919 7.456285156070445
Fe 2.4153808788218036 4.681160257003315 7.872770565779655
Fe 8.107748169235395 6.466654799499692 7.706193370556648
Fe 6.432974022387347 2.628455850334165 7.798432153810446
Fe 6.391409290167353 4.818751095538974 8.747880169867464
Fe 7.249302415720524 8.542173184990778 7.071610238135816
Fe 5.801307256248051 7.563849142112083 8.866590130010183
Fe 8.632577090821085 4.099518181133473 8.123355104616872
Fe 4.241399890231806 5.666396199347626 8.994399138578604
Fe 4.2456935274114205 3.267253474570848 8.609946497159932
