31
Energy = -213.02004919 eV
Fe 8.008463322701987 3.7437430165273025 10.540428571777356
Fe 10.48932351834626 10.331683763058377 8.756612006704573
Fe 6.360907016810267 10.557469518839625 4.7854122745013985
Fe 7.684916131096893 4.400071052875175 8.071762665666006
Fe 8.541796648471868 10.089337076726173 10.414416870454549
Fe 10.556225908276815 8.90612203170532 10.52458887726527
Fe 8.166321430842727 10.709760775727476 8.185371451434577
Fe 9.896746010166101 4.369696098651902 9.388085770331582
Fe 9.652088226659453 5.992465174684756 7.62053273355323
Fe 7.350133275820904 6.823871776554065 7.498756899165165
Fe 8.802741144425507 9.949939658871411 4.471228511133612
Fe 5.781187061532663 10.477942322320247 7.137814169311968
Fe 8.428862477235405 7.847798411740675 11.069902552736542
Fe 6.908585237474642 5.805600204843397 11.654811755574388
Fe 8.034189176675952 6.098018107643726 9.611459444186615
Fe 7.266652272499909 8.343762839622105 4.072472815729872
Fe 8.947902276983514 8.301072415449264 8.53102613277592
Fe 10.414957289253094 6.645834446853275 9.91636682152562
Fe 8.051281478088553 11.518925557546092 6.035167764675877
Fe 6.389045506166462 6.711899736430508 5.457458536422602
Fe 6.734739184822795 8.923420673834844 9.168565354704567
Fe 9.768336135466823 9.688274790992539 6.584294424859638
Fe 5.936396527369582 4.488579368441737 9.816134227539557
Fe 5.212022108782057 7.99767957103357 7.421021998040874
Fe 9.230944492207227 5.47499699922297 11.663524877149902
Fe 9.030436548812569 7.555241713596137 5.831401478763861
Fe 5.062840596050228 8.687860918386445 5.251065871174958
Fe 7.358581100749197 9.034641556569698 6.492418574690999
Fe 5.410131497759749 5.539170712957605 7.537425488231003
Fe 5.775079316233971 6.762742913934406 9.570989728976553
Fe 11.079876283899095 8.038350027001227 7.950961070625846
