33
Energy = -226.33274285 eV
Fe 11.892832715809885 7.458278711666541 7.927818448134152
Fe 11.153741316428595 5.845171967110215 9.457553316133223
Fe 10.631682435127734 7.523388023519362 6.024395992167905
Fe 10.260725518373272 5.467382974452958 7.25891201389456
Fe 10.523642413951261 9.398911652474732 7.950861676991462
Fe 11.250747352516678 8.150156633808004 10.093270134930437
Fe 8.786333959389317 8.978822921432126 6.327808678517457
Fe 9.288273226063604 6.991577488977445 10.747861376072164
Fe 8.473066355647097 6.673166666860154 5.993992957169835
Fe 7.217687173079594 8.1790310745002 4.742326998749197
Fe 9.185866767900565 7.409592089965886 8.360489790327668
Fe 9.060290965161242 4.869757361753718 9.319618162960241
Fe 7.472867112203863 5.817134027323321 4.048789235518518
Fe 9.425152484953559 9.526692104030234 10.05839052160141
Fe 7.713127017977815 5.062550594516118 7.420066999270671
Fe 7.896412078083798 9.808850902959179 8.222643394163239
Fe 6.670350192797049 7.745823201526438 7.446829335813798
Fe 7.228033716846897 6.321239395437959 9.592506654257111
Fe 6.004821602702468 5.999072238891879 5.8352650416530105
Fe 7.333662863746533 8.429908100434822 10.040420973523291
Fe 7.3441105609411865 11.035807864016364 10.011665132419308
Fe 5.481490653950713 7.083344612499542 3.5681280344672577
Fe 5.1537654278322504 4.67980777624055 4.0189635090769364
Fe 5.534265457908218 5.3818930795444295 8.24767443785846
Fe 4.175235553407404 4.7031464310887845 6.400247498257753
Fe 6.564533894020674 10.054985108517387 6.207938378092197
Fe 5.918899273933051 11.298444070415039 8.109621702387875
Fe 5.093204579633246 7.4736767693524255 9.377783642086364
Fe 5.366945455412455 9.822145508648955 9.923914761371696
Fe 4.945401265290178 8.42756670971117 5.549308548013543
Fe 4.020516778925679 7.009490276177112 7.283362499477584
Fe 3.65211207003596 6.480628223748432 4.949492133407922
Fe 4.54685166547431 9.433808387280509 7.753439014645293
