38
Energy = -264.86214649 eV
Fe 8.869310768283247 6.318035092375661 4.455004575701464
Fe 9.619866026321608 7.767532951593088 6.209436578067882
Fe 8.657388992158381 5.544130866463068 6.851789935421639
Fe 9.197403457002666 4.05690166216985 5.04625806661446
Fe 9.481333137488525 3.693472680862176 8.05528794112434
Fe 8.202602088597866 8.676751804520826 4.268660068980358
Fe 7.612507091512706 4.709839466910097 3.1202754158939214
Fe 6.582015480272009 6.885931239718679 3.758233940599218
Fe 7.694297922353468 3.096634631528616 6.8171483234759185
Fe 7.226805431232623 7.256029150252424 6.05668701678848
Fe 7.615616920487763 2.5478768868580017 4.44181326757906
Fe 8.192664081868397 7.506619960798701 8.230509006276085
Fe 8.066103228749824 9.528330021501262 6.657002457923337
Fe 5.684706453282618 5.854469875147609 1.9302094883340377
Fe 5.840626731518582 8.79666721032146 2.8483318580992
Fe 5.830709640130505 3.2530351584271195 3.1008523326156676
Fe 7.824560511630317 5.181434882726636 9.051418205799589
Fe 6.10013585052955 9.255509010459305 5.277680607859267
Fe 7.481531982340363 2.846277950586872 9.216843711659987
Fe 4.001058226183962 7.258043187039737 3.1477671180353726
Fe 6.672422338486623 4.92691695805429 5.482438513426197
Fe 3.9972658949574003 9.521521528263799 4.179933073683793
Fe 4.848418021121681 5.082619608540424 3.954542580018606
Fe 5.769278294083788 6.154279053586409 7.749083767261422
Fe 6.031401152998469 8.594206422325058 7.697590872646272
Fe 4.8367809474253365 7.130784013571635 5.474845898095507
Fe 6.482929388455571 7.2204016102544415 9.843587811622958
Fe 5.4369822943798285 2.846101562993098 5.494186092442377
Fe 5.795671400671392 4.606129109353766 10.035916056253765
Fe 5.6939541840364125 3.7419134547698545 7.830404564786262
Fe 4.447880628506897 6.382662540746231 10.497688709259014
Fe 2.426579325261493 8.07516729203902 5.018153008740906
Fe 2.707084203918725 5.792409310906394 4.680802097263977
Fe 4.215958020482574 4.786084021422609 6.248240075607111
Fe 3.8903338403725543 9.151777182928079 6.6227704794866735
Fe 3.7049298446853105 5.143156182820758 8.667027840496221
Fe 4.046137589975184 7.8635831900047535 8.807898591894196
Fe 3.0427721997987742 6.774786858720232 7.001703641728132
