37
Energy = -259.307513 eV
Fe 6.3066819756999735 2.1645396925684537 7.374949220374014
Fe 8.114166634764846 3.8778982560055826 6.728403099695179
Fe 6.027888823938712 4.593386344601825 8.230008405397752
Fe 7.14519258976949 2.083325151357625 5.152000451571718
Fe 3.9480344807922436 3.301370723167562 7.611847875935456
Fe 4.519761002647665 1.815982577578426 5.697014340583873
Fe 7.966662384774668 5.878206995614788 8.645068266272348
Fe 9.616063209446423 5.949316459036545 6.971187445839802
Fe 5.735284817697516 3.81993722014031 6.007934644052554
Fe 7.155684582184435 4.259988756475235 4.147565688906314
Fe 7.091801733756769 5.940316815085215 6.20698244388014
Fe 3.921980471011775 5.919155241047711 8.962248508057934
Fe 5.1861033532194005 2.9471248630516755 3.7130600777986826
Fe 3.2548004935451136 3.821310416284957 5.221167678899461
Fe 5.983403819385081 6.360705044774747 10.078093788945948
Fe 8.445694752964188 7.963399869892387 7.49959868455381
Fe 7.428463167699213 8.090407803194532 9.697215360519676
Fe 9.21030424913724 5.006690128634561 4.812529286429398
Fe 4.486639398092515 5.599633492650159 6.73660102384176
Fe 4.921926867348181 5.328943043730079 4.3386052737990575
Fe 2.3335613467076946 5.030614700680421 7.12618988603621
Fe 6.137049808701456 5.297433243775355 2.215086547061761
Fe 4.7473366744655925 8.437291852210743 9.349812869615398
Fe 5.918672991698013 7.259176168607632 7.787384940221441
Fe 8.928862632045394 7.402513548723863 5.110653534298452
Fe 8.37121598055555 6.185018861575179 2.7047466409556074
Fe 6.605139691858308 9.641517940016229 8.197783102061045
Fe 6.743123953038007 6.889328277289342 4.089636803942766
Fe 2.7942792702530235 6.378972105450631 5.143632225265727
Fe 3.2695354143163446 7.65481321499328 7.478525445607527
Fe 4.469602142088722 7.204387651939439 2.9439274115488865
Fe 6.911966046474353 8.692992296992657 5.859209935271796
Fe 4.795589341734182 7.579193435706828 5.4425299003869325
Fe 4.721504793216859 9.420810984897651 6.859957331304591
Fe 6.540351900537122 7.75493783238753 1.8981942767458662
Fe 7.9218658095819965 8.893691725892412 3.5004803036280707
Fe 5.540808031240911 9.154880632102211 3.7962196813416944
