34
Energy = -234.94370371 eV
Fe 4.917470096887896 6.990649505241903 4.582924982523995
Fe 8.779817368317975 5.187782930974438 10.044433332195739
Fe 10.45008616322396 9.231854205553578 9.679820608171422
Fe 5.7269306425945645 8.25191884502816 10.163491116083687
Fe 4.875476802557986 4.821978863450589 5.405282342883356
Fe 7.912815596725177 7.764452975723447 7.019478492068029
Fe 8.761905313145713 7.440991005096369 10.90267627232117
Fe 7.182539018242972 6.8304949770696775 9.042747265089558
Fe 12.594415333706074 10.37908852714117 6.260016055375023
Fe 9.185403284178513 11.237153698782206 8.394945287815386
Fe 4.073452148903463 8.552551906134978 6.193856527585443
Fe 5.8857583410811625 8.92718746126869 7.869891693984501
Fe 7.397118859141256 6.12579210867418 5.341879336815165
Fe 6.8192336440770545 5.890350369937701 11.179756274738288
Fe 6.720337820545958 10.911241121895149 8.827404069560922
Fe 10.026614463898646 6.901470142912152 6.243695451464989
Fe 3.8041170901632864 7.548180940769424 8.36868279206652
Fe 8.484792727195519 5.351612534703109 7.548576007630718
Fe 8.836814657834797 8.835522288206223 5.059650267097453
Fe 4.428709889992854 4.6554539597744355 7.807907710262212
Fe 9.794501446952287 9.09342829118782 7.354113231107337
Fe 4.873467076986065 5.998980833691522 9.7613667470793
Fe 6.566378576677197 4.420980862641207 9.126626350368682
Fe 7.703311686937054 10.309693193930908 6.714411113949128
Fe 6.615873162904878 4.070451585722769 6.771776693081939
Fe 11.488365540492737 10.776817237063087 8.198274100538654
Fe 8.073231314719791 9.094544227091236 9.232149979752597
Fe 10.194244690449622 10.984282348850108 6.017834302310201
Fe 11.970437979221634 8.419951506135378 7.6732908492967455
Fe 11.223591434662454 8.814735479217918 5.311998739495314
Fe 3.2481712629492066 6.318020098548539 6.3548142542690975
Fe 5.758602530103567 6.569910651773362 7.129366745738389
Fe 9.779515634402404 7.0829754793908855 8.733815284248015
Fe 6.372235231486403 8.633914340671069 5.438995412709426
