37
Energy = -254.52878413 eV
Fe 3.518331555490174 7.032731418258644 2.518636635329408
Fe 1.0576015441650854 6.723244892022763 6.599681466106762
Fe 2.314381695042464 6.055336275284413 4.583490098645889
Fe 3.1511715742467086 8.689640130037228 4.27458129151525
Fe 2.860311026433308 8.155500201420429 6.658480821917997
Fe 4.490658239383708 4.785976545455769 1.461456939721704
Fe 2.886255296576822 5.337343187016775 6.969214427364257
Fe 4.714644625398296 6.736957005552504 10.008331939638003
Fe 6.79332710709349 4.402657639386124 2.1933677067201756
Fe 5.115899591901355 8.982683213376044 5.648968303577809
Fe 5.45125120980759 8.112612704265402 3.422568483416999
Fe 4.865170698199744 4.542416032637566 5.7152071729916605
Fe 4.139898608171066 6.82524559179592 5.376628947356604
Fe 4.859978089435113 3.298147063321806 3.5073270988879646
Fe 3.5443358041154154 4.89440825090041 9.32292593443636
Fe 5.051536226077376 5.607934861828874 3.5293877171756156
Fe 7.020926935524092 4.434082103931617 4.768745745477836
Fe 5.822275264545666 6.722647859999686 1.459056177735259
Fe 6.336055809503319 6.7351431083075655 5.27069869758945
Fe 4.911231347401477 6.586274561033384 7.708579267364016
Fe 7.490031794795948 6.483121191624092 3.1680056235493166
Fe 7.511783273815415 8.550982365281055 4.697853304532169
Fe 5.818077128042539 2.3029867355272025 5.462576347123193
Fe 4.78833809865388 3.594265256016068 7.750711520362237
Fe 6.906431733270949 5.310855045907331 7.104852126730114
Fe 6.997181716221202 2.3516277936842065 3.308867562769124
Fe 7.095378588221053 7.831745985117813 7.110465089147037
Fe 6.041565226361086 4.679121516985809 9.381775462820375
Fe 7.063572292934125 6.729251471226011 9.219491769857129
Fe 7.183501449852214 3.0185150178821987 7.239923953400436
Fe 8.471816066483523 4.5226966365460735 8.727413783491436
Fe 9.023271747462465 6.54904046254678 7.7347247358396425
Fe 8.931953569899719 4.276046711491246 3.615065070702502
Fe 8.680194533284304 6.434260756457172 5.376274726365517
Fe 9.13016376056672 4.359067665767074 6.316062753993844
Fe 8.411250858225712 2.4066137451546274 5.124120211042681
Fe 2.580835380983575 6.969408464537304 8.695070552890419
