39
Energy = -269.95513814 eV
Fe 6.792115977404163 10.805866341241712 5.828590196056975
Fe 11.243838648378576 5.058819562527947 6.945938579975763
Fe 2.9890133093552613 5.081977515485957 8.128776651921395
Fe 7.764480574332327 5.017769129744594 4.827889074895114
Fe 4.770929876381156 9.961747905779033 6.9745217052792565
Fe 3.0066696314223567 5.077543491275809 5.760772056556825
Fe 5.277268569038711 8.942653277198167 8.996913536917367
Fe 11.211620912523017 6.973566907554355 5.611813494498103
Fe 6.462736322692973 6.972025771866175 5.012849098972184
Fe 9.033141209278673 6.969662177178574 9.703830005483391
Fe 6.727150178406777 8.404411606676964 6.937862940905193
Fe 10.062108229576484 8.968760850209188 8.947111509681221
Fe 5.281804749088209 4.982960591728687 8.995422296922332
Fe 8.922405030751097 6.975544325164588 7.085605845045019
Fe 4.671411898303469 6.965508636529724 6.968798249081688
Fe 6.8051887518682035 10.760140879173495 8.096807258287487
Fe 4.77903090640078 3.9584962419703693 6.960599956065017
Fe 7.761796493770346 8.931973261882954 9.177188854053714
Fe 11.221475030872684 6.965525011913575 8.304354010908627
Fe 7.757125201264724 8.928041138469627 4.83198423624045
Fe 6.811791687903167 3.1225758774623693 5.802301914780878
Fe 2.2036109499377163 6.958695274300025 6.9510973529661975
Fe 9.021504419675129 6.9763035857217295 4.316321921446878
Fe 3.9285219265652134 6.967612423619664 4.693021258925117
Fe 8.794364770781552 4.292597883610092 6.96531904191541
Fe 11.240843247671284 8.869998733441301 6.958133144593772
Fe 8.791178219330938 9.652634787757405 6.977799714713041
Fe 7.759918762329612 4.997499529088958 9.17430142781156
Fe 5.271966396237857 4.90677422938765 4.913850871040168
Fe 2.990207624524204 8.835334846081555 8.135266767773683
Fe 10.04685227771248 4.966116132495297 4.95826754533421
Fe 6.532736024784047 6.965090114376763 8.866974433129357
Fe 10.059422322772166 4.967943043906382 8.942413432554535
Fe 6.826915807962736 3.17792972739826 8.075956900105247
Fe 10.042531529067487 8.980944442306932 4.980065872386579
Fe 5.262584255818818 9.026460802719523 4.924799012714758
Fe 3.0077740144827843 8.849993250969744 5.764264322480499
Fe 6.733503528577477 5.5325557679736495 6.936501665334041
Fe 3.851601151930097 6.958160565227179 9.27492703246457
