38
Energy = -262.53458136 eV
Fe 9.263596440408415 8.621383690341442 8.438512151890286
Fe 2.7475234808237614 7.390699114158451 6.106468920889114
Fe 6.905821724306397 5.47593616524997 5.485112230215796
Fe 8.867476158714366 4.199698707567262 4.963748458890398
Fe 6.286477843402221 5.85938657391089 10.885697642155268
Fe 4.443253030283456 8.336372715491315 4.7993995462008785
Fe 7.059103224294961 2.797480154966289 5.944057886971204
Fe 5.168946744913424 7.320728883002545 9.363311082648899
Fe 11.019680544494268 7.5677351531166295 7.412842225205149
Fe 4.005308893050855 8.619655719266484 7.702717876361189
Fe 5.225023207254646 4.288896124810903 6.800972634029084
Fe 6.628722209128637 3.059082384901774 8.296080188140685
Fe 3.8110790578039113 5.968970525523379 7.830591306878889
Fe 8.462659979564913 4.401868374190331 7.135400736479148
Fe 8.292160306602637 6.9825323839838 6.9119159274473825
Fe 8.65549186737422 6.575497031748311 4.342005955755074
Fe 9.588164858576658 5.976004156207431 8.667990514718278
Fe 6.633794939478559 5.737963259959541 8.200041194074766
Fe 10.208581493285122 10.227257006396615 7.224205891643737
Fe 6.785147190581386 8.502512661349552 8.034850157656974
Fe 5.474330749583357 7.084034403332009 6.531597108958996
Fe 7.8340877465291365 4.495778847016112 9.76206270772876
Fe 10.218998109623987 5.8380094320228935 6.062924490757049
Fe 4.11881452780188 5.686071362791825 5.102276009228949
Fe 7.405252333214262 4.863199199048377 3.001645814632734
Fe 5.053187075964591 4.518633382510021 9.416267863934502
Fe 9.673794164893541 8.468792260606637 5.6738688770733505
Fe 7.823766928082534 7.17050086872891 9.762525366344597
Fe 5.630447034742433 3.9325336725354294 4.2078044462829425
Fe 5.93136508997133 6.674457993066673 3.74069783515513
Fe 7.12171197608911 8.273693241960917 5.173365157991555
Fe 3.230873027417266 9.971255336734258 5.987099294791288
Fe 5.5641020296886685 9.890603336568132 6.3547018827629005
Fe 7.955988368547098 10.062628534212205 6.6577558115155595
Fe 7.538683082658015 2.6318551691998837 3.6882974017326333
Fe 5.469505028963124 10.14568426611154 8.943067252742205
Fe 6.454180502719446 11.707730168833304 7.464998474841439
Fe 7.8442356408175815 10.446189803230348 8.786558418018267
