30
Energy = -203.40962285 eV
Fe 6.827751951909336 6.591463134029342 0.8956728928962717
Fe 6.211192615938675 8.230452504482788 2.510573581598594
Fe 4.654886458925611 6.497554349083857 1.2713439980618568
Fe 6.392238217641638 4.49509259853211 2.048427585071931
Fe 3.896928985402675 4.88380486262205 2.770229440995145
Fe 8.314178671417368 6.420588544330277 2.5663706453497483
Fe 4.679349152418069 2.652740281774504 3.026070110718994
Fe 3.7933967840947735 7.494390953629834 3.135624099297767
Fe 5.713094954168567 4.024780355732979 4.479023064044113
Fe 4.074527255977972 5.856041497161306 4.964144302913278
Fe 5.949791026002383 6.239133810083374 3.4754170709796783
Fe 7.929901614771784 4.88180475692318 4.238069003383364
Fe 5.3289573522768725 8.049133420510016 4.993877536991127
Fe 3.2259720789077178 3.561276783955471 4.946308910524975
Fe 4.878176639569138 2.0931063383120585 5.585471264077458
Fe 7.683125703800195 7.559069845130968 4.4903196215225565
Fe 4.869851375458832 4.4104242274842855 6.750077294980821
Fe 2.9598913285246136 7.696795205203757 5.54915361221489
Fe 7.112837722842697 3.3889183088891963 6.210493657873865
Fe 6.606776613224195 5.880410696293775 5.996579379082739
Fe 3.2718207860476793 3.0245440014014937 7.466142388388375
Fe 6.876391537917008 8.058365401895662 6.819821883812294
Fe 5.619441642764882 2.264137148236089 7.750634699453542
Fe 4.541661153058422 6.869489254169753 7.038884356078117
Fe 2.5542703795708555 5.315512315786787 6.737514108136672
Fe 6.601889430609055 4.391708234205467 8.315576194889518
Fe 6.224835621498856 6.643930948728452 8.597876413602037
Fe 3.9930957774296556 5.400090781268575 8.712828883704054
Fe 4.715906981395947 3.352857410963019 9.605246143131414
Fe 5.855439779488077 5.129961622232398 10.409807449279063
