37
Energy = -258.00566967 eV
Fe 6.811006465682197 6.732581734314977 1.8578881818424327
Fe 4.12417530883135 6.480344264706106 1.4092328468793627
Fe 5.252820528862095 8.595827405575715 2.015190753834131
Fe 3.1895089027018115 4.028948387723056 1.7177370539994592
Fe 5.547473012854203 4.82974961847951 2.5779456368075753
Fe 5.714902378616238 2.2829224445785674 2.3887706428914757
Fe 7.237097443960294 8.111064823830262 3.842859391126031
Fe 0.6923268310360514 1.7188582116533409 4.32615587180823
Fe 1.7013182595915248 5.947973444585135 2.066161227328049
Fe 7.331474499435505 5.670316160736166 4.22052609039581
Fe 2.8048601624215537 1.5894909354863214 3.0605455431052895
Fe 5.203931244909064 7.000323024749079 3.627570592796397
Fe 7.7076896370998 3.747762449450456 2.535212510554918
Fe 2.9357615583567283 7.9675702334032135 3.1759537460606095
Fe 3.3400416494465923 5.620752931921306 3.585896000554204
Fe 7.415906520186362 1.3970830013155866 3.785048995317857
Fe 4.108713729653174 3.4021964358556436 3.792821472366311
Fe 1.599315963894065 3.8674280960643737 3.69645228867432
Fe 5.025028117184532 9.051734462610519 4.521887940112169
Fe 2.598519954559186 0.1429112666603639 4.974530495031233
Fe 4.979214302603719 1.2454267524209268 4.671184805203445
Fe 6.3273317919656815 3.430313319318127 4.5348806462138835
Fe 2.817259789887093 2.4177949528667217 5.390134046534896
Fe 5.038261857574195 5.248062539714594 5.2163959065217576
Fe 0.6754579032431258 3.621297950805299 5.959876723848614
Fe 3.5781976750796383 7.227019763884057 5.544622178493169
Fe 2.7525926566193606 4.785570429893753 5.861032394320133
Fe 8.539765791586094 3.3053477926112182 4.730931730644783
Fe 6.12496353716525 7.15367447568028 5.89236945403731
Fe 1.2407643305442932 1.3566975524637748 6.723727671483365
Fe 4.8259728711815795 3.301688748716058 6.503792424497841
Fe 6.747913034455956 1.7826322164824129 6.133225933828962
Fe 1.3705893058001737 6.307080474088133 4.544591885179709
Fe 6.803132645761069 4.5656637458544775 6.604536558651438
Fe 3.9505042163512525 0.9975441346013276 6.827505318548898
Fe 4.601816165876592 5.388957093070269 7.430980376998594
Fe 2.6944034465898117 3.089402215396454 7.661838155073799
