30
Energy = -207.0542925 eV
Fe 9.268063147375123 4.866150151870472 4.725475000836432
Fe 7.635094857509835 6.289175984750774 3.4845125958243
Fe 5.876478107435767 7.636635625401205 2.506515989238003
Fe 8.45102062250618 7.204030905529834 5.498456056053419
Fe 7.13062192805842 3.9715737984841466 3.9277462453903524
Fe 7.4613379117132 8.761759692075165 3.956388022585484
Fe 9.364583860364107 5.600260563316295 6.985058681479087
Fe 5.275655419569047 5.346786429484626 3.0169537042697168
Fe 4.741569308137892 3.0861759285634056 3.642633477269962
Fe 8.374051903656467 3.4335028288344964 6.542016344573318
Fe 5.0259501537355975 9.114405640358152 4.17044954802799
Fe 7.1652980280487295 5.237465168389716 5.98837022257641
Fe 3.7878099533750875 6.997331386597736 3.8676364467776065
Fe 6.234310809237024 2.6005004392285644 5.535390653178393
Fe 5.87671766925607 7.069945523224266 5.015352525338456
Fe 5.7253563995807255 3.7655267223198505 7.496964005911314
Fe 6.779820574985694 8.945333324403308 6.241306467216603
Fe 2.930711438626361 4.62461167315428 4.397488255945619
Fe 4.949058504942087 4.862079706445193 5.345637493292916
Fe 3.8274282524748138 2.8707779633429222 5.930659902833469
Fe 7.75834036850952 7.298514733368226 7.854328892991965
Fe 5.554680594091694 6.314697340109744 7.338629551869437
Fe 7.462951803617182 5.129246238287688 8.486296187586083
Fe 4.436880387992512 8.499319786069654 6.4402500328967625
Fe 3.2493236696484376 6.501629271783846 6.12148312253482
Fe 4.968668419854116 5.047615276686971 9.409903161332581
Fe 3.495862584434661 4.653242667421569 7.465641488119402
Fe 5.629735280291663 8.662524778914088 8.475798663714487
Fe 6.257415207580138 6.88808901905118 9.728086158882617
Fe 3.810870970637552 7.038327843464475 8.57260404406472
