35
Energy = -238.62305676 eV
Fe 3.0663982480094294 3.495739801270506 4.752455484540908
Fe 8.768911756483204 5.327332366298015 6.7379013733484
Fe 9.098038237299683 7.435377095560572 7.94889001970103
Fe 9.8359740289897 6.860529484251819 10.422381328317092
Fe 7.181861146330989 4.6782091318630155 5.061265766525468
Fe 6.384334254368355 4.8861408293993644 7.362180133397095
Fe 10.404629455606877 5.374944522674396 8.57332440217676
Fe 7.519641004573673 7.456574050847141 5.722232601938875
Fe 8.274993636100755 8.172181918146538 3.3968916526438346
Fe 8.949131629440094 10.424858778366984 9.356613168824978
Fe 10.738106103624892 9.077805676104212 10.098761883870852
Fe 9.094740089426114 6.175059523578046 4.463552931821724
Fe 5.988961086680603 8.422809147773943 11.376808434061452
Fe 10.697252628209192 9.261442707248177 7.692893952662894
Fe 6.58888078752532 6.398484400619013 3.585542633544444
Fe 5.097733549584973 7.248328189382754 5.440447413507537
Fe 6.480485466189794 10.518880193085593 8.671182169906238
Fe 8.766905724458324 8.801301960266757 11.565349965525426
Fe 7.547993376464724 8.404040942006334 9.556102762995096
Fe 6.045803664423026 8.807236114239071 3.894060426153652
Fe 8.199372885319338 9.519341673786982 7.247045615123481
Fe 4.910123914563782 8.565771799339792 8.996407395232584
Fe 7.974899220293947 5.61775994118847 9.146217210531189
Fe 11.689015662645868 7.315086576011311 8.72897691805169
Fe 7.6077825881232375 6.578114625847924 11.310134754926112
Fe 10.955532329640466 6.614489313098879 6.505039576943792
Fe 7.215395957356548 10.546883136877723 10.999835135578248
Fe 5.823688874805424 9.28616148509328 6.544382896248905
Fe 6.594403334240142 7.287361794882958 7.777472226676585
Fe 4.840283713742455 4.95570787994975 5.439581105962581
Fe 5.686465818537884 6.424425289928389 9.81425898478621
Fe 9.67503705756494 8.408098747278393 5.505380745472565
Fe 4.372121950712129 6.429505338711094 7.547838887533851
Fe 7.7763683082944945 9.963305952132053 4.9518985593512745
Fe 4.942817615697446 10.41175742954518 10.529002914675226
