30
Energy = -204.46364729 eV
Fe 3.992952641343531 5.2162086291717 3.5660949118542566
Fe 5.378954101580303 7.033496052895395 3.7621089194454713
Fe 7.6561476317967 8.272423731860894 3.92202332479298
Fe 7.6938151050755454 5.950367317118827 3.880291892725643
Fe 2.950873498389005 7.114700382766335 4.320021533114624
Fe 5.907167131451618 4.731261951417288 4.889835402817099
Fe 9.05112475332279 7.21304823736737 5.680154616776909
Fe 10.157022708698433 5.116489303185447 5.405908637970253
Fe 6.089308033177637 9.566781050252223 5.055157665990058
Fe 6.47621734381447 7.139947278439111 5.803880231284764
Fe 4.314815834212017 8.294754023415852 5.782857326327489
Fe 4.092964710420476 5.918989689559929 5.961056170351661
Fe 8.243253927488082 9.30837810436078 6.1424097445033805
Fe 8.009545043951078 5.091844672171431 6.115240636321071
Fe 5.908200145297474 5.031478777078479 7.336053343105345
Fe 7.046061258356418 3.1088546108675206 6.729192815705481
Fe 9.562855672154498 3.615171022123746 7.189606320106111
Fe 4.353687880380392 10.153028310262172 7.1281201689994775
Fe 6.3832710027699 9.072784268907057 7.475963302502849
Fe 2.9936486465662546 7.829694818588526 7.560300039775834
Fe 8.993956199752072 8.460977189531217 8.300304271555381
Fe 9.902737366347644 6.034571206889476 7.662853641324639
Fe 5.074263982908075 7.065106355021584 7.969521512341119
Fe 7.5412449738435114 6.842556108882775 7.78308136472858
Fe 6.151832965011261 5.956398914735576 9.708669406221041
Fe 7.86925515574691 4.505685048636087 8.644328943280495
Fe 4.451817513961284 8.916942050534976 9.078594179655362
Fe 6.791818392528706 8.186805550280807 9.67708618655304
Fe 8.650873095343231 6.484573370932213 9.8173353533114
Fe 10.042968101692596 4.499336790128488 9.384602953940847
