34
Energy = -235.72504553 eV
Fe 6.947474855656809 6.621730003304008 4.508093989060068
Fe 5.641029483851042 8.093619172430497 3.2494860575513136
Fe 8.037771909631397 4.249117148409398 5.167860051111922
Fe 4.23813465712017 3.713763330065838 5.895371653794014
Fe 8.01229539146996 7.415517706509578 2.3937955603378946
Fe 4.64422152800245 7.704583416266233 5.570839505364796
Fe 8.137170872583468 8.761636089119637 4.349366752826723
Fe 8.29873458559718 9.613999610872979 6.768537068094672
Fe 8.907164432623464 7.882030287970937 8.250160649914536
Fe 2.8938590104284594 7.8909917547265 7.489753362963386
Fe 5.074361808814068 7.126701484324141 7.874395045347341
Fe 9.360445568779472 6.287648378754487 4.247191404028819
Fe 4.351434637821914 4.2823438423403175 10.330188224339242
Fe 10.16859408002742 8.214069313283838 3.3871909422487954
Fe 5.524760386367504 6.41247780218268 10.22725300741909
Fe 6.3457319550156495 2.9257538549428053 6.395835813588727
Fe 7.226020535661967 6.203266149850784 8.486855118357408
Fe 5.274341806943325 4.509407228470737 8.234815997267809
Fe 6.0239034225353905 4.135636598951532 4.1134159470976845
Fe 7.807123671284474 4.096138282354814 7.701870151402705
Fe 6.978618297360892 7.853810614738936 6.647027157804712
Fe 4.1108012723371425 8.233555594522013 9.620449600226257
Fe 8.56414381815252 6.111644626446018 6.538043502950798
Fe 4.374592406597368 5.826241262599876 4.277936829133381
Fe 3.082598850444656 3.7795509960400957 8.141759011267832
Fe 3.220726884752258 6.00995413434176 9.118342733444173
Fe 3.455531654834315 5.732950257727641 6.660557643156458
Fe 6.8717447256628414 4.38681264840271 9.984491290150327
Fe 6.651885663527372 8.526654766834273 8.977968385322477
Fe 9.849592348652534 8.0531354444509 5.861117616318148
Fe 6.025803540299371 5.489895810953388 6.282985926517369
Fe 5.893226091668093 5.888684389346403 2.364512038629831
Fe 7.998222857610599 4.994337444690259 2.7808705383651926
Fe 6.112389016680415 9.488981256278732 5.2156807334453115
