30
Energy = -202.79433016 eV
Fe 5.501834243731983 5.7651575507502955 2.0248226591882093
Fe 4.756495335013955 3.5725630616894635 2.5702838758268
Fe 6.618394456977275 2.032999890008295 3.600094713609035
Fe 7.199515007734375 4.256859336633584 3.071114254428876
Fe 5.0574058476799495 7.945213043332957 2.9749305328836546
Fe 4.343530956199854 1.733446910330669 4.024842238221086
Fe 5.104698956944858 10.020152641008652 4.613046392300939
Fe 6.437027121527861 6.095006979658017 4.133274491442429
Fe 4.10514818121872 5.80580996177025 3.825334571833861
Fe 3.0303153143487904 3.708979274390978 4.272073317326454
Fe 8.613532125286872 5.41043336187395 4.712828755526961
Fe 5.610692090556211 3.9280812513220913 4.806645162801663
Fe 3.584386097309518 8.18712745887036 4.666025585750547
Fe 6.459995107500688 8.21900664709393 5.009790031953576
Fe 6.196524296777125 1.526651781015251 5.78126777330769
Fe 4.787229206332078 9.154107371477588 6.748048204813293
Fe 7.0974901648578435 9.760809375931666 6.48467956088253
Fe 2.3683958903320033 5.9515665468325585 5.366761240975296
Fe 7.833369986759542 3.3190612314167574 5.447969039310935
Fe 2.0138804213378694 1.7267201774244931 4.991328230689028
Fe 1.897710970931984 3.605657252001316 6.41416120603265
Fe 8.339513143812642 7.306303278412977 6.145385722602012
Fe 4.7732215897446935 6.788196255367624 6.158666704691751
Fe 3.9587052117070636 2.1973058386950424 6.252421040185743
Fe 6.897683505417194 5.4379165038387285 6.394872369185431
Fe 5.987047758619076 3.3615296879341248 7.364171245826783
Fe 6.574295964835987 7.700853325363597 7.63141648729561
Fe 4.0549920723187975 4.673911549050059 6.344692191170511
Fe 3.7654371723618376 3.5672730188632418 8.288780789977526
Fe 5.3636880637332816 5.573455699550716 8.212427871868368
