46
Energy = -323.16838678 eV
Fe 8.688651185704336 5.169214311169328 2.9723256449112316
Fe 7.034627596918299 4.2965286548207136 4.35352598425727
Fe 9.159917053766607 4.472405934842938 5.50572311877138
Fe 7.674772397678289 2.409800738668177 5.929516758096825
Fe 9.769714976050375 6.687010685745671 4.3805568478850265
Fe 8.472165263981589 7.266094271321047 2.0930958879975186
Fe 4.973241811187125 4.693947891817045 3.1643703137238646
Fe 4.9717672630573455 3.441075882714239 5.4920812053907255
Fe 7.653935535334295 2.404332124439843 8.291048300972154
Fe 4.261398416192247 7.002741233147319 3.608683227345606
Fe 9.338143801090792 3.9611223005294423 7.775577535051762
Fe 6.671029518812083 6.38819432042627 3.304367724970553
Fe 3.0470572384573344 4.773092123191109 4.413884175630075
Fe 5.461401794435803 2.090755335652353 7.421430524668998
Fe 10.541637731843252 6.103060065380347 6.5944594189688415
Fe 5.379699426462996 5.748728828772927 5.3559725211464055
Fe 8.085262290616042 8.4705091875338 4.056745900183413
Fe 6.044974898008046 8.498225779348866 2.5669541288599365
Fe 7.021626535534566 4.391598863920943 6.733502603590981
Fe 7.783978245992746 6.515518657406199 5.47808569910042
Fe 2.3370880525885314 7.172607515433709 4.874708222932758
Fe 5.966976343280754 3.014198710099924 9.868261823886497
Fe 3.023492549654842 3.2291440301590866 6.80958146911219
Fe 4.949194071067613 4.459910216295745 7.877949893533183
Fe 8.50724353517793 6.2188196451262 7.638270818662379
Fe 6.0136019452649885 8.139349526642746 5.157739068063063
Fe 6.280082317343786 10.375832949614367 3.8943078626277785
Fe 4.046083308051621 9.24805966870639 4.132585374817026
Fe 3.7890416522543315 2.72845743688022 9.076818781018194
Fe 7.3413546259622695 4.791766430827427 9.143429972439048
Fe 3.98931156318925 7.954086908222036 6.3585753235975995
Fe 9.535102206842382 8.268211692435933 6.320242304209052
Fe 5.981221981937334 6.56093314892617 7.514318726359527
Fe 3.347392966452375 5.642967282716217 6.553116758082096
Fe 2.7943751543067608 4.846041535335929 8.857508629417042
Fe 5.282944249294174 10.149911061753826 6.112657621501019
Fe 5.034262890369056 5.262393131487859 10.044991171701453
Fe 7.858235854292097 10.226555307155852 5.621502690511332
Fe 7.372627765894361 8.507383095166247 7.174480380917764
Fe 9.201239798655115 8.016621870282776 8.85488637519784
Fe 6.948127832761707 7.21435676653462 9.528611581382322
Fe 3.9231170303982643 6.93733496580701 8.65726277617089
Fe 9.164777147178341 10.223130987055777 7.747026729113964
Fe 5.335386996782759 8.941275847617865 8.324426026629387
Fe 6.788816866687254 10.906453486168484 7.717882684648902
Fe 7.4417802264085 9.5467965957698 9.497649046259742
