43
Energy = -300.81544977 eV
Fe 9.582559138157421 4.839143509166402 7.987062365593597
Fe 8.985401649878515 2.5417442584637473 7.701593078558793
Fe 9.331476954353413 4.045787480660387 5.596389363264938
Fe 9.936893068791779 6.446995637020951 6.132741266882552
Fe 9.11540713709803 5.63227285969712 3.6353953122880776
Fe 7.383043328303135 4.60243268087019 9.282409387467453
Fe 7.025593987832186 7.002133432474268 9.882021376232101
Fe 7.208853199686892 2.3175333482938485 5.968682204239662
Fe 8.189065237596635 6.726562274092758 7.851373848473416
Fe 7.477696177748145 4.402390764754881 6.917618739753149
Fe 6.675354636486746 2.3865338684460955 8.354358464812076
Fe 5.1569692372601965 5.550621206217951 10.045522819432128
Fe 7.258008524478311 4.122569518681737 4.284564981421581
Fe 9.292041481710067 7.956889176466203 4.237457711840209
Fe 7.689464963202568 6.367517515579695 5.35625519533683
Fe 8.51362533935561 8.630541936457554 6.401139985114047
Fe 6.8424058902677025 8.85867068975238 8.373617217245776
Fe 5.933679803995686 6.033735011336484 7.7127898751806825
Fe 5.0154756659669895 3.973627081922848 8.255767015074515
Fe 4.723198834565294 7.740235089776457 8.854630815591738
Fe 5.355035385514268 4.524636495480607 5.685720237151746
Fe 4.850499497188942 2.3122296346643227 6.550960141301957
Fe 6.407767013361373 10.243204989091607 6.22600492420498
Fe 7.09590601029894 8.835777152309072 4.3536751200413315
Fe 7.0434306817092045 5.101202047050478 2.1394558525946152
Fe 7.468474565978612 7.292288974073751 2.6022109357162497
Fe 3.3723710827684172 5.812969327006573 8.353968048123487
Fe 4.02661521261339 6.959094485941192 6.329295781829602
Fe 4.3678303239690255 9.457377035565537 7.2432097532518345
Fe 5.703366495759008 2.2295647569020702 4.151262592713827
Fe 6.171495474507244 7.943671868127272 6.407617785866541
Fe 5.615112153506546 6.580389071579228 4.249068377205233
Fe 2.423965813802157 7.970741179066861 7.97390293008575
Fe 5.047132118614746 4.251373759223994 3.1612262592049225
Fe 3.482806144570745 2.997051982996392 4.6399241727305816
Fe 3.0318913173828617 4.258704784707188 6.6366840912267575
Fe 5.361512781303376 8.524796827816205 2.609359566306286
Fe 3.377943149723046 5.37673688534589 4.463012504008854
Fe 4.667923589142878 8.935960692562684 4.8039169821790395
Fe 4.9238453346210385 6.350222307154416 2.003294429339245
Fe 1.8280506588558976 6.360467396705131 6.0227828753053885
Fe 2.538133485844451 8.701484408813952 5.765684034795896
Fe 3.233058681236313 7.593591453880468 3.7367736232585895
