42
Energy = -294.71212776 eV
Fe 6.173805662387976 5.587462888709635 0.9523160560220528
Fe 3.983194619163949 6.403922870854631 1.5167456873758818
Fe 2.6998820213496537 2.255696723390566 0.8887950067630849
Fe 4.371364637808234 4.020927181148832 1.497656757988497
Fe 1.8220697544235664 4.4421700686685766 1.58490417701794
Fe 6.088695457688978 7.51806232497929 2.3566197761452714
Fe 6.652069190908818 3.4033144298720925 2.0759325979384577
Fe 7.963201096174262 5.284350905914312 2.475764715141377
Fe 4.78949484716424 1.5458775415356543 2.0961947600824256
Fe 5.681846779460986 5.571467241504098 3.474697348305633
Fe 1.4049646145635986 6.4348670334669436 3.155364887474751
Fe 0.7491654217428443 2.1507157738846674 2.5260705486310067
Fe 3.260036568985675 5.155507754720732 3.375957142316656
Fe 2.643875750949056 0.46370129440591074 2.873248844563984
Fe 3.7179227823982988 7.438932898469819 3.6115110108619826
Fe 2.9293097118346787 2.803907255926872 3.060103133257595
Fe 5.083254520237342 3.294986998820852 3.876177121224461
Fe 0.9287766674204229 4.14810617044825 3.9187406073955815
Fe 6.645929426667445 1.514844306161614 3.683722711040032
Fe 7.368859295545219 3.914130032690369 4.60718177762026
Fe 7.78500683115151 6.867505424193172 4.183966181552239
Fe 1.5864868337631877 1.6803393582480455 4.801058298723673
Fe 5.640164347384085 7.862751048506133 4.918953919714957
Fe 4.1811284594937685 1.2085331098769538 4.618877082051178
Fe 4.14354210939273 5.931095114463262 5.6505276726787566
Fe 6.122167798295543 1.793295301490773 5.9824298984414215
Fe 5.178198409921433 3.8365568201560327 6.143826828416206
Fe 3.276778011575499 8.080273825622033 5.910681643321997
Fe 6.505865107822334 5.733748872742079 5.867145602213058
Fe 1.810276589898508 5.949955464047359 5.53110332082168
Fe 8.813102142124393 5.588648388124724 6.009800711608919
Fe 7.641604331915099 7.943325247506967 6.36030313250553
Fe 2.9820608210367636 3.618588051257372 5.243492319851321
Fe 0.949668027659266 3.6956609052085407 6.310236229720463
Fe 7.283798440467987 3.7926882639370763 7.198890842638253
Fe 3.393548475391112 1.9534000572593253 6.821285778279503
Fe 5.411843483972625 7.53545216097517 7.282349187654462
Fe 5.128170900408193 2.7906338131164308 8.156799156827306
Fe 3.1307975590284753 6.728959369999157 7.792392068771219
Fe 5.27648108010732 5.345270394774058 8.057410316584178
Fe 7.615295385902852 6.210413735895463 7.943406235483474
Fe 3.0675615631044435 4.381219113719245 7.48862444166584
