41
Energy = -284.32351617 eV
Fe 9.80816539844998 4.375978403726951 4.322676120609812
Fe 7.851872638697872 2.9372834366722658 4.1011132644229145
Fe 7.40463930822727 5.117635424446543 4.594185639590163
Fe 7.75359837495119 7.655906459733881 3.916317625568786
Fe 6.280991177653949 9.464000906894402 4.9971761480054235
Fe 9.136021446870835 6.424450675047042 5.515357206004153
Fe 5.291208605360635 5.369606205115729 5.747337711908567
Fe 9.722702728147606 2.100598617313041 5.038135238641854
Fe 4.64618564032954 8.108647586658817 5.96313874879425
Fe 8.901484688499076 3.774701930214507 6.37601920288404
Fe 6.624596747926271 3.259426186512518 6.084267480784261
Fe 6.801783382525153 7.1407160082899575 5.944716810714463
Fe 7.156099453335963 5.161760289873733 7.260217943760152
Fe 7.375163905726174 10.95372451892222 6.593754433138019
Fe 8.53803621290495 8.832017355819767 5.738211822415243
Fe 10.819288261518173 7.961633667297729 6.961313560803276
Fe 4.9684502577218375 10.541349790206674 6.701427839275009
Fe 6.63536095338197 12.637773629853799 8.057883281707458
Fe 10.54477868206725 5.374248285649233 6.912782572234532
Fe 9.103657758191263 12.313683870978949 7.45407362996859
Fe 6.649030598759719 8.821651467373378 7.629254519500041
Fe 10.529056676322613 11.217081700411118 9.04459497218676
Fe 9.04589449379777 5.042451600794636 8.771873852784402
Fe 8.038022621639312 11.197680267039456 9.206920889163
Fe 9.293608073259314 9.84981742685826 7.637669413509661
Fe 11.06830749541122 6.482536580550845 8.979279639749397
Fe 5.066500874618781 6.679119548235963 7.881053905948349
Fe 5.73357153811333 10.573606164821426 9.002416769168704
Fe 3.9992219970684255 8.928103713179837 8.097503846050351
Fe 7.053343215495318 6.581226471260678 9.070756248292758
Fe 8.862549580094655 7.296987184610444 7.821538731808807
Fe 10.461415203166565 8.777191678949176 9.371138914393205
Fe 5.2744900595929485 6.040284479867348 10.413330001892126
Fe 7.630854559463957 5.195865484111458 10.841053603920214
Fe 9.272680199657646 10.29296283326903 10.894812278842648
Fe 6.6120080705331725 12.28867864600362 10.551191241201913
Fe 5.405452513749552 8.316157661545688 9.875850863274584
Fe 6.683700282886123 10.02718278541682 11.229204920136876
Fe 7.937397837823481 8.77491682689256 9.703742438535713
Fe 9.236936976939944 6.886083463906477 10.42264685699165
Fe 6.985482384548644 7.428881641103846 11.477670686847345
