44
Energy = -309.26036647 eV
Fe 4.721603881018621 4.88637882778199 9.953149156672074
Fe 2.2725508034724453 4.312529792985339 0.3665521236673324
Fe 2.742836172447847 6.881776412561407 1.043256549139169
Fe 6.606722219671645 2.9745308299736712 0.5012392919571941
Fe 7.074020732568219 5.330383311663466 0.4764542857741654
Fe 4.200630655313326 2.7759900442684677 1.1021510964286265
Fe 5.213379163565415 6.746836733376579 1.5709705234775249
Fe 3.534398388775862 5.098794822452868 2.112818382254549
Fe 1.1965115987982817 5.536281472412768 2.427781605980952
Fe 7.331955506896944 6.049935960457022 2.8149730745392794
Fe 1.9672720011130063 3.1643771770680935 2.4994422601578106
Fe 5.816056853309254 4.354020110172112 2.194727756841794
Fe 6.137902787876953 2.029926323700323 2.9727002326094407
Fe 3.6672452844208725 1.1902526936130458 3.0694612248654143
Fe 5.8597857319665705 7.974927943793676 3.4905761630907466
Fe 3.255067714866414 7.265906821386037 3.473282136331054
Fe 8.018142641121013 3.609712812218561 2.4436283618782118
Fe 4.186834352475298 3.3004213886348257 3.4753751712249765
Fe 0.5066400629739395 3.8023487127235103 4.492424076328387
Fe 4.92947512288163 5.815034409384398 4.058193026468712
Fe 8.795983957317766 4.629866336839955 4.46163533736676
Fe 2.4592678549573312 4.986466551999335 4.3005321715397224
Fe 6.4817285816563555 4.055881219878234 4.532328646263744
Fe 7.7291413310218795 2.341719581792993 5.188897890669895
Fe 7.356521847788197 6.544168135226837 5.084299385238444
Fe 2.380239442797751 2.3911118809452154 4.931075565652071
Fe 0.9941336365225076 6.108165109400653 5.677501467727827
Fe 4.147575321925168 3.9280705409594727 5.655694205769431
Fe 5.072843855558476 1.743525194652783 5.1746240988776835
Fe 5.267321806549612 7.79398439524548 5.774394585780471
Fe 1.861844649156021 4.124776435308119 6.686691666944713
Fe 7.9067582437682855 4.509722300365105 6.687844807206455
Fe 3.5629945739127193 2.2054855406893634 7.305539846091631
Fe 3.378070982086243 6.3526730151888815 6.102213486054217
Fe 5.744034576050569 5.503451284781994 6.427195330506327
Fe 6.012052449547912 3.053335816689563 6.997355465832855
Fe 4.092891924288017 4.58939624480041 7.813021846671018
Fe 7.137547183858773 6.908027298287085 7.615557711664699
Fe 2.2541098667735793 5.99073410159295 8.243517520422557
Fe 2.4701640078278366 3.5436351762411906 9.107210550383737
Fe 4.747912810291361 6.981538229893771 8.19889103579474
Fe 6.335472538829888 4.915537598247305 8.79031820700776
Fe 4.921799705968705 2.8931199573161455 9.233548356328143
Fe 4.176243886226445 5.33092816324337 9.953149156672074
