43
Energy = -302.02495909 eV
Fe 7.50949091728765 2.614389966442611 4.928905641748087
Fe 9.096245218450408 4.048068811474118 5.921781863696154
Fe 9.030420632594094 5.800264252475096 3.7986833997947236
Fe 10.802354617961598 5.55975108336817 5.320911730834262
Fe 6.797532459735555 6.525470148832937 2.777900232565362
Fe 6.936204366296301 4.8437281854618215 4.558207981383179
Fe 7.335606374352684 2.2679392839209918 7.267470243510017
Fe 6.932041070980947 4.55195562518707 6.9540741770107335
Fe 10.162717439829883 7.7772838538938025 5.677706238370449
Fe 9.035454505019816 3.6922222156053883 8.289579334565353
Fe 8.452665418331526 8.144249003948142 3.9494401696960444
Fe 5.308018685438036 3.1757289099520527 5.434012834282922
Fe 8.30113895571793 6.403047687828171 6.021403729536074
Fe 4.721372448028867 5.14762784778267 3.7852058240141595
Fe 9.558128720525911 10.077769596137356 6.473628949488392
Fe 5.9280075491032935 7.187600584719911 4.955812159970856
Fe 6.30036647923141 8.975170084171669 3.412317357524054
Fe 10.225140566279611 5.786731738462194 7.556562582817201
Fe 5.067140844811565 3.1721648687736606 7.851722666145477
Fe 4.716136089804536 5.341081604166177 6.292362764942331
Fe 6.866633809541466 3.7419655643656067 9.422306269250514
Fe 8.07991587721303 10.568731543215618 4.588340054528086
Fe 4.5644130337454 7.2288375174068715 2.7277050067082365
Fe 5.449407737344045 5.605715716638152 8.639861475972385
Fe 9.02746441501357 7.883166669516983 7.832517891815761
Fe 3.2096750984721027 4.558427817576668 8.16624152737516
Fe 4.577760693170299 3.9620921241727736 10.167469287900076
Fe 7.567027559615786 8.83260042855596 6.028512577173028
Fe 7.463831122517502 11.36599638570826 6.7385367958034825
Fe 8.012996960478393 5.815663717275975 8.761971589416687
Fe 6.383848376232555 7.222098628482758 7.3479140057472705
Fe 4.0491164341183605 8.91095194052665 4.194518204033189
Fe 3.3834765295307556 6.805154261132422 5.0141267884469265
Fe 3.626682079751057 6.183618511227287 10.118893714643725
Fe 5.638355056518979 10.185566549641797 5.521049253654662
Fe 8.320022565111463 10.044059199756706 8.57437667976752
Fe 4.5140241985727645 8.588077637718513 6.542304538171087
Fe 7.218263003678935 7.8895100765561486 9.610969764029425
Fe 3.3790782617668977 6.850058848920423 7.719587813884162
Fe 6.060576983893552 5.9651501805306815 10.778711432152859
Fe 6.110364326112823 9.676441205520144 7.874055607059807
Fe 4.87412612199781 8.065276495763895 9.246302691567644
Fe 6.310279654683987 10.003780520127423 10.065144769762316
