49
Energy = -342.88754369 eV
Fe 9.462287596971999 8.655877097427132 5.372931082008087
Fe 10.323642851543312 6.452923645897873 5.756530325740398
Fe 10.30664594071969 5.576442947034748 3.4733388741216933
Fe 8.80279134984448 10.967834588352364 5.275434823419249
Fe 9.641746211421442 5.29511186339846 7.956213086211025
Fe 8.58167182084249 6.9552097117079725 4.188371760864804
Fe 9.581278172509013 4.166023248210922 5.3596918098151995
Fe 9.03847423394829 7.629643489651682 7.507083976787095
Fe 7.690446907955545 9.347150689638719 3.9109885045429404
Fe 8.19592593346723 9.837755818787638 7.073815175920739
Fe 8.656757717297564 6.590137806750061 9.900630813028078
Fe 8.711866923129852 3.225819498988077 7.42635457818872
Fe 8.596939103786598 5.71027077451953 1.8429401197051078
Fe 7.854170202941034 4.683513107843699 3.7556490454128038
Fe 7.725733255544098 8.889395287629828 9.201355332906003
Fe 7.9881545856771075 5.6183362864284865 6.284660855253216
Fe 6.949164255068444 7.255499213651092 2.573368904952932
Fe 6.002042950902251 5.9751685936070205 4.624508767470124
Fe 7.21444920044242 7.868324168895021 6.045093708147865
Fe 6.377163246945354 10.332979019612852 5.574389150743573
Fe 7.484444219509355 4.543343502564737 9.021499441638696
Fe 6.982702630137431 7.748116065102392 11.05303303285027
Fe 7.238484515467654 3.2232402825070903 5.609856532215921
Fe 6.906105188793085 6.800833548318276 8.30607548943902
Fe 5.642404186376447 8.32687124877319 4.34265841259728
Fe 6.022621235394456 5.162667604160256 2.1557539123370804
Fe 4.529985257935888 7.245344377876308 2.551130510429736
Fe 6.169488361604748 5.662163794239288 10.65241842158593
Fe 5.567701086317621 3.5750302369155236 4.01801259249198
Fe 4.235908752491886 4.700514467037015 5.601083430097758
Fe 6.035390688371917 4.632454586007258 7.0821169755049755
Fe 6.438873754267015 2.3949608771343334 7.817295381396866
Fe 3.789996749457579 5.115711374907689 3.173780118249382
Fe 5.15141704051911 7.852583723450417 9.48249867590611
Fe 5.90971384805274 9.13535400819997 7.584891150738356
Fe 4.907692420637617 6.988931705515948 6.849608151389126
Fe 4.098211470054702 9.3248302479978 5.81410943090108
Fe 3.678865394599349 6.970575320603964 4.785981538859033
Fe 5.443094750743192 3.433842673626172 9.62014490502886
Fe 4.908911345396281 2.272546272612143 5.778880157091049
Fe 3.145964719655539 3.0567105829981815 4.173276462719281
Fe 4.662579418296655 5.52336984356596 8.811230640086706
Fe 1.9425500559314193 5.320238856133181 4.794839291833604
Fe 2.8818351239417384 7.123001856243604 8.905087658170622
Fe 4.02173629614675 3.432791293654563 7.591551098595488
Fe 2.3083104158206025 7.77253525728563 6.532816528664415
Fe 3.60678909465292 9.22947554071084 8.09518374280444
Fe 2.7178836827182975 5.563461460462778 7.148664998253199
Fe 2.133097003645728 3.3545241815892464 6.1422896358003545
