44
Energy = -308.34638051 eV
Fe 2.0355885630455046 6.447802106028616 0.8977284586784167
Fe 3.8213277119808673 4.356536108512397 0.5160810583956926
Fe 4.726420612514366 7.089283587890352 1.2296431038098972
Fe 3.2662715238538533 1.9680307523738427 1.0458693888619799
Fe 0.7158459169873186 7.996824807636566 2.1873403532748554
Fe 6.11541128228188 2.2842735578302285 1.6882227862492094
Fe 1.76399148308828 3.799450636072835 1.7700738562320164
Fe 5.8631926490502 4.923367421940742 2.176758219386795
Fe 2.9400747815636774 8.028880521568967 2.816734974644899
Fe 3.4737130119218005 5.633800364547067 2.4398728337131588
Fe 7.426066445037643 6.767861585278447 2.756273594337646
Fe 7.953997772693128 3.7174219769186183 2.7689820257595956
Fe 1.0248926140600645 5.90084425343373 3.1654685002941996
Fe 4.138167637912383 3.233553065194704 2.588964694017365
Fe 4.728388822694889 0.9304348620485794 3.2501837028142346
Fe 2.293577733533791 1.7709794639267784 3.5617833278782536
Fe 0.24855851643153654 3.5796611529478115 4.175482025304183
Fe 7.346349414722632 1.128725732094135 3.5069511666018416
Fe 5.254820533753231 7.1049456149861525 3.5785131684424907
Fe 7.061229538107262 5.276809249892167 4.472891780693349
Fe 2.3790995257403558 4.146482359087987 4.049150368311051
Fe 1.1865229548693668 7.838546687850042 4.61725496173068
Fe 5.980358254834629 8.437104197332726 4.605857798948526
Fe 3.9848610376779283 2.6306121919043086 4.9566763328989145
Fe 4.163278181155535 8.437104197332726 5.255087036682564
Fe 7.8832287848513 0.6286928671509401 5.909447667819757
Fe 6.146876308230151 3.0469991686659585 3.912417873120718
Fe 4.687298753425022 4.865744363926251 4.295200900490407
Fe 7.883046388060067 2.9282386399421907 5.50030605571299
Fe 6.963999761385783 7.558212024232333 5.20822212438182
Fe 1.8051837354505031 2.6276004258962646 5.942985899268476
Fe 5.804997161219845 1.447074447910955 5.774736376098566
Fe 2.9988187879997317 6.490907526700095 4.740661973027992
Fe 5.804983537661015 3.9198490428001604 6.235229040262886
Fe 3.5616414437680826 0.5350930845554849 5.43313343207868
Fe 3.3730988756978655 4.590558872041527 6.318462846512636
Fe 0.9764929897857203 5.226362561346499 5.806009857610071
Fe 4.032560458872781 2.4014201824854795 7.35440844931078
Fe 6.5820624392239795 2.3707040481102455 7.7095340524021365
Fe 5.157776238442732 6.392910399959474 6.185831884690665
Fe 7.413935046399887 5.473773195432243 6.771623406773796
Fe 1.8987773205891538 4.0452761302456715 7.905947057236132
Fe 4.751868644826887 4.569481244593047 8.169448698389258
Fe 2.6778861130181575 6.671068354291413 7.045086195272007
