48
Energy = -335.92879853 eV
Fe 5.153244651651231 2.325954286901961 1.21631670274542
Fe 7.124016766109559 3.6478997647578524 0.870989387446836
Fe 7.595206537340851 1.5965471010606958 2.033755485751712
Fe 5.2917617157622425 4.994324451470487 1.653070549234233
Fe 3.2185947297507562 3.5757338232834894 1.8706396539757908
Fe 0.86289640138827 3.9922460737419834 1.9110355162094441
Fe 5.485477909931928 0.6856444049235293 2.930531769373026
Fe 8.454337179615646 3.5994650244437065 3.0429177247389405
Fe 3.712217613067287 8.548653907900007 2.548379401111009
Fe 0.4342220683631694 6.203500805278018 2.647537485641293
Fe 5.988306055422201 7.368065323693859 1.882650428995827
Fe 6.06321050417793 3.1531010319847823 3.1974295320287496
Fe 3.766177676742361 2.1731090636675794 3.6143327419927527
Fe 2.8986887562046633 6.011304401563943 2.1032814369760184
Fe 4.353878283675749 4.467825997540455 3.7629235769011893
Fe 7.358138256441529 1.3836945251368098 4.421635718644985
Fe 7.793500165704385 5.708460324469802 1.8971126510968
Fe 8.880862688778993 4.130785737789708 3.8533399629744367
Fe 2.9592369117635506 0.09791700138608261 3.408543719038173
Fe 1.39359062984771 2.277165196732542 3.672508547064082
Fe 2.0437688859658922 7.381433844461512 3.9320472097955825
Fe 4.659303144371717 6.805365993537736 3.6470092870408495
Fe 2.0057514735566873 4.603780894094076 3.8221442589786383
Fe 5.58032525659813 9.112787049300856 3.926321588823135
Fe 6.672465886117111 5.402052132851941 3.8470736520481332
Fe 7.348013212861587 7.572970149719537 3.8613410113272417
Fe 3.2487881850745373 5.963502115760842 5.456106797108129
Fe 4.871514158427382 0.27158461890181507 5.235362286254725
Fe 3.6883691237441436 8.501199840922215 5.298503711480977
Fe 0.46604845939678535 5.893111744940095 5.166750846336525
Fe 1.6895160876502895 7.607187522300829 6.4065100652252065
Fe 5.3447358442313995 2.4969429264807994 5.367530178391732
Fe 5.34108740026447 4.95366441498543 5.862605365240099
Fe 0.7737256421296635 3.3224127188160306 5.743280390243534
Fe 3.1048393807121917 3.47753217554741 5.712491188123238
Fe 2.705667827622922 1.2301744455799453 5.615220279917075
Fe 7.421790317768776 3.58935142640993 5.153301797747853
Fe 7.762982064309109 5.726737229250652 6.0886223292650135
Fe 5.787688214635518 7.325817680176634 5.777506138752708
Fe 1.8058421534587499 5.221219131456429 7.11848878260216
Fe 4.4055516448480745 1.9020523887875977 7.330171433746291
Fe 3.9307429774998086 6.883695552726887 7.417458987071943
Fe 4.075248071444594 4.323996899689321 7.8342375433574105
Fe 6.500151688448878 3.3995285790513514 7.3980824790765745
Fe 2.2155434463148156 2.8766400674112376 7.791384975360164
Fe 8.26242946143228 5.090691089130565 8.12208557696982
Fe 8.880862688778993 3.2828644572298953 6.679675602967401
Fe 6.000475510351644 5.8623379731235765 7.8717875551793925
