41
Energy = -286.45632243 eV
Fe 9.847552856967832 3.6004779420205026 5.434427732789597
Fe 10.371896836394408 6.018328426489472 4.618486269017314
Fe 8.750421576657944 4.323806307479781 3.270026475780356
Fe 10.018433992056876 5.58858680154215 7.094029965084175
Fe 8.303127418317027 3.577413968378348 7.26223728844644
Fe 7.620728501375376 5.548016813191044 1.6819513754506572
Fe 7.421218242930485 3.0072105393984248 4.847194054026605
Fe 8.21764505064901 6.882955417114797 3.562612247263449
Fe 8.835058409800345 7.720885196400558 6.003452260195148
Fe 6.436827075564407 3.3710589191787674 2.5298483506964953
Fe 8.313901867527195 5.325123669178472 5.376676059633159
Fe 8.879358252256003 4.931963962211648 9.165130380216368
Fe 9.249111999970555 7.498293390318735 8.358454837711776
Fe 6.289678898207706 5.165851260596574 3.9273435750108523
Fe 5.30924729858256 5.310879669212046 1.5561865195499254
Fe 6.278815435314239 4.461393773592288 6.376294228086539
Fe 6.016723899578095 7.2298560347615295 2.7573475637071296
Fe 6.271881057051737 9.536458509201626 5.721952300920144
Fe 7.630498392965862 6.0471837697718085 7.51622640866468
Fe 6.896725202317263 8.288480228481639 7.6976842288979475
Fe 6.57557476830026 7.126649953064595 5.471063893778667
Fe 3.9420266683519167 3.998344278416708 3.0662525737866524
Fe 7.232088001512265 6.751145893466793 9.692432501161894
Fe 4.9924106851966 10.045797052880946 7.803805667920963
Fe 3.728313448720133 6.213379547328657 3.316303688845789
Fe 6.331582573694594 4.266446502031739 8.895686886978197
Fe 4.110497580395245 3.8758510394399504 7.073243936896042
Fe 4.476322266617359 5.869616495845091 5.481407290878926
Fe 4.67201553865971 8.18147352852872 4.368136726181655
Fe 4.981148127590916 3.2118688990255304 4.939241149150495
Fe 5.265500767056814 6.082417669424686 7.9637931693503665
Fe 3.824491525709671 9.902843090477184 5.742818957340904
Fe 4.645542531117374 7.956628689603291 6.796597423285931
Fe 5.097822088762714 8.1616307298864 9.395554423211497
Fe 2.628660668367365 4.609349425024667 5.142381495548507
Fe 2.6031084636846593 7.599107295296716 5.553178969499645
Fe 5.205974295970079 5.895755933160122 10.458982337463006
Fe 2.7926611917514785 5.967105630986718 7.2886439651108486
Fe 3.7198093449485334 4.551730945788574 9.234345052355074
Fe 2.7511642207638607 8.682368537102452 7.79663678372685
Fe 3.15882603510342 6.935296263075406 9.402648090158435
