40
Energy = -278.77506573 eV
Fe 4.081645400542656 5.165023320495806 0.2639687017696661
Fe 5.817350320454946 3.6110641206616623 1.3981177121775106
Fe 6.203161353641455 6.123445087777105 1.287113568176918
Fe 3.765543748845894 2.7148181617402765 1.2145725887429009
Fe 2.105908513212606 5.950494753375131 1.6768595452417743
Fe 4.2440897428754205 7.275766712490448 1.6250380299487486
Fe 7.580757130544223 2.4150490263008386 3.7315266940399128
Fe 3.9329376907435356 4.815588975493119 2.496134407143015
Fe 7.746635194543124 4.626661894436069 2.4463349804550574
Fe 1.6998294339582287 3.3809585667655857 2.2513531998696457
Fe 3.5064233736048087 2.8540151456398046 4.0334862174119825
Fe 5.6504796825043835 8.378526801529627 3.4712438242280284
Fe 5.24904826384794 1.7583926524198963 2.5511913276419365
Fe 1.7176073363622844 4.962674726805537 3.922743132762302
Fe 5.818105805199613 3.781155961619955 3.9542158353353716
Fe 2.6769350716869558 1.1171560282731892 2.884674116627392
Fe 3.185807780466815 7.10600511867616 3.6559267304174403
Fe 7.773488444477342 7.112742893496325 3.0316812525079455
Fe 5.75419571943977 6.144372688041653 3.609706186080076
Fe 8.055233737973746 5.040501976811302 4.647054348121973
Fe 1.1856090907979548 2.402457929696642 4.378026098233515
Fe 3.8921135960748687 5.1856589664158115 4.81214450431218
Fe 7.129400249258031 7.397548927081962 5.373887654104805
Fe 5.5435677916967085 1.4809930766155992 4.953169860173405
Fe 4.602020671334935 7.357193691218989 5.6938221907824085
Fe 2.158312170931048 6.456346811506106 6.0341087822048864
Fe 6.07258121979722 5.403249251204969 5.936276620735747
Fe 7.223445759975497 3.187979629523397 6.099960360423689
Fe 2.191310547456091 3.830709958887453 6.111949524482323
Fe 4.741955436809018 3.371234618056353 6.169781427695757
Fe 3.202669823708125 1.6225334860702563 6.061875902151268
Fe 7.949926673633604 5.51390321136947 7.109309986629837
Fe 4.01853793319001 5.401326196755461 7.104712262370539
Fe 3.4739150554335283 7.449297959807722 7.942162813128961
Fe 5.858333193190484 6.827053386302132 7.886401813438603
Fe 5.5364937487465475 1.6849191586835115 7.3990904815644445
Fe 5.950957252871642 4.251437104048809 8.099313212557574
Fe 2.1350835522226235 5.1561288787241555 8.181927556072655
Fe 3.491818769435319 3.221851609428646 8.238469529945718
Fe 4.18187785201881 5.568875669261781 9.365781153799448
