44
Energy = -308.02930614 eV
Fe 3.799978806471133 5.056724552439105 3.3730244650178043
Fe 2.207681343112378 6.014081733806483 5.075455915339339
Fe 4.0141135608600615 10.45186297607715 6.056409588769499
Fe 2.8387676183681934 8.499278804361259 5.522359808241444
Fe 6.404885025192967 10.42864602021908 6.4923708971371585
Fe 4.351745806687454 6.902428935735288 4.675021760322933
Fe 5.998736291211815 5.114241861318279 4.14722672649339
Fe 5.3276394154953755 9.24709915303113 4.231110740625567
Fe 5.470610236306874 6.975734806582411 2.54457637278049
Fe 7.691694337867856 9.586125671776236 4.609090323304843
Fe 8.116920528409155 5.455344652487388 5.392941009816434
Fe 9.140047522080357 6.644294154635453 7.1850538909139985
Fe 3.0429930542288632 8.750938418176796 7.962581559524305
Fe 4.469103127243631 8.769978224980356 10.270991879199718
Fe 5.205154560845366 3.002436292251554 4.129986634905192
Fe 3.4600217298202836 6.558168903494287 7.033315445500192
Fe 3.9901057487980234 4.581230056076433 5.7444599923381965
Fe 4.769454226474484 10.247914550409572 8.385382987524602
Fe 5.075308512270624 7.363273715082749 8.633728338028861
Fe 5.188060887515403 4.8109435617727945 8.303146314170828
Fe 5.1679912826306404 8.433496670629937 6.496991969654308
Fe 6.186802861961302 3.7065884277321866 6.11458469626559
Fe 6.0009539159171466 6.143591181954957 6.596865359436874
Fe 5.334257602986645 3.4232683957098002 10.316384525157215
Fe 6.7612847773597435 9.119448197017702 8.715424924550353
Fe 7.778880744109426 5.853968049089118 2.7956954653319563
Fe 7.689460931410916 3.502790263905244 3.9475046715811595
Fe 6.59622786840584 7.917133297804868 10.750193573756535
Fe 7.305784777987752 8.404473900103222 2.5565504403687584
Fe 6.729796187068801 7.364527074404782 4.657262426762051
Fe 5.392502892044967 5.923036263456026 10.466439385914217
Fe 6.751824366355577 2.8420573435444836 8.400124824223498
Fe 9.036437981602727 7.404519822272701 4.076549268990279
Fe 7.359767315115299 4.594338344675839 9.974708108879723
Fe 7.6076140991242225 8.213072534221904 6.7026248916784095
Fe 7.732742032115614 4.717627373880084 7.612887829208188
Fe 7.395226837405006 6.690312146459424 8.909106542054765
Fe 9.78001760793817 4.707934187114401 4.011102807290808
Fe 9.62524258008847 8.686746070301298 6.051441027060437
Fe 8.48502962160096 2.917014640447349 6.137873433554379
Fe 10.632935187819953 6.37337611026917 5.437730283894317
Fe 9.156242931134976 3.116709934732402 8.624369863507248
Fe 9.587702184283174 5.3700161630027905 9.137669956580293
Fe 10.145390777820968 4.433029383460656 6.756258272679318
