42
Energy = -292.87099476 eV
Fe 4.769409535265944 6.71204988818246 4.08913795632192
Fe 4.983684548992465 9.104246485563415 4.846573067753334
Fe 3.047719067539284 5.603415081280255 5.591536223148856
Fe 4.268874396952558 4.37879102204825 7.232407299413206
Fe 6.969561675429684 4.985927986793407 10.014342064108337
Fe 5.514033002438816 10.428336499625749 8.670719673183685
Fe 8.912849606457613 9.147709574584635 4.86053479687026
Fe 9.166027983125147 6.781283602008434 4.081806233550724
Fe 8.909653490008735 8.116291073874766 8.834182505545037
Fe 5.07958393020385 4.444837791529981 5.0824306704280735
Fe 7.0337812331418945 4.827632286379222 6.967834359330752
Fe 6.948660837341716 10.587441675618603 4.970889526054452
Fe 6.940441783248027 9.001094665911129 9.907214040099811
Fe 5.036747240576055 11.065104565495636 6.269979513008927
Fe 6.933006834525838 11.76671789292431 7.356981689264248
Fe 5.014156214857938 5.711351051715672 8.863152747323076
Fe 4.058112817470931 9.06858085082516 7.036206811981987
Fe 8.915503700972241 5.737220947715872 8.895178992660558
Fe 6.945440636267362 7.957892278557209 4.806832607916214
Fe 9.749002047635617 4.4256445715369015 7.267711620714011
Fe 6.94989457621052 9.089952343882793 7.000929317829786
Fe 8.362321663886004 10.455946584343495 8.688122630520748
Fe 9.82304341255416 9.106169354098652 7.033116890591901
Fe 3.193931031992497 6.768532881271685 7.619449479779331
Fe 8.175843197491751 7.0131685932317165 10.76577255971445
Fe 5.670013994981494 3.341760023653756 8.946761261469103
Fe 10.89957727331927 7.920870178583599 5.2729815923471275
Fe 8.39852891691612 2.5739609067496865 6.4442118189748845
Fe 7.0488856055956495 3.257374600161756 4.600023546721161
Fe 6.955621811134772 6.960962933226381 8.386725546720694
Fe 5.324313068363374 6.887906505769179 6.423934961609884
Fe 10.733647458509235 6.842830905231798 7.675254773951558
Fe 6.972961585046058 5.6824971712772205 4.57272817452183
Fe 4.977014682248969 8.080133353948508 8.824772592313185
Fe 8.035543115153917 3.2698683043696377 8.658326554182528
Fe 6.055571819700406 2.6594610758705577 6.749226207355597
Fe 2.9707030503601306 7.879247800749576 5.297904758625206
Fe 8.588366342575148 6.886050567272351 6.4406365243521915
Fe 10.967376168914608 5.680775501848879 5.6706034047730975
Fe 8.95610536619064 4.562454705061737 5.080850510108855
Fe 8.851673579490363 11.093720766353524 6.285084968978243
Fe 5.737665559758804 6.978252044057653 10.756890249484279
