48
Energy = -338.7228357 eV
Fe 7.161518787601717 8.414559247292429 8.479454569543378
Fe 5.163082445043084 9.673378416493136 8.855408181780904
Fe 4.907185211268267 10.695240027200729 6.582538472170683
Fe 3.7669342614305363 7.5393399346723635 9.203180500209077
Fe 6.207247178220462 9.877493471594518 4.068811652071055
Fe 6.847470834334696 9.334666594913958 6.187485787031398
Fe 7.004280049677755 11.621959277756348 5.725158128592566
Fe 7.1011976406436155 10.969768343613262 8.12328856836302
Fe 7.074235425446259 10.019676079045226 10.390066419549154
Fe 9.096923435616446 8.389579359905547 6.927760703251289
Fe 9.167682622883769 10.762107448365706 6.792167503067555
Fe 9.17923986784512 9.738726095383775 9.074619182904115
Fe 11.13735474025265 9.328351081290979 7.418981773814503
Fe 10.523388277077109 8.529649627283266 5.093244565695064
Fe 8.628252043535534 10.065693135857128 4.5944954163087655
Fe 8.382123597885748 7.90555905264415 10.471826545726486
Fe 7.13764125452072 5.677896373810458 10.48514120071015
Fe 5.865068523567075 7.840489102481345 10.487097223135184
Fe 9.647509558200662 5.875384468763792 10.467061534754599
Fe 10.42085338768684 7.6082704601294235 8.984507397005649
Fe 4.952316451026211 8.045498227741199 7.089796364630681
Fe 3.0695912466969175 9.36411294232367 7.556127214424262
Fe 2.868224807872695 7.035593928603236 6.676673378887577
Fe 5.796274687175464 7.455114206357125 4.508387116699556
Fe 3.8961969389630244 5.3035569410719114 8.102620515391235
Fe 3.6018856708695632 6.418922442099091 4.484192198307381
Fe 5.192273063649886 5.8027509259686765 6.181654475817722
Fe 5.019343706038497 3.4154643230103616 6.6113132617396655
Fe 2.986395735682737 4.637819520963628 5.9596469411635
Fe 4.073499238517398 8.990222702590945 5.145133332283222
Fe 5.101304339288036 4.316234322355423 4.448517928165794
Fe 7.276473238709047 5.4440294561568585 4.783284141833085
Fe 7.1624889052198935 4.6404201105102745 7.142203499422491
Fe 4.6757871494358705 5.618818979507285 10.472265428756081
Fe 7.121792806174752 7.04537440854201 6.558585089588524
Fe 8.218267352527528 7.7769495096753944 4.511486927182114
Fe 9.205338672381261 4.031206305464156 4.533222927996153
Fe 9.186363125894985 5.9528984173072175 6.221436468035949
Fe 7.0847316347254905 3.0891697534587843 5.3458348843934305
Fe 11.199985366279606 4.568633762729279 5.849731830016713
Fe 10.156519775701625 6.239495213723312 4.207363633090679
Fe 5.847208874195752 4.056411937860587 9.015498576736686
Fe 8.379419996349366 6.380017320441271 8.409734846337338
Fe 9.167231924617319 3.535671854973939 6.7901031612403395
Fe 8.306682202353553 4.1164103453089025 9.235684111047389
Fe 10.368842607031333 5.16532184236279 8.222391293740603
Fe 11.262700951592826 6.897845340494505 6.642247795490665
Fe 6.019297699013749 6.403874882894236 8.498194642617907
