47
Energy = -327.77850406 eV
Fe 2.622801362835742 7.364030335586684 5.435631866668331
Fe 5.896537174886573 10.59869927982472 6.680396944686381
Fe 3.0655249741867263 7.7919778863574445 7.79188448361207
Fe 6.68041297720276 7.834927153239838 9.384261894590104
Fe 3.451698566369345 8.680273348306839 3.4482336920281154
Fe 4.28755024636839 8.999460567875774 5.981409481962618
Fe 4.94873488329571 9.133029786854886 8.385700544765626
Fe 4.999477187473146 10.409050057018167 4.132254898230521
Fe 4.235888768694313 10.290672216250044 1.9578725856296433
Fe 7.674762062894841 9.453121399221645 7.749010586905172
Fe 2.402842126222538 5.01544758428884 5.2468325905442095
Fe 6.853851891457388 5.457604238401499 9.850696953918598
Fe 6.937939086539038 9.348433387452868 4.987805432993605
Fe 2.8031355714047472 5.346594845640617 7.616687797157132
Fe 4.734535318118857 4.208068626400522 9.589219421361898
Fe 6.352123602949403 7.942320945279875 6.789828654805866
Fe 3.6351519908711447 6.067137290762625 3.4670494157792326
Fe 8.615875473194547 7.105530494225192 8.356014229801797
Fe 4.781329703696372 6.525644213456947 8.74831926967716
Fe 2.91471261703459 3.1450309536937655 8.603043087647364
Fe 4.673276272673855 6.36677516729786 6.282675687683105
Fe 5.3034923473834645 7.573503585430155 4.325290205923482
Fe 5.944172538315288 8.814954656155944 2.507470063483922
Fe 3.2665403483167097 3.2045041007490256 3.813084241217947
Fe 4.856064632868066 4.251690257714951 7.302557768128739
Fe 6.73059664619279 5.775095982293485 7.461453589795704
Fe 4.690300016715782 4.213345839968182 2.2184413041076287
Fe 3.1337062653122807 3.0131438495326783 6.287274625853852
Fe 6.082688278291751 6.090521829251905 2.67052160247282
Fe 8.565643561141298 7.785807435330184 5.968932808375142
Fe 7.949120024704601 7.692772664150784 3.464211357258075
Fe 7.1733675891292785 6.009105331723646 4.939971740677488
Fe 4.893833574154705 4.572677108800369 4.757862196966361
Fe 7.0497841093309175 3.8976321193628274 6.1426503341959116
Fe 4.860500724902544 1.9688035587504849 7.95873081664318
Fe 9.058843676710115 5.477821900593152 6.473632197845067
Fe 8.736494132768813 4.680671230258664 8.652181519978962
Fe 6.837694151949189 3.290158209472788 8.53547788271298
Fe 5.312058724617431 2.3065240627711097 5.514424164060771
Fe 5.3222698028709 2.110803575241409 3.2178933373729883
Fe 9.045249874095733 2.9368309145416873 6.761534372137931
Fe 6.802725030196075 3.92072419418296 3.556213833710372
Fe 8.40597429981403 5.520565261638608 2.6374777646105194
Fe 9.81266403553773 6.4066420297193725 4.418435469270014
Fe 9.020099775581036 4.060589027163371 4.52157937490941
Fe 7.623194066959585 1.9564378995746765 4.748161840190173
Fe 7.164712678440103 1.4849411625446478 7.019267505615055
