42
Energy = -292.96446824 eV
Fe 8.85141835722577 3.306815344312224 2.0274076854513816
Fe 6.649094996658877 3.820755727864461 2.3050321074620843
Fe 4.371799472562601 4.227269093990039 2.413676791651498
Fe 2.0371678138174314 4.86464805249551 2.5096918777050266
Fe 6.172555717943598 6.178290842278606 2.6221639005101163
Fe 8.571597255001194 5.6457376467370315 2.2909123097850945
Fe 3.7697406826797857 6.2437626724033946 3.281009740743672
Fe 10.069467208406872 3.9743935245100235 3.8609402191969977
Fe 7.958479780206534 2.161992646845782 3.8948904177408696
Fe 1.428473996735358 6.669950797418875 3.909077200845644
Fe 5.586059787596884 2.783568929080315 4.214403738336243
Fe 3.4091405254289775 3.905972537797629 4.473847821218647
Fe 1.1434053984628356 4.256005394784352 4.585326920198088
Fe 7.811649050201322 4.502524478830653 4.226171035655945
Fe 5.208142811926859 7.451721762096455 4.6018403983560745
Fe 7.561811074974563 6.856314771437114 4.507961559712017
Fe 5.519499878238166 5.137702114381447 4.7283585360348805
Fe 3.1410914121443567 6.120056341180801 5.752549724191493
Fe 3.091814916401114 8.373531157716778 4.218719459839705
Fe 9.811859936372294 6.414605420041205 4.17007353437632
Fe 9.248759804560455 2.7461537112102192 5.779977896424501
Fe 6.964518064454466 3.302219042896379 6.159801728408895
Fe 0.44155469839538475 6.011900422423058 5.9310843181761035
Fe 6.560408250936642 8.465479311658648 6.1999764188258375
Fe 8.920899265689055 7.597177891230805 6.3627891930656135
Fe 4.604407360261291 3.9463342932491323 6.499762308419116
Fe 4.109238105378545 8.726915716272014 6.325428052974054
Fe 1.711535839102854 7.988683896585748 6.211828161019346
Fe 9.34266159146094 5.0940899268884055 6.02407082213506
Fe 2.1551318114024225 4.07588948153683 6.737922412877334
Fe 7.207735408170099 5.71297752511081 6.677926893265746
Fe 5.121285217221224 6.570594140761257 7.105954326077112
Fe 1.4518545307358266 5.97230276921655 7.9751705035415865
Fe 8.342048678882978 3.9537490854147337 7.992903044761767
Fe 5.882835047441052 4.2262876531167 8.401088563830069
Fe 3.6481267227864986 5.195820893290214 8.322840019694056
Fe 3.072430518240832 7.5717133263680605 8.128017310651133
Fe 5.22751576727652 8.811309849706351 8.390880830642178
Fe 7.297389104815085 7.66585228691043 8.245390471745843
Fe 9.301483168074677 6.176548542104075 8.17433464896352
Fe 5.096401895823304 6.744157965529227 9.505341400562656
Fe 7.286213620207189 5.7069275566212765 9.412160239230305
