43
Energy = -298.77275674 eV
Fe 5.175206936361084 3.6633136567963795 0.37969346240493873
Fe 5.004655708528939 1.448721058675795 1.4610788283277254
Fe 7.15164984408279 2.455065728237959 1.5015585801612155
Fe 6.908444072915367 4.854964804781715 1.5227500318954323
Fe 3.087119531862756 3.4045973141483765 1.6991783108918723
Fe 4.297836606166091 5.602441439803101 1.8399284494303578
Fe 3.6405977020876845 8.06815546192665 2.1124366727896815
Fe 5.209741094946695 3.4476614151838194 2.6748177380148412
Fe 5.982232833090437 7.522363400263918 2.3682362423522147
Fe 6.213943563328627 1.3853157755832524 3.6729188518100258
Fe 3.6865314683704495 1.8266398972993152 3.5059659839237156
Fe 8.398890024872294 5.698547526169324 3.8291969183727215
Fe 2.010862259606311 6.141533126207198 3.2697648133601724
Fe 7.46274545895146 3.3888479362445803 3.7344683314856404
Fe 1.5037324933619245 3.2290309714412544 3.4757891476854788
Fe 6.004667299081829 5.39739690715766 3.5992471380866817
Fe 3.4106589507116314 4.497923657923453 4.037469751163788
Fe 4.23283673950899 6.925536188966861 3.905181232533374
Fe 5.245501516047143 9.179546995150211 4.028400334087425
Fe 2.8558291845091732 8.71229300207454 4.302304110918136
Fe 5.18779390187823 3.2955787330923636 5.1453803472302715
Fe 9.114796411389314 4.048654250964069 5.510932052299554
Fe 8.570853686656458 6.671011447710329 6.180765709798552
Fe 6.837014172649927 8.943464699159888 6.395100101726256
Fe 7.0431504418566275 2.4917259919626393 6.221795800367558
Fe 2.671572212129787 2.346740181863234 5.490604178165587
Fe 2.6067942012769825 6.640382900904409 5.634065962786459
Fe 6.69388934183358 7.328972805337441 4.792105470842113
Fe 4.928758654826551 5.810994455988254 5.768555726439123
Fe 4.869894209886687 0.9462332843717695 5.560923860750244
Fe 3.3508057117591883 4.362049804952553 6.580407648907752
Fe 4.622882303740646 8.190355329417299 6.145397377850161
Fe 7.038552004275301 4.915406883113777 5.68513828168223
Fe 1.2984593968338347 4.598800288537369 5.396351511480825
Fe 8.138280822703553 4.652839980249051 7.661014735992715
Fe 4.370993320496708 2.33031964406808 7.388217920133867
Fe 6.499666288228727 6.7897338615434615 7.372502494491757
Fe 3.949866467795203 6.384871422062696 7.938994654607626
Fe 1.6189276527099645 5.647107649859225 7.710147798074273
Fe 1.711438657509692 3.1907012295165362 7.690886283822918
Fe 3.6346492448264462 4.177412490995476 8.976832051896452
Fe 5.688046127898503 4.344178617183668 7.576848107149804
Fe 1.4367608486271028 4.410097153291737 9.624176363987198
