41
Energy = -286.02722174 eV
Fe 8.08104134551868 9.005699715152033 3.0871641803405447
Fe 9.911676519350529 8.458026822681473 4.610194897280574
Fe 7.924394811538971 6.897692657320922 4.087877741550601
Fe 5.806606396530291 7.9520553824646285 4.097460754997833
Fe 11.303569022289766 8.166023318491506 6.872048584057577
Fe 7.361135221304192 9.111504887369799 5.270292431833065
Fe 9.074016191962922 10.793060254072236 4.617376951554373
Fe 11.36128032289128 10.32408459982937 5.665169696845399
Fe 8.714796022015054 7.2812997074985235 6.3066157469529225
Fe 8.46088205109519 4.864473482234952 5.815902374203666
Fe 10.645194415239487 6.004762368063258 6.279515809430347
Fe 9.39167954199754 9.599300115074993 6.669457344375611
Fe 6.422819450467452 6.716187819128394 6.078113710324245
Fe 5.04727163705574 8.569271393383307 6.69308993730645
Fe 8.726199421128143 3.430648606440373 7.85755358408913
Fe 7.506803839095025 11.284485970638102 6.428347913360736
Fe 4.878285831778571 6.431925414996363 8.012058401019047
Fe 9.766762451201222 11.825322553631485 6.947708968214708
Fe 6.834094973247422 4.734980907162271 7.39879273863309
Fe 7.107402943014894 9.058233799578948 7.578291035294025
Fe 6.036694052154106 10.849270498221363 8.530920598504808
Fe 11.142089421955442 6.771164929802986 8.808237779825804
Fe 10.9093841462939 9.762297882479588 8.78554596202836
Fe 5.026078639275146 8.452066420303245 9.17837448456615
Fe 5.130671996081202 10.516163590771693 10.66393187451272
Fe 8.56983334151811 10.706845214726647 8.709509892045649
Fe 7.07795913066389 6.901588423943158 8.486058010546332
Fe 7.454837141944924 4.696290513455273 9.759716112491981
Fe 7.154972759150521 8.979104034682726 10.056060147896973
Fe 9.232474076341918 8.205004203670265 8.582470542540367
Fe 9.18208585179894 5.6310046717563464 8.132814239424274
Fe 7.306081745954496 11.565109597502085 10.508653085847516
Fe 9.773570839156285 4.704479715595402 10.178387603310396
Fe 10.856877960975622 8.159375342163264 10.678594411963102
Fe 5.386666149181874 8.532798833655225 11.794006416258828
Fe 6.239379831697194 6.631350217177482 10.67209582778295
Fe 8.866530527544002 6.854469596088263 10.401697735357052
Fe 7.049080423187122 10.140332099942299 12.306524776732328
Fe 9.198859240420207 9.758065710563272 10.875184067399925
Fe 7.852976002842069 7.902043211888302 12.222970572606329
Fe 7.89239629375285 5.437547497010079 11.960625037306038
