40
Energy = -276.63054699 eV
Fe 7.553996819174328 4.681082555690357 1.85293564026243
Fe 7.987222791129099 7.138802911592165 2.7547287897903643
Fe 5.924756039592155 6.206863113227437 1.7070260993753865
Fe 9.242912209558495 5.186224751904223 3.3369845538695677
Fe 5.611520464837705 8.04903222050287 3.0478607244866947
Fe 9.138113473322301 8.894851888564935 4.67170105316477
Fe 8.939983430985695 6.5840472151798775 5.171439427652488
Fe 7.689001557058161 3.1434330219953712 3.615894323240104
Fe 5.510001329765472 3.896801682553742 3.0695638289447755
Fe 6.7804384435101035 5.560107357948827 4.191913822941287
Fe 4.147324992369248 5.940460160147013 3.249614671630133
Fe 5.179208882891067 9.512069312376056 5.119527950973931
Fe 8.67084523384265 4.2475931866241705 5.547412175813324
Fe 3.3290186499822245 8.171169748058372 4.012533514634643
Fe 7.108325421013594 7.9890984760322326 4.910824623725053
Fe 8.533203943583551 8.161008337554986 6.970341150286371
Fe 7.2842172282245885 10.023526088746259 6.251845477953688
Fe 5.033568400592348 7.030055244623538 5.186598801366021
Fe 6.431920632119382 3.3103932775242093 5.582957236600389
Fe 4.564784443869883 4.7280225758405585 5.324673360334817
Fe 5.925155812885386 1.9115916211993924 7.61033834000709
Fe 9.068388700931372 5.6631516063928835 7.543158466973738
Fe 7.799089449774197 3.361616805399094 7.645515128704824
Fe 5.950713996488608 8.016552446966587 7.1813147737628285
Fe 4.150877399054 2.538545389375742 6.111815663356831
Fe 5.3440185031000285 4.193027943985871 7.645638148209705
Fe 2.674893269269174 6.333597088496914 5.421216611575025
Fe 3.451231386606904 8.512082931785965 6.533750558428278
Fe 4.9700251565648506 10.224286879501271 7.3575929203775
Fe 7.538320026857711 4.900524654365501 9.272461110226189
Fe 6.874986571628498 9.57565157948672 8.616255353409336
Fe 7.663284890381838 7.310933997597898 8.926179780735897
Fe 6.861186594281893 5.8214250321131304 6.655381979311344
Fe 5.6650814371331455 3.4735812455159176 9.769221124401028
Fe 3.699412462751988 2.4710777923510068 8.580236580753073
Fe 4.355831355237658 8.309929219334064 8.906693374248329
Fe 4.127994468968486 6.35428657898495 7.345451039493394
Fe 2.8764116770614367 4.328277219593776 7.1216793501153655
Fe 5.60360349323918 6.218357398552396 9.195553950102548
Fe 3.670897017239554 4.880215599892812 9.301853374721146
