46
Energy = -321.74849441 eV
Fe 1.5169239739760283 6.5274765465840465 8.348067602471893
Fe 9.078513233606698 5.722472631210996 3.8054562934043705
Fe 5.144913671829913 3.2147456864916975 5.037940314077018
Fe 1.9157500662056328 4.263112640586685 7.417585906533834
Fe 5.096659106614615 7.833274227149614 3.404676249780791
Fe 3.630863422231891 6.1678989900041685 7.373747787052263
Fe 6.562873814585309 9.434762224847024 4.641362494966747
Fe 6.67906250032852 4.055787121465979 8.114787484691552
Fe 6.854303366947498 1.8268906271811307 4.373617053389905
Fe 4.283397240919464 3.796644356083304 7.636528804651459
Fe 4.057219748837411 9.489246942186483 4.873876505223552
Fe 1.3709553850799725 6.098831709850792 5.966366641488463
Fe 9.021884231339385 7.011950527988622 8.078772109072895
Fe 5.097610362451435 7.881081911627601 6.085623082282136
Fe 8.030512591291313 1.9950880517861567 2.1703433989108514
Fe 8.08620528566379 5.631598751477219 6.431922580868245
Fe 3.8313995298778 10.075864958826063 7.2578693294050005
Fe 7.195632423463627 4.477650036962793 4.403792203429324
Fe 7.9720795609799175 8.372113914852147 6.31918432159272
Fe 6.664061868825188 6.019009644407762 2.3434215218894865
Fe 7.593894368590889 5.715911921004256 9.550024141942997
Fe 4.740216583127925 8.267255122309393 8.538163381224404
Fe 6.577515840665911 6.9611888956454555 7.755827543024614
Fe 8.809164916243917 6.8740006085827305 1.7476468661614308
Fe 6.136463926759036 3.416598953576098 2.675992277651404
Fe 5.594361344865253 5.27482838434369 6.201349337420464
Fe 3.392019288625224 6.816205880512455 4.806824759427682
Fe 8.257281905090567 4.44541044617877 1.9909969261893277
Fe 3.276687369206926 2.2909687781671435 6.246504123259013
Fe 2.324683558683094 8.854644543059356 8.797142803133754
Fe 9.021095295679975 4.3452550908267344 8.11574467202654
Fe 5.211932395285804 5.715390974881115 9.201950253842316
Fe 5.770308789222395 1.9457729258601115 6.906387205242806
Fe 8.913685108470709 8.340476824631965 3.9703719387692074
Fe 6.922305760578385 6.901157117954726 4.679596507338146
Fe 3.0417027919911948 4.644233012397058 9.50376511125029
Fe 4.9677308917700405 5.338175926606737 3.8447110698987257
Fe 7.190467427640363 8.423257691394655 2.462859133699991
Fe 7.7603760274634155 3.073664896124308 6.200152486270696
Fe 9.837923054319328 7.000954573537097 5.672177456728521
Fe 3.1566140562732823 4.524115717796836 5.390428967030274
Fe 2.5475356230334807 8.204835009303713 6.548353052740129
Fe 6.177511994685459 9.737334855365223 7.083334510201436
Fe 8.977393470380363 2.9944059621180585 3.8340278100993785
Fe 3.26616999100055 7.020122923288697 9.877079587627367
Fe 9.834720152008105 4.368914779680509 5.704229709333422
