40
Energy = -278.65784705 eV
Fe 8.849684753465137 4.725211609993411 5.988048553433187
Fe 7.333836469123822 8.580096115747793 4.873246147239481
Fe 3.227766914533499 8.385219494241442 6.2950410251413595
Fe 9.402652354519514 10.44568117158961 7.676794395019813
Fe 8.779294989623434 6.350082682717392 10.35147879362383
Fe 4.993674238691619 4.985916854502744 6.356514159691122
Fe 3.1318662938911834 6.088807726412363 7.865960593065695
Fe 5.616339696866122 11.527235380017279 7.417023377298842
Fe 6.711423478714846 4.218966504074217 4.866968225779827
Fe 7.544679496449598 10.655483531241478 6.179057767508708
Fe 5.211669741630592 9.35516407542372 8.532234613030353
Fe 8.734728059514731 4.6482457278335145 3.61224839482051
Fe 7.32942854906498 8.53722791655732 7.294959034101275
Fe 5.107980043074056 4.986917702442302 8.905343774663292
Fe 5.160219527247359 7.365174415766134 4.8107877439135285
Fe 3.5367222102634477 10.561369794091938 7.326054836096369
Fe 6.89827713901446 8.333109716189732 10.106976167726224
Fe 11.035646915358726 4.9736857064633675 6.887809930489995
Fe 9.481376687968693 8.91892850972297 5.947682346710835
Fe 10.86721071717209 6.481972486051692 8.772691105151605
Fe 7.103876219762539 6.486240323842959 8.57226323840268
Fe 5.07625766772149 7.22996449562393 7.273706030107842
Fe 9.122270861621077 6.793906847752258 7.086639044834677
Fe 7.288727060824825 10.396258079771616 8.733387014044974
Fe 7.0165833141202505 4.3187466629844105 7.476590700739621
Fe 5.401810470763756 9.42809675313941 6.061058480049366
Fe 3.022743783097716 8.42971564036995 8.581727528075849
Fe 9.023234942679876 8.364179149830568 8.99831680364316
Fe 7.082814666901573 6.37204804673001 6.039819827896682
Fe 9.164119125540461 4.84174815987736 8.573805781430972
Fe 11.06972772038741 8.64379185833602 7.804432615820989
Fe 6.961895042563912 6.305044350861044 3.622058227277512
Fe 9.07176032363054 6.7901759145217655 4.788472428058546
Fe 4.713069081931457 7.164331023768968 9.715653633457794
Fe 4.873986282677953 5.182680935890873 3.811727344714869
Fe 3.2169760262111446 6.148218256665918 5.427290032161025
Fe 10.837580737285363 5.235679996360882 4.504853943123925
Fe 11.316305874383824 7.051413463022352 6.064292771598022
Fe 6.4541393173089014 6.117205183477671 10.969323643022305
Fe 7.22914258439915 4.251065959510581 9.870021687347727
