45
Energy = -314.23936272 eV
Fe 2.7792918941219336 4.2950472928006675 7.577509252660225
Fe 3.2563504783556407 2.511099788597853 5.952170417803907
Fe 4.366623785434015 5.440655036965058 9.058781259328892
Fe 2.6901203976907686 6.706063495601278 7.433794902725381
Fe 2.808266701468935 5.00563719982348 5.392340253586288
Fe 5.082320294701086 3.4947121503807597 7.405248271308267
Fe 5.464440061561149 1.5527465041135569 6.543509338052026
Fe 6.188727745913545 6.580833684820705 10.347260184005432
Fe 2.8596257209545652 3.115946576537883 3.7368295508108997
Fe 4.364108502458523 7.919747802997141 8.95601987936276
Fe 4.555506182701137 8.315727856273645 6.48250698442119
Fe 6.743807706392256 4.783078275219014 8.591362095071082
Fe 4.753413185615745 5.930737472216834 6.77634494750692
Fe 2.9757369949544183 7.344924297168883 4.987960740668361
Fe 7.424232859197516 2.8488876981711444 7.198355984046109
Fe 4.74299010102623 1.7747060836569097 4.1918952842947474
Fe 4.968215323271374 4.045224843954165 5.079287924799316
Fe 7.875744848290013 7.70096321024722 11.604191842632632
Fe 6.150068937622187 8.863930852760324 10.20971173092476
Fe 6.183520486835747 9.467164007141603 7.894080833449968
Fe 3.485456266142155 5.32161917669722 3.0608554076712546
Fe 6.459506543123282 7.132403772448375 8.08121307578253
Fe 8.182671649063328 8.293194955236567 9.292721709104303
Fe 5.149879097096807 6.36095621347112 4.401383403360651
Fe 6.500428152691499 10.03948689316315 5.5819074405236755
Fe 6.992206702197239 5.097344353470967 6.234681752519374
Fe 5.302989195877177 3.714088763137618 2.817667106108505
Fe 8.40796645105754 5.968657210309063 9.750259220774533
Fe 4.992832736242426 8.802782733662433 4.123913608684104
Fe 6.940411097886158 2.7634257167426863 4.839851392390253
Fe 9.086623910864057 4.314486746447937 7.8239800005036475
Fe 8.658064660282742 6.5464919727198225 7.432133059710591
Fe 8.27222081080434 8.952668047526164 6.913560740504381
Fe 3.664737114724458 7.660376460294462 2.6041476915114012
Fe 8.908123086887166 3.9698782418838015 5.419727668816465
Fe 6.814330067257604 7.581017329530277 5.666599302742972
Fe 10.294972022991342 7.8413022959537395 6.195031660747684
Fe 5.635403695262444 6.051285584386468 1.9783224160850943
Fe 6.972073723980281 9.809755921956016 3.2355545547162587
Fe 7.182280477132592 4.949000688644307 3.825536139275657
Fe 8.698684489527066 8.829642549011803 4.502587547814463
Fe 10.626251736418974 5.515958997049316 6.212191708260857
Fe 5.7268548341720225 8.417125532308805 1.7506467045169365
Fe 8.993129673135615 6.428461862205392 4.989664387698521
Fe 7.294019587077025 7.367838502937037 3.249241449215638
