47
Energy = -329.48205677 eV
Fe 4.333639897011379 9.756910474168821 4.302269888208942
Fe 4.494065186252553 6.555683636156925 9.855792566810095
Fe 8.653441219718946 3.383715455878837 6.095218057071747
Fe 7.817936513283891 5.96654941726438 6.0087323942419815
Fe 8.194401041222688 6.543286863437219 8.296202052628583
Fe 6.694198487369696 10.476396106503916 4.458550759406925
Fe 5.2813298467658685 9.961469409107849 6.485445406567011
Fe 5.810645835328134 9.311821385112491 2.523754383855074
Fe 8.786978992590754 9.486594109402041 4.8945740681372545
Fe 6.764997168064407 4.187681135655556 7.38583509860999
Fe 9.313139689886683 7.145347443050817 4.5593977913079575
Fe 8.513866674086154 8.978969973643682 8.81172600184138
Fe 9.346992009371036 8.039733724880874 6.776598002361398
Fe 5.127973088635151 2.21700633097511 7.95904705761016
Fe 2.3515525015332215 1.8838254947888082 4.105865639570268
Fe 8.821654233393785 4.184854897896016 8.499724623463948
Fe 4.385247432106564 7.945749076076074 6.019724090288301
Fe 6.809581872809026 3.129851486888294 9.63102022973868
Fe 3.3716332732606573 5.963776292565045 7.374181089183488
Fe 6.058085594796174 6.863517192979343 1.9385657211408753
Fe 4.644470009973674 2.69243928369749 4.005116668609288
Fe 7.656833369978059 1.960029004986312 7.7719900037356355
Fe 6.298850371380597 2.0906470117267872 5.798581306030037
Fe 6.295275516706737 10.03874950994508 8.760270161382564
Fe 9.200987585610925 4.788502783876609 4.259191122491856
Fe 6.58419863043134 8.170619462272565 4.666985750634364
Fe 4.544033090535985 7.574187913468584 3.5667461860961005
Fe 2.348567115844923 3.8390199092353527 5.531339971382402
Fe 9.992534841941625 5.517075295243313 6.566188830443796
Fe 6.56844058258215 7.875720272790402 9.665679107707989
Fe 5.107969283944002 4.980661142381802 3.3117771808269896
Fe 6.875374882025513 8.26769978590459 7.01301712373781
Fe 7.269615197466912 6.132650820695456 3.5299506555749183
Fe 5.56804149481054 6.081029768354728 5.368229776344798
Fe 4.548013590141221 8.412257177006067 8.339193384752633
Fe 7.846477158123401 10.366966667352765 6.927813193248364
Fe 4.794842040590106 4.401045766143407 8.809741246425068
Fe 2.8576457242337887 3.5587114654426673 7.807875773380889
Fe 3.212679456815161 5.946569653056758 4.792681915510438
Fe 2.9159823392756143 4.129154066522028 3.2506934089192683
Fe 5.695418130754819 6.333883613492712 7.739346790313395
Fe 4.669704268512256 4.11887303782954 6.162417603980723
Fe 8.009121993069858 8.446202343967533 2.8410356175967526
Fe 6.803841765934424 5.420280023927761 9.872860198551995
Fe 6.818983385485549 4.008165474849514 4.68132006937456
Fe 3.7279367050449523 1.9384507424956303 6.08425164982604
Fe 3.4655507523752034 6.180417937978189 2.146230222152307
