47
Energy = -329.04041871 eV
Fe 8.083351562530643 2.7124051569737744 8.683962137822855
Fe 8.95938737994351 4.133799348081327 6.942210268962098
Fe 7.3813327507796425 4.693073764270187 10.60379595117564
Fe 5.730078077232546 3.4376881833300863 9.219346232196232
Fe 4.141746943699506 2.831477871946703 7.256958490002765
Fe 6.542445959970189 3.0734416498089177 6.893698159872438
Fe 8.228933329449653 2.544080037380597 5.382611666734763
Fe 7.481735787047547 4.932536767219652 8.430426946331313
Fe 4.750600708381336 4.135097055612975 5.397471020106355
Fe 5.494034234794215 5.9051636798374245 9.788700829714463
Fe 10.62177660198306 5.62830955230806 6.201033283567486
Fe 5.601284287655567 2.0193609943720654 5.033431031298978
Fe 3.5450322534914296 4.584743225576817 9.049753171652535
Fe 5.206838062025743 5.034280897055076 7.54721227767257
Fe 7.776878224293719 7.044405712115414 9.61319972108738
Fe 9.158241644426383 4.605265702670049 4.474904768942789
Fe 4.433385038091977 3.5268355103327167 3.151020191338514
Fe 7.07509961284624 5.286932390293487 5.751457453888655
Fe 2.9430954884301 5.159695092788681 6.717175504448017
Fe 6.840874176510146 3.8384584202258933 3.8933469974705286
Fe 5.5942413121523265 8.267738455002975 9.238779371095625
Fe 8.696384094200283 6.663963621730241 7.1596882209716775
Fe 3.0272031119061076 5.410805230342533 4.410049441023146
Fe 9.711030837931125 8.282400610328892 8.405862710530943
Fe 5.358484018775106 5.886598135587376 3.7523989928172266
Fe 10.637607291772715 8.011152017450598 6.211004310492995
Fe 7.558970297070377 6.243142804641833 3.0481346103991576
Fe 9.162243654154524 6.950321942052299 4.715565751698734
Fe 6.805318878961584 7.566627496607497 5.1791291365136125
Fe 3.79046720744213 6.970117422422746 8.213032635201763
Fe 4.665416263474235 6.655927545767108 5.878494811442967
Fe 3.7309839256145354 5.449306673961972 1.977028289582558
Fe 6.392988939933909 6.940121336124127 7.574681888585895
Fe 6.112114309160087 4.4892356206232185 1.7150098485357046
Fe 8.498227969837426 9.057357327197993 6.113513395428367
Fe 7.611853487702065 9.210577783339257 8.394277392775399
Fe 5.938356989116647 8.38329945027411 3.1043421825524744
Fe 4.8264065069221225 10.432266044422423 8.563031202915857
Fe 3.322938185420783 8.843739826119299 9.538610441620364
Fe 8.278724069316993 8.771504153337123 3.541908438436632
Fe 2.566419882514019 7.46623936163163 5.686072913284179
Fe 4.383978050454588 9.054243207851323 4.942321097426622
Fe 5.617726952920968 6.73852777242308 1.425143032193564
Fe 3.3999749812416 9.132649182151889 7.214547337012585
Fe 3.7043317088477465 7.517025500566109 3.30382743108826
Fe 5.814715597729056 9.09003760791275 6.852249327607842
Fe 6.6648666576370905 10.067079088118348 4.8452474498990235
