48
Energy = -335.70420745 eV
Fe 2.980349610109867 6.9860651903035125 5.587421664177235
Fe 6.916735934600577 4.94398460111529 2.9828842743456225
Fe 4.079095749550192 9.720161995554063 4.705815024160876
Fe 1.1649992249803847 3.9194022944209297 3.6852986924889968
Fe 4.289692734398191 2.142623178661702 5.235273334185808
Fe 6.572954744497605 6.81975507016109 7.5509120437689194
Fe 5.316803049993438 5.108372935709402 1.3486316298369538
Fe 5.705279584186644 8.934158033046662 1.7251633918262936
Fe 3.353171654500423 1.082243197220535 7.121963531663904
Fe 4.244563915337669 3.4833644350569037 7.208560006026823
Fe 2.326420549373177 3.073875932213168 8.519988950897591
Fe 5.872102822877276 9.720161995554063 4.075013610754944
Fe 8.644139132423316 4.4182398685809865 4.501446935006461
Fe 4.186154001944394 2.75866615967157 1.1246101677007538
Fe 8.632977203253267 5.305633310636103 6.7063733743871214
Fe 7.274085875072217 2.707967688242559 3.60419311561192
Fe 6.485168098085593 3.001691816614172 1.3931494359702745
Fe 3.6857262477683133 9.306136726711122 5.906302696206579
Fe 6.003943669791364 3.8762407328454986 5.279122786820242
Fe 4.876121583878945 5.671073739593099 6.34714348932535
Fe 2.1636732316449416 6.38716871220722 3.483034471700227
Fe 6.60022339601959 4.321866999778453 7.569051154887726
Fe 5.154924371472817 1.2370109829210898 2.8777656212559704
Fe 6.3515669292929635 1.03588577048054 4.986941414930681
Fe 6.004682415907525 1.9319954341763221 7.1464463788198564
Fe 7.075214438599042 6.078832682062901 5.239424014497959
Fe 7.9676942831900766 2.810330224844483 6.104222839425637
Fe 0.4315264716489452 3.8504562066175954 7.447432577175473
Fe 3.8738992283637863 8.356454569471953 3.6856825045547987
Fe 7.211757820409156 6.760902106176446 1.3295557385319534
Fe 3.013045197929062 4.629595425777396 2.245267113831761
Fe 5.424080642009713 7.902803717070667 5.547382455591289
Fe 8.650384568939732 6.7601664295787955 3.403195900045013
Fe 4.708495295246522 5.334060693497605 8.72862569131177
Fe 1.8969377580005853 0.8093870938283945 5.118483435913107
Fe 4.1416622324457 7.5036384080715735 7.6941631872051
Fe 3.2931712051718462 4.4673285946008665 4.899115678457561
Fe 6.306621740931821 7.391738454709144 3.2742512964017108
Fe 4.08308574156846 7.056292925790217 1.7681798890279388
Fe 4.981550057867218 3.5249008030090674 3.2031240068141016
Fe 2.855178819903973 2.2605468028213602 3.3586279925469746
Fe 2.574215501051645 5.257653341163383 7.33377319538823
Fe 7.921031128308436 8.992530981798444 2.8004025946627227
Fe 1.0089561096496265 5.361435466081246 5.527579562328821
Fe 1.0391116933609021 1.4093770032452837 7.4603929631953525
Fe 4.692283416807868 5.921154996126213 3.867174573237921
Fe 1.951205394830391 2.960912184721951 5.938811431590342
Fe 7.824080368867231 8.287349512991856 5.163369007568011
