41
Energy = -285.334859 eV
Fe 9.503972362513943 6.64193731790098 4.303033538797529
Fe 9.540390000663429 6.1019722196953445 6.706283276974814
Fe 9.670442641991217 3.9428345936658915 7.300924219604748
Fe 10.009915989035877 3.9438969337816925 4.82613857414703
Fe 8.74110480182194 4.692202896105226 2.8006990140446875
Fe 7.648284631828694 7.127619555466644 5.758984816811629
Fe 7.95651809858753 8.797964002285457 4.12485063125908
Fe 8.470970052171944 5.273203333959998 9.158032295677996
Fe 7.297614432816736 6.569906191080124 3.3226285212747575
Fe 7.98272094775254 7.355352722151087 8.112340292694789
Fe 8.052010997300112 2.612526782906291 6.283609250241923
Fe 7.993060551939344 4.846541559158808 5.044257082570799
Fe 7.900390469322879 2.926214004947196 8.674649523281232
Fe 6.581069724714358 9.31708250524561 6.340861266860691
Fe 8.00962667446637 2.680839010684843 3.8996407076678503
Fe 7.245817780827655 4.972789151141791 7.2617869204014145
Fe 6.400095084231257 8.634664278078551 2.3388136945955966
Fe 5.023017566527759 6.545212667666441 2.545827136297524
Fe 6.062544448960909 10.281200289277834 4.262746059653996
Fe 5.625560781898163 7.877243942941313 4.604863853016688
Fe 6.0629684510330035 4.201358994501958 9.528879239931676
Fe 4.932646627332645 4.8161728778731145 7.365950342301311
Fe 6.295325723121997 4.335569141275647 3.076355553533559
Fe 6.072979114703654 6.4927507486613605 9.247037085078118
Fe 4.23981362100318 9.203906861278474 3.1514805386208242
Fe 5.62418753075989 5.5967781491455595 5.088188228357625
Fe 5.628967178561445 7.254856990222801 7.127469337716897
Fe 5.834368532773328 2.5572207410466574 7.578597793632959
Fe 5.984666691291877 3.3266696522765855 5.298716453454179
Fe 4.089583250871317 9.16899626712968 5.720823235827973
Fe 3.246531078414883 7.2033398005172335 3.9769961317317604
Fe 3.5603259269227268 6.483089439347912 6.249557448095317
Fe 3.593623079238716 3.5815647541296007 5.909449280806064
Fe 3.8420016168681888 3.3744847780156237 8.76688597685537
Fe 3.7601247550197963 4.79607306212305 3.8700538593234928
Fe 3.5754190858048167 8.285715132005517 7.880891476142755
Fe 3.648949462873131 6.041684933442241 8.843328698585271
Fe 1.9289980143205772 8.033798205709955 5.777948353319477
Fe 1.771667831834402 5.499515282837606 5.172733670590609
Fe 2.265718821326184 4.686750585417502 7.464248041391134
Fe 1.5088551475854473 6.904125600645487 7.824819471546912
