42
Energy = -278.73998169 eV
Fe 4.4879207459433825 6.178980299753067 1.1055139607229691
Fe 6.533820140379407 5.123308177132923 2.1101846638862565
Fe 2.3691405650004786 5.558685174514883 2.293786114711536
Fe 4.2635637529457835 1.4384998020736295 1.659416011545177
Fe 3.415761969543322 7.938744686088606 2.2838246909221196
Fe 4.331805397806249 3.8496354249915257 2.0112218597663
Fe 2.26675050662162 2.4346417588448053 2.5872239699530977
Fe 6.072754066297418 7.6968078588589846 2.6802394610636253
Fe 7.0187909953424015 6.005502361524642 4.49656002217633
Fe 8.164177893034507 4.005612596904394 3.581359234588309
Fe 4.550898180002754 6.062669538804933 3.383726825636436
Fe 3.0737624723435766 0.35008964932376 3.5333291504403133
Fe 5.739725025778956 0.34448762955231166 3.5154237653090092
Fe 6.453141504214077 2.5359930441853975 2.528167815234991
Fe 8.319634752058688 6.600521463000443 2.7371708728130444
Fe 2.5528292665874788 7.0096180857007635 4.340372593370275
Fe 3.053445574920748 4.17232966731055 4.002755152208195
Fe 4.35326812550553 2.1494408821289364 3.8306857252149786
Fe 4.464233020932792 8.862438711479973 4.191770862100666
Fe 5.634227139387147 4.127229158003779 4.192108355047039
Fe 7.232555244817417 8.334898750826186 4.680590708213581
Fe 1.1003873326529408 4.885490049020508 4.732536519834178
Fe 5.165275045064079 7.106768906510298 5.391551328225106
Fe 9.169470289826183 5.9460017455248755 5.0935862579103715
Fe 6.634162851115916 2.1836504182571503 4.961812287724891
Fe 4.7101359611444815 0.876177953391068 5.810369429669744
Fe 2.312555680150676 2.165154401297119 5.170070939618491
Fe 7.9437315882417625 4.1138479555231005 5.996275351446988
Fe 4.26551820635482 3.1786548414467863 5.975454739113249
Fe 5.849805602217362 4.930192072600064 6.4072540872783055
Fe 1.2942702140226827 6.55234881806889 6.413368452054929
Fe 3.49966954089223 5.498401620459609 5.9939051399514875
Fe 3.2735974042331493 7.956787682778578 6.6101278144292595
Fe 5.767190514911932 8.814972096622245 6.677505573289538
Fe 7.282911753713134 6.744078606019148 6.765985275607352
Fe 6.062719300148378 2.69888081954851 7.309166296074504
Fe 1.9902481784225703 4.0057072339594555 6.884587511864993
Fe 3.292551253897258 2.0403757229823167 7.606691192637894
Fe 4.936403908466444 6.713189850312768 7.863306392029004
Fe 6.610072732603273 4.953439287536158 8.485999004127192
Fe 4.248400153717091 4.265159384491639 8.197663633268652
Fe 2.644227212548927 5.996096876455356 8.312862022731071
