42
Energy = -292.67913027 eV
Fe 6.269518909039461 4.0346665093572724 2.6302139414077623
Fe 3.7309945023266704 4.813502275632626 2.956039055984376
Fe 3.537578321596407 9.603424090790822 3.125725283023185
Fe 1.9671261133384006 6.1461449311032545 4.065263484654162
Fe 8.098206997848209 5.575416396739306 2.848649830920444
Fe 3.5071727864507327 7.212264694930098 2.6647686121011542
Fe 5.682991375603751 6.230044648988124 3.1309590761712673
Fe 7.586535763875521 7.788848233730162 3.9102862061877706
Fe 9.452757133231868 4.212113483880959 4.163179473050415
Fe 7.41098037106296 3.1138064158770202 4.479400278557052
Fe 4.970087474962035 3.839921707758805 4.660381098892115
Fe 4.314699787510966 9.901362014260727 5.472329433303681
Fe 2.5782298763398477 4.107714578566842 5.042057646987869
Fe 9.219773932603955 6.438115718201536 5.020978579558622
Fe 2.923387546393038 8.188322775330862 4.910295211843447
Fe 5.188449644537664 8.361952807937522 4.104435521024956
Fe 2.2623888879441596 6.192328867436885 6.448148917530964
Fe 4.392737867414514 6.10996000096888 5.221580448843631
Fe 6.9620579427842655 5.38805387221941 5.051828140433445
Fe 6.890903017307226 9.713559789194788 5.2782923240453545
Fe 10.797747171674722 5.069507482916325 6.154222301383148
Fe 4.030802718708696 7.913000389765859 6.9765526755146805
Fe 8.73514915808726 3.9535687621549838 6.4384731055435065
Fe 6.309028429311867 3.88470289330672 6.757781280125769
Fe 8.262939788916617 6.162538048434168 7.184335536580485
Fe 8.783134728289737 8.481186552503834 6.194491992991219
Fe 6.289169234604722 7.664935119056138 6.183406029722986
Fe 3.4021379567223957 6.1367285828951985 8.623222332397852
Fe 5.691925617753556 9.708917303147567 7.4190722347182865
Fe 10.712483428172 7.228113855897878 6.976371861110458
Fe 5.790596831346087 5.960312417046357 7.723173467752318
Fe 3.888619520319675 4.45766211060478 6.989100156911368
Fe 7.683994339827503 4.3178176447704075 8.810281205856539
Fe 5.2317146176626155 7.932930061232748 9.017795413484235
Fe 10.05348604205178 5.1858918840300765 8.396287924418072
Fe 9.495752931896632 7.318638817438283 9.010034353133008
Fe 7.487028366483673 8.307920400635375 8.136152997153612
Fe 5.115958379051704 4.065949073009886 9.048287501939678
Fe 4.9984309465881855 5.9875731729751624 10.289941730452
Fe 8.997608565828829 5.247752120757044 10.602807086893906
Fe 7.279799731725343 6.394938702854928 9.729200853678751
Fe 6.792129454489644 4.424107003345549 10.93041160540049
