47
Energy = -329.67305589 eV
Fe 8.01053891066753 6.958901870970641 2.4808037208106937
Fe 7.047629333286328 9.046233781282536 3.860882556869331
Fe 5.664854359786794 7.612000731726968 2.6122456364437485
Fe 9.283478814976052 6.41295152358763 4.365764567953176
Fe 4.961629582559322 5.377793947738308 3.2662088878916764
Fe 7.65085364340922 4.679405049702596 3.311655263473784
Fe 4.629466376436172 9.572749236565963 4.15965879695735
Fe 4.180253750764608 10.030092898027931 6.511584099438124
Fe 6.780197952635868 6.521760970947771 4.510461062332411
Fe 8.129421722554795 8.089278050588478 5.754049915292383
Fe 6.485974913533293 10.28485839627775 5.9390209642606395
Fe 2.991173063506597 7.913254410943678 5.9801249374904355
Fe 3.669933207709385 7.3637904736510205 3.8452519526292424
Fe 7.67549053041454 2.4409226507836244 4.3387657128053405
Fe 2.9195673733760645 5.344607201671905 4.946387801325652
Fe 5.82734593791824 10.170437822173245 8.37157044340949
Fe 5.537303487460826 8.07278428344704 5.623276150570406
Fe 6.770869497923585 8.174665277458292 7.587639343389625
Fe 8.37146114059527 10.096142169397673 7.352650679085931
Fe 8.767650572925096 10.457805091587906 5.0300696747111475
Fe 5.932256857862895 3.1072378751108283 2.852858354318956
Fe 3.1698506869228047 5.651468293424002 7.691169024080706
Fe 3.8103311701433316 3.3130297796054005 3.830844819031016
Fe 9.392782030005309 8.69394018323783 3.555291623228572
Fe 5.95247591057468 4.2275012307022894 5.1526208248112395
Fe 4.283615717050365 8.078838686236733 7.884717941435228
Fe 4.7116563516142485 6.046265176760785 6.097312795412793
Fe 7.773116422731152 9.224786117779006 9.570306949377178
Fe 7.034545529442955 5.964714111299673 6.685094508049798
Fe 10.286082173449138 8.640353167443994 5.768611950173961
Fe 3.0293797494052783 3.387025680768941 8.457182200036236
Fe 5.637548145105944 6.332544418367677 8.56397392563316
Fe 4.106029800126004 5.222116559244733 9.81750337465669
Fe 3.819544766294873 3.537480496453277 6.232468973278818
Fe 9.455360197442895 8.172691466484146 8.055083695874865
Fe 5.7158874804079565 8.205140308207742 9.904449697675693
Fe 7.938231789676302 6.655973832268801 9.086679680744558
Fe 9.481100992357923 6.218638627751483 6.828459918560613
Fe 5.368798038969321 1.8888017015696303 5.024012504615559
Fe 8.454594707377069 4.388056429143417 5.556294827409243
Fe 5.497472811966867 4.139735040655603 7.778056199376101
Fe 6.580995786459045 4.653738758887721 9.968071547394475
Fe 4.844933187707884 2.919987853041209 9.83200261548197
Fe 4.886546520027983 1.8485948910770496 7.637453775178687
Fe 8.110191789337485 4.424247190136842 8.167543806744323
Fe 7.022046439362349 2.7023638584198553 6.647176931087443
Fe 7.024196571608991 2.373410103561658 8.981769165982024
