44
Energy = -307.80976445 eV
Fe 5.47390107281064 3.4117483353730265 0.5480646157332112
Fe 4.126762295978525 7.060816486210053 1.2851216057642272
Fe 5.94793611274859 1.4989034429796728 1.758034807552629
Fe 3.621631667887103 1.855173625569253 0.7148916617520026
Fe 3.350470359110045 4.685865934268686 0.486166420177311
Fe 7.470284538289758 4.085480492841011 1.882381369275118
Fe 5.2870361101812335 5.151188642442146 2.0318105121583905
Fe 1.4316643222720613 6.571108066668779 1.4198671036689912
Fe 4.791714475487375 7.092264368658156 3.5528282553903314
Fe 8.094821894807952 2.0333685435480304 3.0330452647707022
Fe 3.7300071211985664 3.2695419468235487 2.4519484596301337
Fe 1.3553572784642998 4.0266973236655454 1.9006064559458586
Fe 2.419241359770814 7.904358886181886 3.176023075963524
Fe 6.888953574765801 6.746327054346868 2.262337686572808
Fe 1.9898897436848355 1.1372978040027368 4.779499045665073
Fe 1.7992657378999948 1.7710985140950566 2.473742458611472
Fe 3.9871875704588606 0.9517645696998315 3.0903988573853907
Fe 2.9609271356741194 5.561583558432919 2.6475318205895513
Fe 8.513779174044968 4.166992837625084 4.0066105904720635
Fe 0.6805053075018378 5.895786847430217 3.6609004314450835
Fe 6.182424241256599 0.9064301562289087 4.349612785770526
Fe 5.9888932471845076 3.0887941256727007 3.5073764207144
Fe 1.9371542173292868 3.7990538016735846 4.275134915559545
Fe 6.645306756815852 5.438566683638874 4.082317090496399
Fe 4.432827675593636 4.700274132992787 4.2588275186538045
Fe 4.123444406050277 8.273367512942533 5.141643952579247
Fe 2.826613915877731 6.2225683893561134 4.89544354232272
Fe 6.699694558077534 7.588368346404678 4.861326533038418
Fe 1.1764299732756147 7.623813808421703 5.395348020764176
Fe 3.931285324318441 2.382311098306132 5.047783765779418
Fe 7.631998042250088 2.5546288896517595 5.478057588049048
Fe 3.8461893741493647 8.273367512942533 5.4393042782062
Fe 3.0840556098112466 0.8025098044983232 6.960377798548993
Fe 5.557017050478805 1.3310054034888446 6.62080250997342
Fe 0.9749733649846537 5.236810970165838 6.182634243713268
Fe 1.6897366962623441 2.7742620807769267 6.61302536820018
Fe 5.140482132737572 6.265893314721739 6.02580680608344
Fe 3.3664921657734044 4.447467491772683 6.313004336326699
Fe 5.732428409915612 3.7298292742631856 6.089326380015932
Fe 7.507168949266633 5.2685380209192925 6.199392834490334
Fe 2.916456349030368 6.678918166032093 7.275367112561835
Fe 4.0176843033937075 2.7887407292587123 7.794054880915805
Fe 2.1574139689832905 4.600278021788365 8.289332685395614
Fe 4.833023596049762 5.139206474639959 8.063419315218958
