47
Energy = -331.49655857 eV
Fe 8.639406484009445 9.663978529631256 8.671530256851957
Fe 8.014553365022003 7.6877708204624575 9.77912032645531
Fe 6.280233765133588 9.520191685617116 8.709609408523704
Fe 9.624358381204523 7.487786188991378 8.157064571348128
Fe 7.2183597326489135 5.614482091811464 10.745878512660363
Fe 9.233624586281222 5.409163135956424 9.768391099178514
Fe 5.833598185337539 7.094724163427959 9.278809201691928
Fe 9.571654257453433 9.06259559985578 6.383043707321731
Fe 7.805672069203419 10.512210412957526 6.649702193843222
Fe 4.545156752341124 8.177109687517257 7.529923025135303
Fe 7.205585247010103 7.986986769584454 7.199606338793129
Fe 7.5445410558528305 5.735478867333528 8.13553383543112
Fe 5.6147287182741215 9.901241421245153 6.281905693653552
Fe 5.710611118254547 7.448307300103863 5.240743954454657
Fe 7.493057058831651 3.658307936606536 9.372957137835312
Fe 9.851578901873257 5.312650720186453 7.207644365001871
Fe 5.250080965148744 4.748335097998111 9.295958705802596
Fe 8.806809226424631 6.905617563214852 5.848021840005361
Fe 3.5433067457891925 6.867444113210983 9.287013303227779
Fe 7.574988233672721 8.89136659800595 4.8007609533037705
Fe 8.646503715987818 3.4147782157798234 7.246198422421418
Fe 5.499343594068179 9.757903760731482 3.9151976377190825
Fe 3.629278906252728 8.742735124548014 5.362513953167799
Fe 2.670692316143734 6.824487040307503 7.05349612422319
Fe 7.113353705536698 5.288312897780354 5.81992087161124
Fe 2.8990968752630324 4.780152290418072 8.594425615420665
Fe 7.829315626988722 6.490391801850059 3.811386112445427
Fe 5.005363020537395 5.821960492548861 7.175769767081946
Fe 6.466382842850309 7.989073894017419 2.6566768775777403
Fe 9.16627548058526 4.51028529582761 4.927323857322733
Fe 4.096983108734547 8.003497307363144 3.1472314709148517
Fe 6.318789375584557 3.510830510746188 7.39987559397752
Fe 5.4230153576368805 5.785448747075133 3.517167844629461
Fe 3.520644862872213 6.311540523823385 4.882570932521186
Fe 4.067045798561789 3.0462966923922283 7.591444046301441
Fe 5.044330765771897 4.155346775551499 5.382513891740052
Fe 2.676152128732804 4.547337744930148 6.218462137015553
Fe 6.914572449824566 5.69586352132446 1.5473136005914792
Fe 4.947893401465438 6.870001200714839 1.1502112691993482
Fe 7.1165225756382595 4.188254864695133 3.4302575126303596
Fe 7.456424433764587 2.749740179104882 5.246458256982042
Fe 3.165189190706159 5.965650540399471 2.3494890733165894
Fe 5.476753879634856 1.7143778285648401 5.979390473255855
Fe 3.256433788091386 4.089004624938579 3.7380517754988984
Fe 3.2893058528739227 2.3516416577015264 5.354184336095543
Fe 4.913580018300775 4.334754922307309 1.7684886289455073
Fe 5.295200727212736 2.640931490229305 3.657110136262704
