43
Energy = -299.30082373 eV
Fe 3.7098880942943513 3.6419217427827206 9.665478701587407
Fe 5.731579427403123 4.9849551244333945 9.089973727271335
Fe 5.915138325216436 2.7518528551918098 9.577252601220028
Fe 3.4278690261753613 5.789564880055533 8.716486543331412
Fe 4.793184778376169 3.4103577123740942 7.485340272465696
Fe 2.5147293542468745 4.0127363428674405 7.550765725027179
Fe 7.652976815443661 6.343561012570005 8.646250130048822
Fe 5.401777995737866 7.289536681395188 8.351805565166226
Fe 6.975078091715929 2.4267976548823462 7.354454966103382
Fe 7.980765423042451 3.998450500516107 8.959412173774178
Fe 9.686678666809247 7.540705891111653 8.799661866881246
Fe 4.805022225789689 5.666057765667125 6.663094456391482
Fe 7.534101936931602 8.769206838202834 8.504605155348168
Fe 3.281187321099174 7.987146370136461 7.446190169740898
Fe 10.003459337578908 5.239521175033156 8.62874533901398
Fe 7.971749052624258 2.637987032186517 5.174188866694208
Fe 2.5278407103724585 6.1465092530730825 6.214659336942961
Fe 7.109726780994912 4.698993799183256 6.883435974284671
Fe 3.495794525403545 3.9585928402773076 5.323174206343969
Fe 5.84023190296824 3.5722189502836406 5.2304933515335295
Fe 9.288245295738644 3.683949077555321 6.843142944488159
Fe 3.8292636514221057 5.8083858880295605 4.198396173718739
Fe 6.984783652900192 7.146385755246074 6.567093691701463
Fe 9.088028564553737 6.199352618436012 6.743717057609593
Fe 5.5825944482252385 9.317327576785507 7.114675889387068
Fe 4.742508972896664 3.938686476957486 3.1365941011211143
Fe 8.406921167319625 4.983987592769041 4.8725029989539435
Fe 4.87278699808337 7.748270312953023 5.419865292215153
Fe 7.733845127913999 10.67642737451332 7.0811738660399435
Fe 3.5140696134791325 9.975543311583914 6.151750747128076
Fe 6.236520958316046 5.8943886893747575 4.522666073237478
Fe 8.987314057097498 8.602696728816978 6.72412172264543
Fe 7.040203734631451 3.8186103767574466 3.0539440679404986
Fe 2.6711508982589125 8.200849436322384 4.8177068109556
Fe 9.436962410501758 3.6667813021672093 3.4064680635698714
Fe 5.844273525564398 11.263694102065267 5.794156382420046
Fe 8.543354969211876 7.353661035248722 4.539541326267026
Fe 7.1144752713605275 9.24798153146489 5.221798469025292
Fe 4.216688567586258 7.781834043657494 2.9474570700757368
Fe 8.045864190820131 5.852420861167995 2.6088632008958816
Fe 5.712413441308658 5.839949126499125 2.156575071728441
Fe 4.860908188147844 9.737859512408388 4.206736337050997
Fe 6.536492310156661 7.90495052033663 3.3007998936950314
