43
Energy = -298.93930383 eV
Fe 9.820201484759993 6.406757654362183 6.812710578003151
Fe 8.332694476679015 8.198168973824401 5.838289512403474
Fe 8.403873285710189 8.491193862820094 3.2658540870527033
Fe 8.70569608465813 5.364253413633622 8.733904715611551
Fe 7.291867491484978 10.065618848352113 4.917112356479322
Fe 7.599346140622229 7.378210346310265 8.032067139928376
Fe 9.477438627038786 6.616441206853065 4.352680810651133
Fe 6.427353642524287 9.371298719284193 7.149635506710502
Fe 7.583301454381965 4.328392323031649 10.479700659835261
Fe 8.849805052052231 3.839174505682502 6.899647589747441
Fe 6.528066421947301 6.369364493203632 9.953866827309298
Fe 5.927331981134222 9.041034180376725 3.3049381037206764
Fe 10.099856418254308 4.616794910588473 5.032768031594109
Fe 7.168034762384608 6.684841941476866 3.921791830062881
Fe 7.666074585375255 5.802843528213216 6.175135787647194
Fe 8.609204177302738 5.452503403018553 2.4482517994251465
Fe 5.4006713647201945 8.508128928237184 9.16282620553593
Fe 4.993206953926641 10.298922584213202 5.3941711235353695
Fe 5.228413985983972 6.79885417651635 7.467096313704974
Fe 4.430515345767775 10.381212060234594 8.001677593975392
Fe 6.81575707121634 7.116229697172527 1.7057645728234319
Fe 5.85410470646828 7.843234535375312 5.407195222452606
Fe 7.863329857480541 4.2514692698990135 4.355844243747905
Fe 6.510786670148414 4.830703634686293 8.067997901751955
Fe 5.358702420974448 3.875884964993106 9.901323073971563
Fe 7.568886505256009 2.8059878658813755 8.687669325779297
Fe 4.224447851106318 5.979847118118638 9.421017446944955
Fe 3.1381893981961873 8.124255305002004 8.91019930909598
Fe 3.8204945904237064 8.579796534211212 6.750067267040901
Fe 6.1348262917853065 4.951765601484359 2.5911203275213146
Fe 5.520868784062195 5.143224366313722 5.201761164855272
Fe 6.675830057522146 3.2166070178611923 6.26188224512571
Fe 3.6425145733554216 8.74721871384097 4.275983219241896
Fe 4.782987290937001 6.893986852308705 3.255796419085155
Fe 4.237013688721847 4.432940740453867 7.428131861782865
Fe 5.296743592552232 2.358237734410752 8.061588041913069
Fe 2.6418262714592715 6.242713841333152 7.511453852340704
Fe 5.595794650525017 2.959145037961574 3.9356713440630204
Fe 3.621198417108312 6.529442684558817 5.3963599496264205
Fe 3.869563641290959 4.728107816822338 3.4296596915060014
Fe 4.416947261289539 2.700578673455892 5.855642204728184
Fe 2.836912781027953 4.315088615937852 5.4588535422206945
Fe 3.390643142952154 2.394295585232174 3.879468638874106
