49
Energy = -344.95107588 eV
Fe 9.740602359880931 6.843255418849404 9.425358581021518
Fe 9.261788054236291 8.233770033607211 7.433728644921429
Fe 10.117354705922896 5.870492613507118 7.232471871314394
Fe 10.77851531664839 7.115785020846392 5.310824652046688
Fe 9.023774742726918 4.567306186786833 8.987809248923856
Fe 7.853222056516774 8.064659295734554 10.126115759608444
Fe 7.683510700043636 5.7594381605503635 10.452914581354959
Fe 7.680700003945275 6.538375641140064 7.967864747614312
Fe 9.991866625779332 4.7842343403429295 4.944800550834154
Fe 6.96664326744733 8.924094178616492 8.215116267199955
Fe 8.334937681756912 4.288253134683278 6.710697302868845
Fe 9.280205833102174 8.947851928739436 5.072810351632518
Fe 8.784863510457534 6.571814164545881 3.270024922659946
Fe 8.5493243473114 6.652632817334831 5.540684661447576
Fe 6.523048712502101 4.390746914326885 8.63617862563296
Fe 5.762526041112563 6.684153442886336 9.463046187684037
Fe 6.396519940332382 5.671065854550411 6.2231283014871535
Fe 7.78581785668405 4.687765000771493 4.255061351165992
Fe 7.450027406842506 8.684203545332771 3.5874508498044957
Fe 6.849892835799768 8.241593900627946 5.991464202337964
Fe 7.682994202539625 10.367411668029499 6.061261651509138
Fe 5.325480408377767 10.085149544786168 6.984556231710551
Fe 4.250370279811207 4.700816543511869 9.810034656658601
Fe 4.939122317742681 9.011198827281488 9.32314060390462
Fe 6.29680389909386 6.734330543196795 4.142820971998227
Fe 5.768637680292617 9.977213617848534 4.556337317425161
Fe 5.075508046916014 7.46028678417333 7.299570667171155
Fe 7.184071493211669 2.4411918660062715 4.811545034764145
Fe 3.3541591651898006 6.970481419562328 8.847905502472063
Fe 5.446667987893624 4.23222929420484 4.28117439847016
Fe 6.016619799108607 3.3928636693546426 6.572200741079912
Fe 4.2478440598518175 2.9259535371594025 8.11090188781945
Fe 2.3435065400387063 4.8501161040360286 7.658032879084866
Fe 7.130486751318944 3.4028153159194194 2.463853991496549
Fe 4.563026399999522 5.288183246010106 7.676861183272101
Fe 3.298059362456285 9.163939129217109 7.665216630227548
Fe 4.147786209615862 8.479150871916788 5.433745837780044
Fe 4.304168764937547 6.13743787374142 5.40641685373455
Fe 6.387066958069167 5.652971227246973 2.162625350052251
Fe 4.754474421811075 8.000060066686123 3.0129572626549614
Fe 4.677351745687041 1.8537210291543367 5.493340253089888
Fe 5.355825434732673 1.9440074836419805 3.254666210734649
Fe 2.544337431420519 7.091257234546108 6.587481213928336
Fe 3.6280427242376234 3.846508708878398 5.986336653630494
Fe 2.6426088834811883 7.500085655263938 4.0033050716689536
Fe 4.828805117431582 3.92087859369758 1.7913213834899122
Fe 3.3636451225419397 3.3142966599174914 3.6700222420869824
Fe 2.138256623973595 5.264431731191601 4.948726818335695
Fe 3.9059085197907772 5.7588720322278215 3.051208541985666
