44
Energy = -304.08877584 eV
Fe 8.928160139535388 6.92273805491594 6.0530377927540195
Fe 5.943481345975391 7.893471320344524 2.9785091977739464
Fe 6.931378141509812 2.551024218863618 7.198403122059362
Fe 4.595087809113149 3.3912051365879132 6.392411636167977
Fe 8.787282240947711 8.209607598410438 8.077253464288656
Fe 3.333135499468534 8.604529509098892 8.835065525835821
Fe 6.980415623082022 9.709045315252153 7.954814417733756
Fe 7.853709158631341 4.317137724961808 9.01329754778496
Fe 2.97162022250556 5.316062627123663 5.333534430542584
Fe 10.221255410841602 4.698691639420154 5.898167148271674
Fe 2.378256170594595 7.888597467476948 4.873931860106069
Fe 3.9679034784689904 9.906021770793076 4.1379283864738134
Fe 7.897149840948803 6.364508274376568 2.211502904204905
Fe 9.676204347168639 3.642412111830867 3.145942037979742
Fe 8.390062566407606 6.682283425526811 9.88804148990421
Fe 8.29494775928177 8.045619189279437 3.8621483247724324
Fe 4.050666456491834 4.583657476457286 9.902279004964631
Fe 4.5933451546703665 6.6013265482746 8.886404261273167
Fe 3.927271842344714 6.4368400608358645 3.6301908266193688
Fe 6.403014245416649 9.895156549705632 4.063440828999958
Fe 3.2804647885132545 4.87656540279299 7.714549289635488
Fe 7.176270242220362 4.2220803562686635 3.4571693216946726
Fe 7.035011279142761 8.425705798037953 5.932126272883923
Fe 2.2698366495548234 6.408180354893118 9.181941151561686
Fe 6.422132374996077 8.100075761160047 9.672827842303935
Fe 6.271767027146037 5.6620731733818195 10.291390978086389
Fe 9.44764513085435 5.6762711321001404 7.940706201327937
Fe 7.889234220484875 2.1087693039858495 3.0297967228206866
Fe 3.1684720315138803 9.557262991964375 6.421105531194966
Fe 5.12841688640741 6.000680192153663 6.40387202276909
Fe 5.031141690131184 4.608604696526903 4.446623938802824
Fe 5.7308354224249936 5.5679512718490525 2.246528148094916
Fe 4.739891652701864 8.026044841670995 5.109285229346517
Fe 8.961393116390594 5.560461097093434 4.160951540916822
Fe 5.695876530102872 4.42830480000267 8.197630557084409
Fe 6.259777733446103 2.553548489343103 4.888894434762211
Fe 9.24588732146281 3.176939255528428 7.434236874230573
Fe 6.984171064523262 6.59492726651164 7.84973415675744
Fe 3.0134993477660172 7.172023387556944 6.978045561824454
Fe 5.3787067762026535 10.396260525766857 6.065277703141125
Fe 7.516741978367264 4.7381457515047005 6.269177908331061
Fe 5.1436549096388235 8.428186512397778 7.487079569833701
Fe 8.626807710800101 2.8711795864257845 5.117802741172448
Fe 6.6758937715706015 6.397699141314329 4.584819202679283
