42
Energy = -291.94261964 eV
Fe 8.654136922320648 6.763618435955758 4.975485245970058
Fe 10.499483730354141 8.172875872153156 5.773389851355305
Fe 9.88373655592587 6.427380979697101 7.099649155321055
Fe 9.185960614594682 4.544233106507556 5.757728447404972
Fe 10.6461900576379 4.40621007518319 7.660851088511036
Fe 8.776065881104097 9.1573277340774 4.419599262965218
Fe 7.900745997542307 4.732460252405283 3.9090589133460605
Fe 10.193171734819037 8.644329105384827 8.18184330660536
Fe 10.919847914020318 6.508732501425737 9.148418048768894
Fe 7.446448620299141 6.980904951135718 3.0133235546946673
Fe 6.103469810015849 6.511013871840218 5.422321431071142
Fe 9.007147685777127 4.940671749817726 9.337555079022934
Fe 9.45657266574196 10.240727460744699 6.660870630690005
Fe 7.285071635504868 10.606607371742285 5.947415462765577
Fe 7.087199197432855 9.34701169270896 2.6457546004612444
Fe 8.388651987124456 3.4378701206280864 7.660535502243663
Fe 9.925454118675056 8.06601082248737 10.675366927421743
Fe 7.992338345001508 8.161658487177643 6.733503468876291
Fe 6.656391541643027 4.139001383021437 5.980434767004857
Fe 7.655550905458198 5.783504133099247 7.190473626195342
Fe 5.6397801424736915 5.211582316489716 3.4619999077516677
Fe 8.541121510134127 7.171166171098743 9.080087340966955
Fe 6.500383213544947 8.749526793527819 4.725830639299316
Fe 5.214222819542424 7.685690054761568 3.01602536346043
Fe 9.430768532754952 10.126179494003885 9.756734386104885
Fe 3.586192284748203 6.243836120083829 3.8287385181944025
Fe 4.329738673354188 4.456893971970273 5.284928831874301
Fe 6.590725114886113 4.487872843045685 8.85235483976399
Fe 7.607116698188556 9.769477734140956 8.356815256939262
Fe 6.205274852342911 7.280692745383581 8.55804425201655
Fe 7.175753041428923 6.0548093108435435 10.621517133404483
Fe 4.241672201417629 8.167322187663629 5.314681366148076
Fe 5.773720202170278 9.107604830640097 6.936274267321592
Fe 7.5054474421365365 8.675389935540583 10.449865167534869
Fe 5.004659634502787 5.462701063535244 7.399092275234044
Fe 3.066648313012541 6.172641774089204 6.130764063990473
Fe 5.275880052413056 9.362571215057695 9.274310621264767
Fe 4.020313038000733 7.767232662683895 7.5452507277671845
Fe 4.800959948350407 5.54724752921211 9.996940130254709
Fe 5.430034068042026 7.664289986497114 10.991784167445873
Fe 3.0076377853150276 5.719377629910103 8.539036819482572
Fe 3.5056507619944393 7.661079774374362 9.80268180483205
