43
Energy = -299.58252481 eV
Fe 7.802608056332204 3.2872668643982967 3.65368060734934
Fe 5.83108140134425 2.2222431494435306 4.81945564381889
Fe 9.696209939329481 4.28782504266672 4.618754880356137
Fe 6.015262062510719 4.606209011050565 4.443248796269603
Fe 4.078661656489125 1.7685677726443705 6.389962526960629
Fe 7.7735488836622695 3.5270247006292643 5.984903586343872
Fe 3.7720085186404653 3.7236586001229637 4.865551447560918
Fe 5.50518748518099 3.523190630819612 6.773358012607516
Fe 9.409748091093133 4.857309745366207 7.1132520673794675
Fe 10.604983343219159 6.412490192396871 5.727407347380047
Fe 7.929544721515313 5.508474449544562 2.899104768148519
Fe 7.173541842885041 3.977179835483517 8.523577479345793
Fe 5.7045279867928524 6.0902107440727935 2.3884617679202593
Fe 3.815617137778403 5.962905879205772 3.8814444784705366
Fe 6.846286012391627 5.570948035072678 6.866611503283535
Fe 5.9359909840121725 6.961740597792678 4.804525164281471
Fe 3.2217604953031556 3.8453789554666944 7.17630725580089
Fe 10.611862680253756 6.867619428932354 8.368820015155725
Fe 8.284718301394616 6.128131621470631 5.05922930092004
Fe 8.843713965452045 5.530691531386287 9.322018325996984
Fe 7.307243238102752 7.915291923254973 3.260385167959015
Fe 4.833476531738198 5.15822691049813 8.480091759463825
Fe 8.59853611509911 7.264362692157301 7.296264842251017
Fe 4.439809200908303 5.658602149399451 6.124086738867809
Fe 10.973525020050198 8.458313235850087 6.691461329408745
Fe 5.851693394161067 9.58982405190433 4.22411672130129
Fe 9.410953004420211 8.302681472705016 4.879129197058651
Fe 2.203998285360756 5.496284673263899 8.440455997514356
Fe 6.772547832810528 6.546945457926553 9.226210472370099
Fe 4.555252768509813 8.07366765884413 3.0375498458270367
Fe 2.1379659235263118 5.808468752067352 6.033938445390167
Fe 8.730513655134624 8.065698055053268 9.571336187197074
Fe 5.6207127588245855 7.515030419544047 7.426143053087692
Fe 9.096288831954869 9.650247391667834 7.1863642248765425
Fe 7.28541815447736 8.6438394455277 5.8145993453939235
Fe 4.132867374336627 8.296088490086754 5.595065161484875
Fe 4.274557330443477 7.096116417783951 9.691473980140046
Fe 3.2773238087660523 7.086912407024426 7.519264258922744
Fe 5.981002195876587 8.613908822777342 10.32194191782475
Fe 7.095280493284932 9.120197237223902 8.289346380403304
Fe 5.54577694018464 10.10778295088131 6.678821059046821
Fe 4.241617563342084 9.186333046253452 8.39897400604509
Fe 5.719524874848576 10.725852453184949 9.242279597581387
