45
Energy = -313.75574391 eV
Fe 2.19820816684797 0.6618155610745452 5.455784849485521
Fe 8.309628150496572 1.3328973332100236 5.453470156427912
Fe 4.169741184186762 1.4249699712853872 6.115562924078527
Fe 3.212903360300294 7.626696813967517 3.9544531625099033
Fe 8.4398640858481 5.871546496729571 2.3005782999395628
Fe 6.011547473790945 0.6082419203160685 4.386639794335519
Fe 6.419706893263506 0.9673176337321605 6.9544139883883505
Fe 3.5309226180885167 4.794460350456881 7.183671447860258
Fe 6.346618388000093 4.8624162058964355 6.643713546219804
Fe 2.7102883116881262 7.214228574703253 6.4026705073336245
Fe 4.784807242817254 8.529343657346944 5.6716166808069035
Fe 5.473986648942169 3.303089529239671 2.8875316056319305
Fe 0.9347766482242563 4.452174784071511 6.383959756854467
Fe 8.4398640858481 3.77421977093182 5.131012569910566
Fe 4.387133753066242 3.8455155304611632 5.1436513391200736
Fe 5.766296186521266 7.52770378371649 3.600725352068423
Fe 0.7346627083156188 6.832792554035936 4.286148952940451
Fe 3.873314345545578 1.5361622834441502 3.7598173448583636
Fe 5.959791294201786 3.4521505821944367 0.6291856175964755
Fe 6.88184816283187 7.07005356857907 5.704342169578561
Fe 4.716375952508851 6.197486996920191 5.45528315289594
Fe 5.691679695842352 1.1470542036386149 1.9417689013295154
Fe 5.230289256560282 5.78843955710334 8.278056531232316
Fe 2.6288532296232874 2.592544096614691 7.54091487300659
Fe 6.120852237209204 5.731161155370602 1.7659474152463035
Fe 4.055903554111358 7.122495119419593 1.5242055550395681
Fe 3.5536210832858126 2.115008875956186 1.4182383618327805
Fe 1.403951590306303 1.746144921498638 3.1659062414546773
Fe 2.4670982341598435 5.374451542739059 4.906105514971342
Fe 2.2333272101398025 2.9073997071778126 5.344302228763074
Fe 4.892745691833699 6.854087169833621 7.600169756372058
Fe 4.375003081325313 5.520735644086207 3.2883471691998234
Fe 0.5683953136785721 4.195843353078881 3.8181909628292963
Fe 5.18864740436456 3.028507228971074 7.5837504697196225
Fe 6.266523731999531 2.6776474900761063 5.31343001435564
Fe 3.8608992182698163 4.53189765501032 1.0772039258884696
Fe 7.851070746752609 4.260519188469026 2.2117102867787644
Fe 0.08486987801155264 2.2900563817992436 5.131363752368213
Fe 1.490111283716974 7.974893349619905 2.3426423729652464
Fe 2.1316203045013395 5.8008770493042165 2.409309558284517
Fe 7.7694525194072925 2.9092689962664324 7.269539586524257
Fe 6.654719294197005 5.049823952229738 4.202888606222173
Fe 2.941958455713457 3.6420731822310985 3.159062025442892
Fe 1.3075903752311855 3.6532473593319246 1.512028706279079
Fe 7.555074702372106 2.240165561477797 3.317227718999761
