46
Energy = -321.09704441 eV
Fe 4.523071032979626 2.8970007936076163 0.3103360211033147
Fe 5.257043756147174 5.321176096830937 0.7863325845379129
Fe 2.8337049208678837 4.7145055187198555 0.9397569629600604
Fe 3.441555142870342 7.425990114214433 1.172526382341532
Fe 8.18078922449203 6.548155118575484 2.9371070317281567
Fe 0.7328663394052339 3.5218773801431933 1.9044481307427474
Fe 2.710172787533346 2.2076907779372585 1.8571562346771813
Fe 6.6678953559025125 3.1020363620047866 1.6559382698303104
Fe 5.966979323085258 7.367886500056196 1.877871835748386
Fe 1.5218506390822626 6.198064706896438 2.210317770450397
Fe 8.391881129699417 3.816864272123482 3.093703538829657
Fe 4.551063984465868 3.7899856859812235 2.3992637582509233
Fe 5.100154776547618 1.3577068131783323 2.337554044492358
Fe 4.021934090274457 6.214405552254753 2.914819663248198
Fe 6.375537335822099 5.24133952718911 2.972818082048073
Fe 2.308824557849059 4.285560372745316 3.2985680103817527
Fe 4.76096303810671 8.665352725242075 3.274469398679252
Fe 2.5428376736550375 8.024759206308051 3.4454736458975592
Fe 2.9581344499742084 0.3721283645447493 3.507146874123682
Fe 1.3023018510871414 2.0749341554528136 4.031036734137491
Fe 7.243212860915059 1.3449734786516252 3.490731777662268
Fe 0.34057147311311753 4.211999937174607 4.71313693823038
Fe 3.8291491650673173 2.3899389893873875 4.142131251542151
Fe 5.193953777048858 0.6690595821346342 4.764635617404567
Fe 4.176692428824884 7.1577670684472245 5.263688434881192
Fe 4.320182826967263 4.678094798753274 4.58507627879528
Fe 2.8534210216037432 1.2118583667443417 6.010940151214964
Fe 8.546226859391416 2.5418182721023577 5.0077876088365185
Fe 6.211983064922748 3.3140401889805347 4.43945315206583
Fe 2.483325086050702 3.6526113876583146 5.623228318558979
Fe 2.1169181879841723 6.095567304999369 4.841517806332474
Fe 5.929706919122226 5.5254033310618 5.9202690338527715
Fe 8.047297579691563 5.2193328200383124 4.992917467379656
Fe 6.430684345805619 7.2595737033526495 4.357009582384247
Fe 4.7678909423973925 2.885609587352474 6.399180774091454
Fe 3.593531634335501 5.348405787675481 6.75507732486279
Fe 0.8034564952207305 2.418372496196556 6.579049176047749
Fe 7.098810155768842 3.668462310914016 6.683255707312236
Fe 7.233908438410768 5.843174526363133 7.741756524757762
Fe 6.847160823378794 1.3894341136295798 6.115296006919837
Fe 2.8971883717325198 3.1510698799012706 7.9308577066018335
Fe 5.260623165500376 4.414221273836527 8.253863248487795
Fe 2.349519128571673 7.296211409047678 6.784983881588714
Fe 1.163713506224931 4.915695625469371 7.024696906792479
Fe 5.025456800946786 6.868850768271294 7.691262961870747
Fe 3.0507792116646195 5.345958628358437 8.926477067825479
