49
Energy = -345.21783623 eV
Fe 7.773551530461343 10.367511226714353 6.886001884915181
Fe 8.108272139651096 9.220518940238804 4.316777316295973
Fe 9.690610122683758 8.863205859530323 6.393432075717877
Fe 8.43178741652854 8.615077333387033 8.49061367631432
Fe 3.7527098215704675 9.196994846180454 7.152369493445671
Fe 5.665977295911325 9.86230789163579 5.78347540825814
Fe 3.41203269109414 9.008161129438294 4.890905608521954
Fe 5.882460689987886 8.536393659992713 3.88329666077119
Fe 6.056442564348129 8.834351183267758 8.010722971950266
Fe 10.577963376135164 7.580992332554339 8.368229970521366
Fe 9.605754348910843 7.222060435499899 4.529171827564055
Fe 8.068717066679936 7.296209062026051 2.7639688360584906
Fe 7.452610770692662 8.134468665431994 6.1876419488186825
Fe 1.6700923794496971 7.902014233266997 7.089170202190695
Fe 11.329165916370203 7.18152809767509 6.221476247086401
Fe 5.178810079267041 7.4193828888740905 5.938903510205125
Fe 4.201951714700796 7.173880547692827 8.251486639569805
Fe 7.026770159231421 6.45254920258979 4.625893656427758
Fe 8.551150025791369 6.412488787902272 9.090020557852315
Fe 3.8353766051245177 7.054985039241735 3.6534134584613547
Fe 5.759596557350647 6.562588118620565 2.3993402557791685
Fe 1.459189478640395 7.5632411883842625 4.599502361861978
Fe 6.225843851416796 7.234316711988377 9.79573265046868
Fe 6.628274708191927 6.300522657182984 7.590855297616178
Fe 8.852792459797287 6.106267799408551 6.513467138710048
Fe 0.8581382966524045 5.714961644907962 6.059024381019683
Fe 6.92600688735394 4.967381516509267 10.065651147569845
Fe 3.086573837639466 6.577122730691909 5.961226551215464
Fe 2.3380631320668432 5.602195387597527 8.092969292080912
Fe 6.9158787417139065 4.387548654466023 5.912981088071594
Fe 10.924886211753853 4.998079828057989 5.45394353340339
Fe 4.6057813795815745 5.248054277851341 9.534708135222722
Fe 10.546579359423067 5.229033098860015 7.846495723654167
Fe 8.939081135214687 4.910881474985496 4.223724211796508
Fe 2.214386068202218 5.330533987858993 3.943499893228813
Fe 4.735712180272262 5.061196599019635 4.712091277185291
Fe 6.818546888507581 4.535694186608547 3.207685050083107
Fe 8.177654326727808 4.281337174386414 8.109931389250807
Fe 4.39023264231648 4.862893054112778 2.4291487204565887
Fe 4.6552200279687055 5.109609587913644 7.094149877616123
Fe 9.318029783560092 3.4275035920229118 6.255960152280751
Fe 2.6044420028910884 4.114094921954992 6.076791899395891
Fe 8.060522303631025 2.6780679111592147 4.352570980274093
Fe 3.4005143993349134 3.4202081590805906 8.300971430529918
Fe 3.3387235800324184 3.1520772442763128 4.048581714828969
Fe 5.92821804023816 3.53550899260145 8.292549994660153
Fe 5.698998455684573 2.692866357488331 4.142554935568247
Fe 7.119448712028858 2.209557321423526 6.567180765035992
Fe 4.699067786047145 2.8544196839300837 6.224148265162119
