42
Energy = -292.08232598 eV
Fe 4.454393114144951 6.215634019163697 0.5748256378090447
Fe 5.454112821946694 3.9756345314191144 0.8702084288173074
Fe 3.757699032590317 2.2193764094856374 0.901182225450198
Fe 2.8257453708172267 4.4918629192730055 1.2702647430066853
Fe 6.103118776910971 1.6870714389992805 2.298075342435704
Fe 6.977596582799442 5.964603748304344 1.9367537691305057
Fe 4.652053935567528 5.5215638470456705 2.6848469581740253
Fe 2.539218873550534 6.807631029469032 2.5667465393971898
Fe 4.223149461513334 3.1082863544604105 2.9152837059395607
Fe 1.9101049165092314 2.650410510587499 2.882412587218056
Fe 6.558739721560648 3.916409451456138 3.1369943701418213
Fe 5.42674454556922 7.6970069628757765 2.8710035947759476
Fe 0.5181428180424549 5.148132868604082 2.9543798054712944
Fe 3.9996965312665886 0.8819164115990719 3.4694150279710034
Fe 2.616407142963099 4.741321748833474 3.8345846971859783
Fe 7.946621619539445 7.425480908694968 3.8648510647090224
Fe 0.2513349123323585 7.394469076695434 3.249389839006482
Fe 8.526536377335601 5.078649556020802 4.05496207846075
Fe 6.304009114821053 6.078042698280459 4.396902013138821
Fe 7.87571180675527 2.2522177931235956 4.311104457922136
Fe 5.508313695528719 2.2226487263383734 4.830597385601199
Fe 6.336459910055819 0.279445317724765 4.282344334224617
Fe 1.5545555834748028 6.636500105470186 5.01744419182374
Fe 3.007172151000857 2.614754172058513 5.137827708408403
Fe 0.8532219225611346 3.9651351174709766 5.264619066003528
Fe 3.955244736711842 6.819136646590409 4.740673526528002
Fe 8.766151591762029 3.5120252195227515 6.615747897892269
Fe 8.766151591762029 5.7703973385465 4.992132835348133
Fe 4.2869727977885255 1.075043564199465 6.416568013491852
Fe 2.949447509522185 4.940884561138562 6.33668932278712
Fe 6.885912126633753 4.042919306049693 5.628882362471331
Fe 7.864996073358041 6.158137407783483 6.23714497463236
Fe 5.94911326635749 7.8942727321530635 5.773576729555617
Fe 4.706974042141657 4.425137466595057 4.838312775891105
Fe 3.3394348648022003 7.128582752252627 7.015544259831911
Fe 6.907694077061533 1.987665569961449 6.794289288611289
Fe 2.5274679310380916 2.913715571627615 7.426955920312664
Fe 0.9163000016315372 5.5046079297285075 7.097207896539536
Fe 5.3323466922513045 5.845879006325114 6.712895674842276
Fe 6.723135269604748 4.36557351337664 7.933206911868996
Fe 4.812024695496318 3.3090543994020583 6.97937662181614
Fe 4.0942687137509495 4.9050025745207835 8.456016698583896
