44
Energy = -309.1982533 eV
Fe 8.218386846816184 4.343307180749312 0.9110785065120892
Fe 3.265633672446566 5.886708786105432 1.679915187478464
Fe 3.465397785758233 3.804076919025532 0.35286009369590315
Fe 5.737331174167956 4.5913879615720035 0.6018690113383479
Fe 7.1953367044969605 5.7669448361006515 2.484284538225995
Fe 1.8319334969850654 3.8491923048539753 2.138685007981271
Fe 0.8534118110001463 5.951436373066986 2.9958917446134703
Fe 5.422961476221643 6.8037807328024265 1.5329428788517379
Fe 3.3174291680648977 1.828221068800453 1.9816201768708162
Fe 7.253691896755502 3.0217783050387084 2.2574105502191095
Fe 5.339395862120643 2.2568883547473955 1.0281711101612003
Fe 3.3044703641382323 7.6748818382695925 4.183021622871991
Fe 2.787953546172449 5.326197934818321 3.912966214608407
Fe 3.509174067174013 0.6423950526969949 4.363858469596042
Fe 5.378016639991543 2.017983089295674 3.689279848869833
Fe 4.617696025664773 4.109561004308324 2.5886458781368344
Fe 2.9216191727662055 2.8335803874651133 4.075891674586012
Fe 8.87862085876778 4.360877573843881 3.678158598057618
Fe 6.658249038995943 4.204846708201332 4.2107126091538465
Fe 6.231591318373504 8.186386356712967 3.4539339654992585
Fe 0.9985034921763605 1.8663514015906213 3.3121525980381827
Fe 5.161340237066192 6.2174693680089765 3.877834371765264
Fe 0.6057416111830283 4.016999240530971 4.491365833386347
Fe 7.6278566752555 6.640666856653384 4.704312116540877
Fe 4.586208642106538 4.030099662782452 5.162876673551792
Fe 1.4059693366581287 6.3760861830286295 5.563257712884584
Fe 7.81845774905921 2.2811551682304207 4.667700813926905
Fe 8.256800108358275 4.534901798241682 6.0125904345308525
Fe 5.502857620929784 7.92866852959024 5.772678672825372
Fe 5.95811652423148 0.8418887419748766 5.568889105425899
Fe 1.421301594152363 2.0128490076820245 5.858641491006053
Fe 3.7966377355284058 6.152183248991664 6.0320001114930415
Fe 2.430347732369463 4.172971282008433 6.0245707722726065
Fe 6.120582495233231 5.494771649604529 6.211101341143251
Fe 3.9215694531631904 2.002176887383667 6.282978948310438
Fe 6.24443870546812 3.028947904719481 6.524610614022161
Fe 0.45881866702372215 4.419753318518325 7.101010869331735
Fe 3.1367473858829547 8.169422097956826 6.6212952789086
Fe 7.20217675464794 7.152823230706054 7.310070103130438
Fe 4.3465625275925985 4.20511149739184 7.641920225388782
Fe 2.3778950572358855 5.712399016854432 7.942054459374006
Fe 4.919771686948398 6.71414420488059 8.075587822817342
Fe 6.557683785802906 4.823763473112659 8.344754591500108
Fe 2.1875157170829405 2.976165683116057 8.00674957313085
