45
Energy = -316.96357806 eV
Fe 5.5521053029658995 10.437498314703538 4.0664918174293625
Fe 7.285517474931419 9.867290789733227 5.538382232475513
Fe 6.9987673549015845 8.389678348595211 3.5790146899269786
Fe 4.929781466661408 10.64986296999408 6.322448325844324
Fe 9.055717533826538 9.516395756038344 6.975598798969924
Fe 6.565752596348354 9.851724196818987 7.844314495237111
Fe 4.49395239866166 8.475979319013476 3.16096211525129
Fe 3.4181115183613504 9.250615177470214 5.107880699287531
Fe 8.55945636388005 7.658408834630325 5.286473319073782
Fe 5.556487109213885 8.339919894684638 5.571419858986247
Fe 7.181081570693923 7.6467075393193085 7.285257401882381
Fe 8.313922145474768 8.666817078293944 9.104140664799413
Fe 5.901930953993444 6.793674700704927 2.227743221760945
Fe 4.484249672747062 8.541211039927706 7.656369686823151
Fe 8.067080719580161 6.009181050444014 3.123896759465725
Fe 9.733689001515744 7.195183486778828 7.3036353041889885
Fe 2.2398213150813415 7.772587054133279 3.6078850568582865
Fe 6.054860607241142 7.717726992911437 9.368046887149617
Fe 9.475007478239991 5.45553136533291 5.143312517498038
Fe 3.4783292037666986 6.088839110794213 2.3844166790783095
Fe 6.705341442346014 6.219562553595818 4.932582874478412
Fe 4.2611726342805785 6.469529860084661 4.513084115937579
Fe 5.696870998606626 4.752483233460304 3.031038935462067
Fe 10.145289094824205 4.891557979918268 7.522528878641646
Fe 7.934582812785176 5.426028277075019 6.8396349690333205
Fe 5.1814456983806725 4.2357860573705555 5.3659398149294475
Fe 1.8148822789592507 5.7127363773602875 4.5120028290125465
Fe 5.230002932070541 6.154379719966078 6.876290110740731
Fe 2.8555997994571487 7.224597324373471 6.275012155444895
Fe 8.498907159345254 6.315667314563984 9.144652588714894
Fe 3.863067881096393 6.2923606007490305 8.641423948721446
Fe 7.469960791334576 3.9035643604678367 4.559006968405016
Fe 6.327451861882579 5.387259205023549 8.8924942001772
Fe 5.30746360829411 2.4755897105511706 3.7934439327836458
Fe 8.387111748873464 3.8463889755565135 8.830898054752305
Fe 3.1194936948929817 4.849310414018576 6.315569018830631
Fe 3.397763084791878 4.148302464310495 3.7809386864742054
Fe 8.842931882717538 3.149693175174761 6.3850794832386955
Fe 6.496878411471766 3.6124966921078956 7.205275698361175
Fe 4.211651828672327 2.3921595084484197 6.192520954810579
Fe 4.364651388094304 3.889631024729212 8.149883938349674
Fe 6.634477817748654 1.8245788971711736 5.750066215295269
Fe 6.225763449566797 3.0199704568560177 9.565739041460585
Fe 7.842777598700409 1.6519242880936846 7.944613213964389
Fe 5.450306671431083 1.4807235647029957 7.970119130342436
