46
Energy = -322.08754231 eV
Fe 5.475018812798531 2.8556747938883937 9.275471203999818
Fe 4.430815797953043 1.8244979741764362 7.54894754285395
Fe 6.63873180341238 2.943620647646148 7.030046103787768
Fe 3.0811030229851646 3.5614410348738796 8.60400421611603
Fe 7.063639243114963 4.622947380437282 8.7808305235741
Fe 5.4523782887634935 1.9008089260983938 5.133866401516376
Fe 4.808828408483909 5.124638720760254 9.971726142348984
Fe 3.6055374129786992 3.321399280781939 5.936959874605015
Fe 8.836004959328987 4.274235495695589 7.051817231293399
Fe 4.9258456765560155 4.47336763655204 7.614301946287609
Fe 6.690225055458004 6.522519037849049 10.36252260837461
Fe 8.174257427706532 6.435893990270972 8.360636432355623
Fe 7.761751647011056 3.210933057531362 5.017157765367688
Fe 3.8780422990336088 3.1553954065756584 3.5026748274605204
Fe 2.1832458084779165 4.990141410505706 6.759996862880258
Fe 7.0684766869839954 5.6063625275109485 6.276135570659397
Fe 3.223884936908416 6.109907636676477 8.536043526845965
Fe 9.379646642131526 5.102531016059658 4.817943927935154
Fe 5.513712296214825 4.3260923802726206 5.038740661113724
Fe 4.724525543924835 7.833749383448554 10.024004316777397
Fe 6.2099629188206915 3.035484495425224 3.0745265306552882
Fe 5.710581526857442 6.8559555577303 8.164694255752908
Fe 9.532473295946852 6.718812167581949 6.464911562876528
Fe 9.361259672410807 8.54153282517008 8.034842043281449
Fe 7.353021210059273 5.147406931400154 3.5493124021435674
Fe 2.4366988661139066 7.287517667098585 6.015637440594551
Fe 7.339170564583739 8.562742128873735 9.297094774169592
Fe 3.2422221445732853 5.298667295073792 4.402286960924843
Fe 4.428382054552221 6.298741119592507 6.271908732497061
Fe 8.103486796239142 7.293161154379927 4.616184634541096
Fe 5.008741532230639 5.257667992274233 2.747482164180391
Fe 10.572443929282892 7.364027934194118 4.310313685325869
Fe 3.4512424974609397 8.333377977443433 8.019606604293912
Fe 9.710635630347738 9.078314969776267 5.74027301875064
Fe 5.5554334606748785 9.479385563847615 8.195359209982385
Fe 9.204553062812089 6.30558305788368 2.6018773199377354
Fe 7.206615854195396 8.21088827937442 6.612442047722447
Fe 7.969178628442096 10.310240586254144 7.396389924993733
Fe 3.8787943043658197 7.674673768338875 3.8973129513793476
Fe 5.76192583639736 6.709117176757489 4.417583348352199
Fe 7.079377861830248 7.371193278193569 2.4086096523967035
Fe 4.712861223215004 8.598449183870223 6.013973716825942
Fe 9.005343499933003 8.784230541093773 3.119495785579917
Fe 7.987012297612829 10.199929695370727 4.822774476119775
Fe 5.993432407880495 10.548456546686708 6.078894652591117
Fe 6.203730726881529 8.950253486908085 4.096432186138875
