46
Energy = -320.35730942 eV
Fe 3.443582511390451 2.1571132726240623 0.2743172340385871
Fe 2.014775880513522 3.8064315027901685 1.4655874982911212
Fe 5.2449805730347485 1.2211377471278353 1.5285491874609958
Fe 5.978530669553637 5.577619101985182 1.4708722639878562
Fe 3.5101701898577846 5.8257005518608205 2.0541997158921688
Fe 6.7461715834543154 3.2571524042612325 2.173875142830451
Fe 4.581247091656488 3.688964551048354 1.5737450918050622
Fe 2.8358586032165847 1.7007514602553122 2.4602826577596453
Fe 1.4564857431576268 5.467358471016417 3.5292604900049045
Fe 3.2859996419634547 9.851536229933298 1.2441475478489405
Fe 7.168973718131142 7.460570398644221 1.7524751820243587
Fe 4.816855200984957 7.743136974546087 2.0841412182848096
Fe 7.892647393682847 5.4540893234316306 2.8617839005046073
Fe 5.47700742680335 4.6396276414907955 3.6856396223181545
Fe 6.92493836839891 1.276657390632724 4.107551443601706
Fe 2.44437308441414 7.748151384117791 3.492515055950948
Fe 3.1808912245343883 3.975934754798739 3.5328248280525902
Fe 6.390625911556851 7.016377954954511 3.7591499148609304
Fe 4.07800279990944 6.46633726040083 4.398245945729318
Fe 3.051106214719658 1.9155097048890017 4.9453489014239205
Fe 5.035893014522583 2.319410071259014 3.5427770288662264
Fe 1.0316381660663148 2.94437629643949 3.5038606821567875
Fe 7.621976641976534 3.695717542836723 4.553767306276632
Fe 6.113313952141141 5.457724365390416 5.828983278290776
Fe 3.7583935183478747 4.394229804802116 5.713647280742907
Fe 5.648734110557741 3.0371083896877007 5.737531658541974
Fe 8.154110196574074 6.0302808016995915 5.233124932340488
Fe 5.95681062993719 7.885223951010725 5.9583713879449345
Fe 5.2293910013384215 0.7660230434140498 5.8105552331917325
Fe 3.1383228032037502 8.381161121269693 5.992803648304116
Fe 4.620210895166592 8.785368019772019 4.140883511742581
Fe 7.7751644215224225 1.910895308037752 6.2327443975268375
Fe 1.946570495591553 6.252304379779281 5.718698456706097
Fe 4.36126478391056 0.13589761422378613 3.5643264778159387
Fe 5.057233759551804 9.851536229933302 6.344638290950242
Fe 1.5069523818720894 3.7519025405437874 5.735352058610283
Fe 7.49092987282778 4.111695050131704 7.176779273282823
Fe 4.196118260525036 6.420955161378399 6.831423364499263
Fe 3.5849323216887825 2.441013030907335 7.164623234956104
Fe 6.4366896587728295 6.459451095187655 7.991595280814488
Fe 4.702717386959809 8.174626391604585 8.164266914831307
Fe 5.998734797352903 2.1210980986208585 7.815862146103226
Fe 2.2579705110074326 7.1561234053585325 7.98963179019264
Fe 2.5708730754859994 4.739336289354489 7.774343156177087
Fe 5.060037487668104 4.42344164864583 7.9414137694922085
Fe 4.1639537261579225 6.115027961905157 9.085644298635376
