44
Energy = -306.73426284 eV
Fe 1.5919629177389267 6.605029238777306 7.155877533554581
Fe 1.715676396653463 6.804057872946154 4.788827252410021
Fe 3.215253882780448 5.3904351660132255 8.497658468541859
Fe 3.222104126299243 7.786158678380534 8.407000952406161
Fe 3.2408633054543183 5.178950099020248 6.01247287577811
Fe 3.7989389785676684 6.57509317783885 10.467098041313623
Fe 3.467645303838436 7.691380321663275 5.932044406342061
Fe 3.1455876344260205 5.096003764479759 3.7098702295945905
Fe 3.524377956236101 7.544304346194241 3.3472205827264903
Fe 4.9795001466084745 3.9406157483444715 7.317495118904873
Fe 4.958906272690528 6.32635177749062 7.121845962580103
Fe 5.094850831520821 8.962709420219973 7.2813815281547
Fe 4.8185767637875 3.6811625769988554 4.899707052094999
Fe 5.500310705448208 5.114314965658705 9.36762937752221
Fe 5.624879911752321 7.563219861791588 9.230472339456055
Fe 4.921109136490555 9.079325609292475 4.578170764534742
Fe 5.058481864982092 6.250267034559717 4.595884674580245
Fe 6.445291434921005 2.3330442386913424 6.467764508783864
Fe 4.913057403490788 3.576452744402551 2.597059290379893
Fe 6.144603218219682 6.509785786221956 11.295287309539583
Fe 4.807178914093919 5.956075236014191 2.025777127210637
Fe 6.662477577704909 4.893347659398377 5.751188875127574
Fe 7.694737214232353 8.16622631496421 10.148226599980996
Fe 6.405611229551953 10.42927533500808 5.9405345329051285
Fe 6.957944236982277 2.909060068204589 4.211284202547582
Fe 6.148540319646259 7.733643781822508 2.9742641760810815
Fe 8.804310947809576 5.666277629917336 6.267000715512989
Fe 7.350557037509283 4.087476621559156 8.006329442631005
Fe 7.857896617714174 5.802410317140238 9.873336569352205
Fe 7.455411351085413 8.93450285416377 7.8415194047658465
Fe 8.63895663401997 3.1956733470032375 6.175339938930347
Fe 7.6807425580198165 9.263649107435745 4.289884945692849
Fe 7.270003959932502 6.51833150057301 7.760305058428654
Fe 6.475784495986763 7.747415670444743 5.786253982118709
Fe 6.617921643782285 5.03823661491103 3.1677512149848828
Fe 8.67085092025528 10.215026083511551 6.293912093136609
Fe 9.297934009807049 7.419032593254679 8.439520995905442
Fe 10.783646554767508 4.508763160949163 5.839483858727564
Fe 8.81917246172088 4.570996718822246 4.16037725417521
Fe 9.69295123509101 4.895961181341722 8.180901477720163
Fe 10.408956167386856 6.550960127917245 4.540230337139191
Fe 9.12040064847557 7.991600859372488 6.101815156426705
Fe 7.96713020801104 6.798702932824425 4.237018067443278
Fe 11.038818085142102 6.6618362567883125 6.871755689268074
