41
Energy = -284.99046982 eV
Fe 7.895122270793192 2.483027625048898 8.031859667869266
Fe 6.86872303522143 3.4245655927501337 5.926451038918371
Fe 4.152706886906463 3.953959748032361 6.171116390630357
Fe 5.486043672047805 2.9066243628727735 7.783885630368732
Fe 7.6291859984280705 4.143168877525514 3.676493055755794
Fe 6.569886371587252 4.189863034676306 9.425754019395967
Fe 8.254177942114751 4.555912657357767 7.729712991131095
Fe 8.145028697356631 5.650952776262891 5.580992962113816
Fe 7.961955671514844 5.473337229979063 1.7220264259828881
Fe 5.690903974828998 5.059800439873257 2.4081144146178746
Fe 6.182964748735396 5.275801837912289 7.227255077905845
Fe 4.19078165795608 6.403635046946317 7.018528208365477
Fe 5.631311359943595 5.348394809717776 4.865435663135805
Fe 9.384566480274088 5.922692711342989 3.550204403263576
Fe 4.174829742179324 4.661959931812673 8.659924224106687
Fe 5.3306719197867825 3.176287819320212 4.007593464571455
Fe 3.6953521939842657 5.066593250360123 3.725753697406305
Fe 5.732855038229408 6.404040247564507 9.3479475355991
Fe 8.28393838827921 5.947874773330373 9.687323261283419
Fe 9.900521536746849 6.057757524324713 7.6371866152074706
Fe 6.173566899217255 7.423773466080697 5.671036543950747
Fe 7.705402536001885 7.167494764827035 7.6418713552190525
Fe 4.905137173582784 8.438337539912233 10.488971680329872
Fe 4.920084558965783 7.393462044525043 3.340777199806206
Fe 5.4117760278572895 8.34556757295838 7.906375361898618
Fe 3.4156442386713595 7.173087786482427 9.165508199825098
Fe 7.154222564426219 6.762190152204933 3.4860454688927094
Fe 10.430204162813133 6.781059572049554 5.583910186006603
Fe 3.425519522122988 7.148588222498482 5.018595716511509
Fe 7.251514074714304 8.18002124700353 9.806436236773996
Fe 9.712737422610543 7.784861917189631 9.233528544312998
Fe 6.606406930652024 9.180466648961119 4.197503608873111
Fe 11.660533208057526 7.662055295296606 7.697709659769605
Fe 8.561258026363024 8.049514942454628 4.923468084883562
Fe 4.663695638903864 9.127371052455274 5.728172296165943
Fe 7.260360863753854 9.422642147557786 6.633219917087808
Fe 6.167602591119843 10.206485160823132 9.029468764237004
Fe 9.64373128088405 8.53999964741182 6.955438636116971
Fe 2.896428711428694 8.465895988989647 7.200153473512151
Fe 3.7529955076209007 9.699977043298627 8.96554405224081
Fe 8.5369553014275 9.732755883696386 8.689942065584065
