41
Energy = -287.34038638 eV
Fe 5.378108739210209 7.2369694506833016 9.787416834249768
Fe 3.8668502191445104 6.29706381345998 8.174669848935611
Fe 3.169217331940074 3.8796557995563576 8.606036561615156
Fe 5.220331231637218 4.757438041014682 9.380077390143235
Fe 5.142152746250974 8.278744847831955 7.586669454560731
Fe 2.6565462814694367 7.98149644877744 6.774154374073696
Fe 2.2693049330656194 5.147567188750457 6.885490802327189
Fe 7.023169859306948 9.470077865646127 6.502450615162038
Fe 7.471668084006696 7.981774638260224 8.69230512474575
Fe 7.2867511278409705 5.82401549555923 9.90664328736194
Fe 4.213321004350303 6.683894669490566 5.6873353368281165
Fe 5.083446580764416 2.482918072524625 8.296223960288934
Fe 6.343543246117933 6.281021391236297 7.56360380174505
Fe 4.970580746726084 4.4781669756607885 6.708684081525404
Fe 4.6316694773394005 9.278503638268004 5.512239522658068
Fe 1.7122515041030948 6.470613421594929 5.021891173670173
Fe 7.068411976962473 3.9558903164011165 8.128294337486558
Fe 2.7330450579185284 8.451925964703955 4.331046939159044
Fe 3.488440270288442 2.681999454529834 6.4909184516329494
Fe 6.5806752521929255 7.448601353755207 5.362420961478205
Fe 8.810727721006785 5.542868850406014 8.117709252107826
Fe 8.622891936398196 7.389897493643576 6.641585952090216
Fe 6.5014454614440425 9.639388771821777 4.053623932155911
Fe 8.63080490016451 8.942927615382622 4.77982814698157
Fe 4.934584399414908 7.801041307473768 3.574104182365937
Fe 3.2451671077150843 6.26961783723835 3.1645103593354307
Fe 3.2479375612784107 4.527445044884602 4.840282669958767
Fe 6.415264983999969 2.5281499409667676 6.28859771793555
Fe 7.418117839754047 5.116742475266371 5.729558723272294
Fe 7.242722742261942 7.510339277456324 3.003800996773341
Fe 10.109957024784382 5.473298946380345 6.16652452096329
Fe 5.6657806199389835 5.280840758475709 4.291186426824718
Fe 8.816729667754505 3.3287193636702788 6.534488199580008
Fe 8.98863924614868 6.60532944217593 4.40473261396866
Fe 5.482516799799384 5.9943637938370395 1.914550661951733
Fe 4.948661206219118 2.878170646984682 4.416634172292065
Fe 3.8695713800859197 4.069922238523468 2.590940972101588
Fe 7.3489340473935885 3.148173343702595 4.247319885678596
Fe 7.796252065221661 5.163546241452733 2.913782796922201
Fe 9.472128832023564 4.108768905939892 4.418094339826051
Fe 6.100836435985 3.72124414527242 2.2410009040599523
