49
Energy = -344.29106236 eV
Fe 4.4748948291115065 9.135498608448742 8.96307044685065
Fe 6.958884021150832 3.874106058979117 9.061911895702776
Fe 6.332107375345792 6.1093479161995 8.482259610944428
Fe 5.310713764215542 4.966044396787145 10.50877989545349
Fe 5.9706971740789045 10.964220920048433 8.309955923005225
Fe 5.684697159168618 5.429335230661947 6.271979250336569
Fe 6.356863531156979 3.1957418489497047 6.78158963194904
Fe 4.187492798883265 3.7711636464143763 5.871160848301936
Fe 3.9713578256457414 6.526309313737291 9.122370508348896
Fe 4.659715384660642 4.336922949445133 8.250104316975861
Fe 3.3450765993784963 5.805246052469762 6.676514137135109
Fe 4.856618830657557 7.59956318097766 7.219121065574705
Fe 6.384961418149273 9.440199563074444 6.35060008451145
Fe 2.659016579685318 8.15759380742723 7.503032730154376
Fe 3.4492554032410903 8.005142103820441 5.179561866437557
Fe 6.064474441993121 3.8687763285843806 4.468799424068247
Fe 4.259520637217545 5.650493501914788 4.350064711051266
Fe 5.238377829730623 9.670727289905516 4.298780928653981
Fe 5.714348244639096 11.564659384299139 5.901508827697987
Fe 4.029838382242258 9.978748681159699 6.623779592010989
Fe 7.530977532169297 10.691440200322004 4.4202672535205885
Fe 5.694708850838025 7.4583112964369045 4.78114523514757
Fe 7.137780190794762 7.212879713420055 6.667385317248434
Fe 7.568558098698618 5.844903091315085 4.779589268254964
Fe 6.757786772830796 8.562686740218087 8.627963913033549
Fe 5.820954806749732 7.452669922866509 10.496077971296938
Fe 6.267293404467984 9.929934772854114 10.570166418992141
Fe 8.069424879172601 11.093622490587855 6.800246595587431
Fe 10.342551355521767 7.753677746279204 4.37930295324628
Fe 9.7985520339351 10.048250094937343 5.21504503424568
Fe 8.704738045511192 8.930623908740795 7.125087131678645
Fe 10.178893209962542 8.65332144622949 9.135327588832867
Fe 10.873240290298893 8.534927514046979 6.707424077528218
Fe 8.193181145901631 8.271819698123503 10.724463879625565
Fe 8.272458548429755 10.27859362650802 9.192328076402879
Fe 10.991570184207184 6.444041816076336 8.14590648209645
Fe 10.335795588574594 10.579226085530783 7.74972322740036
Fe 8.636210937614289 6.93240652382065 8.545506934319933
Fe 10.002655621950653 5.216053042749165 4.584214728677009
Fe 9.364138607841124 6.777103974410696 6.181897004949268
Fe 10.042067001496394 6.625307815420509 10.48645151776116
Fe 10.324981071492052 4.47537143891849 6.76500251521535
Fe 11.797982491155881 6.45424029672342 5.931337612362548
Fe 7.954625260278295 5.010832178507673 7.108913084316201
Fe 9.403111763694628 4.675578524595419 9.032441317658797
Fe 8.243524425547577 3.5255313622279454 5.306276363285758
Fe 8.599890547973141 2.7566594191172276 7.658253978712329
Fe 8.0283785727816 8.483177143480031 4.719146345673211
Fe 7.676689380321562 5.798600395066697 10.489795646735637
