42
Energy = -293.07529145 eV
Fe 6.600416222518282 7.890471011754329 1.433035703092422
Fe 8.04847601970063 9.177042362356177 8.405732488683368
Fe 7.429702385684977 9.398876223236972 6.078641581504263
Fe 3.6062077915809962 8.432034997483054 6.622160236379093
Fe 4.90549696883013 8.51725565694692 3.1506505406517165
Fe 5.584272409478486 7.898450197649648 5.311317568766088
Fe 7.123652818753345 8.854484134343044 3.5727759975364135
Fe 3.46892801335241 7.098669695699284 4.3953902027788
Fe 1.8639700783273776 6.782660994031096 6.126363295227019
Fe 5.677907210869648 9.355128218974635 7.655756997106319
Fe 6.090971825627009 5.673042044193978 0.7209291899890865
Fe 6.596651255828879 8.110241489652651 9.794374991426087
Fe 4.814038148878886 7.297222284378961 8.526097573321492
Fe 6.55298542236595 6.375400934275966 3.342400692784246
Fe 8.097517793137554 7.342049164265306 5.153025591098719
Fe 8.766522319853035 7.392904265613833 2.7907673246265636
Fe 9.317843431940169 7.817976116173785 7.106790798756039
Fe 4.449644166028253 6.381930831566038 2.2209898168718025
Fe 2.504872050983292 6.940894915644086 8.352067309078942
Fe 4.32380425080261 6.112358399466361 6.563603441178232
Fe 6.839820861507552 7.210857574709834 7.27595093491513
Fe 8.663003182095746 5.53834303915242 6.802188788143106
Fe 8.268974917703831 6.480449585551797 9.054884834636889
Fe 5.927154174641895 5.838188432743187 10.238357124390784
Fe 8.948715817132905 5.381545971376207 4.276406531262501
Fe 8.09800566664 5.3121306848365615 1.8436123263790571
Fe 6.331508758361789 4.878796184622316 7.970588809613351
Fe 4.031447766659513 5.028752657105497 8.899774206471285
Fe 6.571058797967048 5.337407010352112 5.55833962643452
Fe 2.498368435159083 4.767759202969556 5.134673333172257
Fe 2.269957728534482 4.636634908951257 7.456945766032897
Fe 5.642860696652015 4.081050181735681 2.289056542962706
Fe 4.372491275794333 3.7790849184668245 6.383434768972313
Fe 7.871255932015975 4.628776993946007 10.427880605032227
Fe 4.662546912209268 5.046569938502675 4.219280587253385
Fe 7.527572621193739 3.7093228629610113 3.6023330571538357
Fe 8.385135462377848 3.681727992792205 8.38187718104569
Fe 8.083977721622334 3.373272320727456 5.950586425155528
Fe 6.045584269677214 3.3158719833616344 9.703931891369244
Fe 6.328361318334574 2.5373017574073407 7.214896175826874
Fe 4.158763813414748 2.7417172892448787 8.396285285968437
Fe 5.747375500400925 2.852628305163912 4.777120427360851
