48
Energy = -338.08088289 eV
Fe 5.152503645500971 7.251944194415153 6.403919030530707
Fe 7.602100332227703 7.055034378323412 5.715122992288586
Fe 6.963771636905433 7.580775792811848 8.108286968642528
Fe 2.7963718960601707 6.783135434822058 6.9135793125554725
Fe 1.9061594391021346 3.1073997237578266 5.68732185210379
Fe 4.00680279703805 2.3733588115293194 7.01331198788081
Fe 3.057491282479844 5.308684107944914 5.17236240886535
Fe 1.9396063836782096 7.996650487296182 2.4028050594380246
Fe 1.001498372822135 2.0110287595194274 3.452137712183623
Fe 3.653637747234955 3.9115744158202346 1.2464907072775442
Fe 1.2195332027362011 6.9863705172589645 4.546271657725213
Fe 5.03666917416469 6.318051915945417 8.840009101440106
Fe 7.572636573513491 5.693689572191755 3.5138421671096123
Fe 6.381004475584411 4.168999054549046 1.5854427916383143
Fe 7.326441277748912 5.389410747888951 9.531476648640263
Fe 2.1174904650867985 6.220044523589139 0.6361338473468281
Fe 2.795756738181508 3.517449256658818 3.466768564031167
Fe 4.2677652864382765 7.645173928294988 2.0083443238735095
Fe 0.7421755551869721 4.571152702260816 4.152617565163046
Fe 8.219996532284132 3.5412223389329758 7.955162952877976
Fe 2.628911856676629 5.763342883418301 2.768858143460449
Fe 5.832587011197394 5.39112738786228 5.1970590623826345
Fe 6.69694998967953 5.41288304225949 7.313230601289578
Fe 4.4273404334432716 4.795604702745256 7.1686280522159835
Fe 7.036386920990467 1.6436040497419484 2.6416254776810937
Fe 3.599458336311608 7.413509562856329 4.39139608242775
Fe 8.938469856466835 5.890301602885979 7.703238478868717
Fe 4.926517052012755 5.26307641696029 3.0722022467096624
Fe 5.403690464703432 1.8912043748185976 0.8525059090848799
Fe 4.7176679216491895 0.3510158980621217 2.705756399846076
Fe 8.11869499974915 2.1292642635817187 5.124158457017057
Fe 0.2721369375489371 6.160732597701567 2.363450984777679
Fe 5.778075644555566 3.687979314788814 8.80844507857817
Fe 2.2497992416680654 8.902585356150272 3.0536578130416063
Fe 6.544480176171447 6.691582116084766 1.6514376923530414
Fe 4.854710789809407 2.691050229045829 2.850593436584861
Fe 4.593474997420718 5.904090255042173 0.5829359924040596
Fe 3.3125778259881393 1.3863251634987648 4.631073669056874
Fe 8.319042894429696 4.591393063620325 5.677949881972906
Fe 2.30927247159557 4.227070818013193 7.736466054824157
Fe 6.4006407500717595 3.1282539201861885 6.490910605988827
Fe 2.816475364234157 1.6987220564726933 1.8013482724349388
Fe 6.830859263171855 3.5536085643189605 3.9559747216386865
Fe 0.8228708024573246 5.43807983335788 6.367320164311058
Fe 5.7811113838096775 1.3373227189768364 4.735122826067348
Fe 1.2163004615621058 3.969732812214872 1.7113314526714125
Fe 5.919636025115594 7.475045658890809 3.9079395142508297
Fe 4.550894279366929 3.3873282946986834 5.042422242277161
