45
Energy = -313.99332768 eV
Fe 5.635230159211734 9.592469033951051 10.054528218930113
Fe 2.1683946575549053 6.862942735732353 5.187375837939871
Fe 5.177843158317683 9.499409659955099 7.840043328116206
Fe 2.296709769848858 4.583335620912177 6.058704643045936
Fe 4.557157502604103 10.398620121859045 5.712353541077994
Fe 3.557499157366471 8.318945334040441 6.587564540638661
Fe 3.049208934637067 6.2127650563665595 7.552357862895355
Fe 3.8054290961056445 7.973836693507418 9.018602264922544
Fe 7.309260972101123 8.711594227583177 8.308304348286823
Fe 3.962937009310485 8.596109187082694 4.2635935483474
Fe 1.4485767071226114 5.327717830042398 3.866489421519248
Fe 2.7158948690371627 4.145324322353664 8.501231330740787
Fe 5.785549179958082 7.482303708924012 10.257716430584491
Fe 6.996357384901432 10.250901148716016 6.341150780406412
Fe 3.5619913495198348 6.483813986401168 3.211304168936628
Fe 3.62972919840163 4.256988452005967 4.141010506189861
Fe 5.95155996234125 7.61459771463571 3.436072174622211
Fe 4.859550131163038 5.238348342082632 9.226278789793481
Fe 6.183717189325005 9.986688608685258 4.079048305718106
Fe 5.968520546755455 8.202644051639162 5.833510726713852
Fe 4.619698572465882 6.221392101701119 5.335261120438277
Fe 5.445291148878148 6.881627330648916 7.684650691246203
Fe 7.257455057234245 6.271537773363167 9.07164357290735
Fe 7.947869414461206 8.456029470628225 4.617339568052755
Fe 4.435186846347904 4.237927147802739 6.783658101909028
Fe 7.301720742047028 5.879708725769703 4.894302784251029
Fe 6.817319675536323 4.873369344761574 7.0773269929867
Fe 5.609793136247867 5.33158505894451 3.0327631372530135
Fe 8.069646796785502 7.094902370597321 6.896249805229657
Fe 4.749175338397594 2.9242150673911724 8.744161569981571
Fe 6.980462934947517 3.843703027583525 9.179586271804936
Fe 5.8049149472289985 3.8403589581876028 4.893264331383243
Fe 8.116613181501148 6.445109107325824 2.8529917300912664
Fe 9.74277628033948 7.023634280171877 4.849559779571408
Fe 9.185283928648058 9.08420261388924 6.28711313667751
Fe 9.266997022878428 5.064372141842478 6.3523997870513815
Fe 9.12665131094019 5.115641084777344 8.612717037495292
Fe 6.2957110874119335 2.5546614123984566 6.886527612548679
Fe 7.561394755419342 4.040009772722864 3.055258895081659
Fe 8.598412362899476 3.0011802961986738 7.600382894355504
Fe 10.434305950005449 6.922352062976795 7.102236751169928
Fe 8.059277382877806 3.302381112739379 5.276025335986378
Fe 9.649705384764383 4.753194361588388 3.918143404927519
Fe 11.432467709470327 5.465942708485387 5.3888631315010445
Fe 10.400369845002047 3.19365712968075 5.637104769193489
