47
Energy = -329.25846235 eV
Fe 3.2834732280257186 2.8151060183558334 0.45558167855974996
Fe 5.832029362149679 2.987222741803488 0.7551829120101248
Fe 6.291777092809341 5.400130269361274 0.7478506343311648
Fe 4.782663726406461 0.7451046745460499 1.0853759121825408
Fe 4.160104122199139 4.7539172404824255 1.5451258943118393
Fe 7.903761341969201 3.8611517570382032 2.0019728871054845
Fe 4.817407802137695 7.238955600329411 1.590558089370957
Fe 7.137138320620097 6.431978261492111 2.6203686871324674
Fe 2.496225316862472 0.8519652926589945 2.2555264081048856
Fe 4.150865390989496 2.4829448576549713 2.4761089862003
Fe 6.603989069519802 1.7178636878059497 2.640868390620838
Fe 2.0332868700593782 3.579209170179725 2.516367728453519
Fe 5.991902334954925 4.220990542317398 3.11922708013775
Fe 2.59179826951124 6.079401695677508 2.4668522192868205
Fe 8.26547345844155 4.892629083410243 4.28889521854097
Fe 4.7004711736402305 6.204955835196595 3.6992251461242476
Fe 5.927318683857096 8.371814539492517 3.5429497288062213
Fe 4.570607378378968 0.23701465471346794 3.4293919719768917
Fe 3.5971614941861603 4.23877741134121 4.136249540677892
Fe 7.599392852850136 2.7124665933775116 4.646260173594287
Fe 3.2704007011860203 8.180276065111478 3.518425977987344
Fe 2.647463942079617 2.056484689368747 4.520596382092012
Fe 5.145465678605754 2.3131256410163314 4.534605988990966
Fe 2.483104955296467 6.436966738267747 4.877532260409451
Fe 2.4536783925591443 8.675566932472107 5.943607559449086
Fe 2.618027169271228 9.891028623892433 4.331520451827639
Fe 1.901111790389309 4.218138709049259 5.774912289679173
Fe 2.3098682984983445 8.960021958496133 8.193012192842968
Fe 6.550954936292285 0.38939505596798146 4.905291608290609
Fe 4.462443279493493 9.85197857439176 4.889988953558168
Fe 5.749114990144045 4.436733788586864 5.514958144327497
Fe 6.256731875963623 2.1345479423575173 6.665700126583253
Fe 6.775716083484209 6.553885462067586 5.04091630126983
Fe 3.785118592294648 2.9706094505523817 6.367987385072471
Fe 2.02355755389896 6.526104742137063 7.294699178190999
Fe 7.683460007196995 4.495474623821656 6.703949473840286
Fe 4.486416676088243 1.8384422538177478 8.265209440700389
Fe 4.529300991698483 7.612858708075146 5.569732562339564
Fe 4.320825479365928 0.5742501253877987 5.972289335681685
Fe 3.8029687077509786 5.428858148050009 6.511951651527764
Fe 4.298656299613423 9.891028623892433 7.192285603916931
Fe 5.452966476297796 4.028773873113246 7.977787457220222
Fe 6.336796957332192 8.672685631212914 6.350653686202524
Fe 6.0807077604290125 6.30385863389254 7.339660062621958
Fe 2.8613996153240726 3.876332970676535 8.211393371552118
Fe 4.119555931578404 7.648450911101467 7.8060585485622855
Fe 4.154451064256089 5.71422281251675 9.002446213693185
