46
Energy = -323.46931651 eV
Fe 7.236331054579943 5.428187409028325 4.16687192435387
Fe 5.185804816319692 5.137115372317584 2.9954640352805417
Fe 3.623714899302509 3.0022183830295828 4.105784644543595
Fe 8.678324378633917 5.602615629150017 6.115546160259824
Fe 6.220481822994165 3.0997613169920974 3.766113642333918
Fe 6.8877473735167065 1.6167808139461353 1.9355667916654284
Fe 3.3289524074527783 4.3795023932410295 8.791011490530671
Fe 5.080114191571824 7.781206086335352 7.123117168470394
Fe 3.900087893352468 5.494116911524703 6.870945190790123
Fe 7.757396793128461 4.647776530171949 8.167795510977621
Fe 5.410945194885974 1.85078179272154 5.691469827073681
Fe 3.5480367402134707 2.9363050283935195 6.667783604893699
Fe 0.8390373960075561 6.247348620445712 4.95153262607741
Fe 1.2693285007113342 6.127762342016886 2.527888584644012
Fe 2.4180948485836513 7.885192768107439 3.8277033762094055
Fe 5.083770440745246 4.331954348922857 5.311912788960775
Fe 5.542330371003447 5.797440286318394 8.874028734499273
Fe 4.93468624457499 5.176367503396189 0.6417133543686424
Fe 5.584282204226478 3.6511052821133143 7.695820053810957
Fe 7.429091283469677 3.4273187766019673 5.9413484399080785
Fe 7.056255222942026 4.17365178220224 1.7586723483787694
Fe 7.349323967755346 1.1845870146495434 4.404035830656816
Fe 2.4809179730054955 1.9573277307865162 2.2970075973817297
Fe 2.3682872870943137 5.711675757575007 0.3710565522037387
Fe 7.3450085077613405 7.176453345296834 8.015832237266258
Fe 5.954275546961056 2.763405556018133 8.905394646979722
Fe 4.7959148821215765 2.989465232557633 1.9039559558903913
Fe 1.5168903533787241 5.616116387468348 7.465889990670768
Fe 3.365072323204719 3.324912924671028 8.874028734499273
Fe 1.967152424582512 1.5221900624740339 0.06000357649445754
Fe 4.26716456009077 1.0435088732110145 0.7703236177123729
Fe 4.888224606623708 0.9732068008260273 3.3555897065578906
Fe 3.4073286594718213 6.923333151612804 8.646608154646339
Fe 3.0601774171239313 5.5463891082419075 4.358343578696534
Fe 8.518082469538452 3.3409327278975294 3.6649468471830104
Fe 1.0935340025889675 3.6661537232100576 1.0084505982854801
Fe 3.0183082349191994 4.490808896701503 2.158750209853545
Fe 4.990316075578514 6.917306492203656 4.749913532216793
Fe 6.343584575414466 5.734153373685682 6.522006536800189
Fe 1.7329889557061648 2.0430026601317373 5.0925802125391515
Fe 3.7759166275985083 6.865959231768484 2.2358679758494104
Fe 1.5178888442161038 3.0963851008626895 7.763195399818585
Fe 2.786121718923142 7.357810251804122 6.140792696059956
Fe 1.1008015615913598 3.8741284312392192 3.5381935267205566
Fe 1.7881457193446755 4.186351935062037 5.776479692933979
Fe 7.2718263282645506 7.617993554144115 5.573076833947103
