48
Energy = -335.31307885 eV
Fe 4.91852045412661 2.985033924127376 7.92993541117374
Fe 6.374062765508578 4.188013852053126 9.873746043335759
Fe 3.4509901425880862 7.389040643746888 10.06708256096619
Fe 4.268441242291719 5.14479404318487 9.019127989494796
Fe 8.706518073950495 4.2939146650407825 9.240624441344613
Fe 2.271280974715093 6.46571115051403 8.266704690758264
Fe 5.648981030100235 6.70426313505076 10.442570086073165
Fe 7.042259484526695 1.6187799563193108 6.313827228024702
Fe 4.1062708321620836 3.0729844247809637 5.524304088673486
Fe 2.821979714745253 4.307854423537886 7.171715774847852
Fe 5.026156983960328 9.132243187296355 9.595205947712127
Fe 7.0845139495541725 3.6284099108581955 7.516369624299166
Fe 5.072930599845382 5.01039202303563 6.709350143667294
Fe 3.230007090756325 8.7829320224563 8.005180414597554
Fe 7.905941523011293 6.122961980963013 10.61365816908622
Fe 4.986056538289818 7.230244285528376 8.038968412838784
Fe 1.4885190894069735 8.144277370750755 6.6402897324865195
Fe 6.904136775576554 5.8621364791327135 8.356522809237893
Fe 8.263886475647848 2.652963872753512 4.420308868465787
Fe 9.190209617880729 7.027233179643897 8.884702948077766
Fe 6.3435809908357275 3.3565355381383095 5.185920192940616
Fe 9.118083318038309 3.1558971237981215 6.594101846343717
Fe 2.8617635346445227 4.991790760720801 4.639153578079342
Fe 1.2094697176977194 5.715612310506137 6.249288626444307
Fe 3.469187336129437 6.733764681906627 6.131927932448003
Fe 9.22280969377071 5.382457885607461 7.277190966972302
Fe 7.373457771307445 5.382647927337993 5.7850795106526025
Fe 1.7497296821294817 7.310076099831144 4.423575590071032
Fe 5.158031136179135 5.285807142060165 4.300132174978666
Fe 9.441748488497597 4.834588326409998 4.855416269867963
Fe 7.125455520803666 8.2223181219937 9.249186313711864
Fe 7.329037258503483 4.694706464498943 3.3504209455569915
Fe 5.7819557832442205 7.34165205438626 5.585271088073229
Fe 5.733397400455092 9.21327202166363 7.080370959386913
Fe 4.02374984481934 7.3666473266752 3.8214864339648043
Fe 3.5568598365447968 9.063410118236115 5.5960361288651965
Fe 7.73854464509456 7.603537350830215 6.970091549168792
Fe 9.47656769820754 4.362331001318651 2.6168348814735585
Fe 7.923311461951098 7.113764578982182 4.197966299561232
Fe 9.736750352218175 7.275908675502362 5.716670123991783
Fe 6.100873462425495 6.966069811495157 2.728341696151033
Fe 5.696962972293457 9.12305187053919 4.1290635109787575
Fe 7.742507283918847 9.336387175156613 5.356796074499785
Fe 10.341238726075455 6.5314787293095025 3.4276319136777524
Fe 8.267914950001021 6.295030282742394 1.8371130304774188
Fe 7.63448609640619 8.961897196049046 2.6750565359462546
Fe 9.691381096613837 8.9836168401083 4.019249980924677
Fe 9.677222675895742 8.139568342577336 1.901654495964239
