49
Energy = -344.35022464 eV
Fe 9.473201129491086 7.775284407755349 8.68669248630202
Fe 8.304422596051392 8.853873570153448 6.503545400351695
Fe 10.533551730328368 7.96577635611098 6.562317519707659
Fe 9.386340605083655 9.038927952098483 4.461932231621539
Fe 11.672017364957599 6.938259004260121 8.61059988166423
Fe 7.170634455381813 10.019659870570162 4.502312346855522
Fe 7.227543973042111 8.745252186350273 8.748324438429101
Fe 7.338454859924295 6.346501471388775 9.358545090554275
Fe 9.358083443184888 6.7128732868980485 4.957239257407412
Fe 10.45541988977153 5.579943013788447 7.0335342905510965
Fe 6.054932143164872 9.909743365455933 6.731207084389573
Fe 8.574447029901998 7.850931751495234 2.6765578266948538
Fe 8.25657035568202 6.540669101114939 7.10581476888123
Fe 7.024133072686575 7.491179997237845 4.569680116080615
Fe 6.416681367336864 9.063059141750907 2.707857366824778
Fe 9.563486220879238 5.465289909615043 9.238338610610995
Fe 5.002710245958083 8.878445130477122 4.8467255678052235
Fe 4.873236663113655 9.505600476309253 8.720360719696066
Fe 5.057780690608903 7.25161336100881 9.29753908502817
Fe 8.292893247756968 5.4488124150663175 3.2246031535411723
Fe 9.195914093372078 4.3043957487118405 5.428754876981204
Fe 6.052172175727487 7.533121538754477 7.081712483046821
Fe 8.27238461527532 4.1318219890889125 7.709164303825644
Fe 6.024636762354481 5.1153538799992875 7.71005804588768
Fe 7.377714735212668 4.028058083912066 9.884085434348368
Fe 6.652101767600581 6.619505827326865 1.9933719133614871
Fe 6.699041707569006 3.9984811042470687 1.8864745335827648
Fe 5.139656105419184 4.813265079970106 9.891558902821513
Fe 3.8039991653669367 8.469715009129787 6.87696670704296
Fe 3.7814913885103643 6.0272647920412235 7.644608601803181
Fe 2.6447459823937374 7.896599290748019 8.875716347360065
Fe 6.6243530568273945 2.9370221512344985 6.042031931481845
Fe 4.6465622699206754 7.302555403187784 3.0638007748658396
Fe 4.781638864383139 6.444623545211368 5.456310969389408
Fe 3.07684039098907 5.860176594133095 9.978835497708051
Fe 7.072898894827259 5.250528630190137 5.504690259020065
Fe 7.592037570576281 3.2731471185605994 3.815348860981425
Fe 4.527829662417872 5.255159841655342 1.6884626207059932
Fe 5.766538291724234 5.12678047453439 3.6405235478834452
Fe 1.6104569707827376 7.177632085878189 6.847106213375617
Fe 5.934332230933655 2.8556280289208784 8.393380464176099
Fe 2.783668133278206 7.4101973456767185 4.782886529890011
Fe 4.58978503928032 4.131228472084258 5.913528331940204
Fe 1.5624765857820555 5.234480444511361 8.294211596506894
Fe 3.7224593129969303 3.7324070523760073 8.186042104056312
Fe 4.555558388385334 1.9557586832413596 6.429204564552797
Fe 2.3703873710970993 5.080696001914109 5.9491651959343725
Fe 3.4408643750271377 5.211724764487777 3.8655949259325086
Fe 5.139482294972015 2.9195445366763617 4.101245505848461
