41
Energy = -285.78851376 eV
Fe 4.718830761522049 9.340619541222916 6.4704497707915785
Fe 3.7584222191221093 4.334679454513928 5.424099348162046
Fe 6.9643525185157245 5.366368851283705 7.719035631266834
Fe 2.3446695479319413 5.817160915654515 6.856257186220634
Fe 6.9384545941422635 9.794199430321658 5.1763882413013045
Fe 4.407672180612546 3.6650004680000503 9.584428926776607
Fe 5.8107411141435685 2.746715875283452 4.918095583401834
Fe 9.394365944063418 5.197875576690433 7.6574013936237115
Fe 8.899246596628043 8.961528692588887 6.268186954639066
Fe 2.877547671372599 5.67796487358732 9.431938906341314
Fe 7.423071741986222 5.089651114040622 1.9280741421482215
Fe 10.23887190796561 6.761036088192077 5.917107734910547
Fe 4.197949663961285 6.979655570127388 5.935143280585342
Fe 8.214459439797478 5.93974189769797 5.724081628277086
Fe 7.712084870949324 3.4962419935232525 6.515748641351122
Fe 5.1756092013298085 8.395400388189993 4.155522563597069
Fe 5.63238860917365 5.7194509301231005 9.950915471319739
Fe 8.261882726211498 7.4001295781412155 7.9208612850485505
Fe 9.87357601789459 4.243623364078418 5.508879108079546
Fe 6.974714573600346 9.513578407596013 7.6191261344356205
Fe 7.65266153028102 4.041181413817933 4.248124087192502
Fe 6.8573450572751335 6.471682104730627 3.7659035871446216
Fe 4.24768237938835 6.3070070211200475 3.7797119368064895
Fe 8.636662788777079 7.98710195122939 4.212668861785441
Fe 5.381404968938956 3.2525892112671992 7.19739033374184
Fe 4.903008993392948 9.645147564621196 8.835776736740925
Fe 5.748777146726006 6.974980749532407 1.8861222570942608
Fe 6.715145330787573 3.6617290216767575 9.168309257034675
Fe 4.479129312865677 5.431407269308012 7.803354130364455
Fe 3.024136037984752 3.5954260130358255 7.664495199493269
Fe 5.476130937475075 4.433326156930173 3.1955579539639283
Fe 9.294821064897501 5.701148841465884 3.5788573118929086
Fe 8.048363771098078 5.961775252715416 9.692714531314907
Fe 8.369708665211657 7.197237882534481 1.8778473406415586
Fe 6.652914266856543 7.592305936814911 5.960128597975876
Fe 5.873287344607178 5.203835510254275 5.576746684327091
Fe 3.2435931149270276 7.866154686440026 7.993699539028919
Fe 6.962540763288376 8.943630564365913 2.7544456396145236
Fe 6.685900805045078 8.082204553445205 9.864393424746666
Fe 5.678295386934596 7.447185569770768 7.979205228741275
Fe 4.276391098040499 7.659135597737947 10.076900393069023
