42
Energy = -293.81591474 eV
Fe 9.749157171958748 6.53291316713878 4.8944392705740825
Fe 7.95871246420071 5.009129870218294 3.3149369484136213
Fe 9.73794015843247 5.27183419637658 7.2363887109373515
Fe 8.991544980138942 8.888122086013306 5.3365061282590025
Fe 8.251598928496147 4.742782407404855 5.4095539729700635
Fe 7.802351750035334 7.398282493657107 3.8022678535855468
Fe 10.320765275464357 7.679922697914287 7.019130209851684
Fe 8.379671066904653 2.8373724470922657 6.645539251840037
Fe 7.556983814113963 4.856926708939135 7.937777554704064
Fe 7.195593414461256 2.7537538247072493 4.345702131540918
Fe 6.125451959872434 6.1542527402461795 4.806712142735194
Fe 6.24137265658722 6.400124963341735 2.285940426024836
Fe 8.84337684020429 6.873051770250574 8.860203630160782
Fe 6.485085531831638 8.41580533548567 5.904857930940353
Fe 7.515062749829671 10.780195642646824 5.986087084974734
Fe 7.14955188525651 9.651507943006386 3.906648463186226
Fe 8.069847985186183 6.835678263840804 6.486824188020936
Fe 5.32515991918252 8.268669451309147 3.453765448273806
Fe 6.318760521674658 1.5232878427213228 6.083613769277726
Fe 6.696522344406883 2.508338573130695 8.230512155866734
Fe 8.386609149952381 9.054086786225568 7.595296156383195
Fe 5.536743208454267 4.32690437052112 3.4906238168025956
Fe 5.064149819005035 10.039283635577537 5.413124260372557
Fe 6.185424762673662 9.99659737898218 7.767293470427461
Fe 3.996138132051859 6.158603026877138 3.290925155472506
Fe 6.168123873202202 4.0550713729519146 6.132836603144536
Fe 4.544448122339708 2.6400285706902196 4.786023862739619
Fe 4.453339571874564 2.759667066849082 7.177380674076321
Fe 3.9761990486930503 4.941850834714967 5.554966244140283
Fe 6.566611770637854 7.705022081468688 8.333326510229087
Fe 6.776056574680039 6.0447028581832605 9.868035413242925
Fe 4.179388366243359 7.608457064259755 5.364106005223124
Fe 5.412521395318709 6.154748363258075 7.0724344843872355
Fe 4.42603181847142 8.4544592409525 7.526556094612416
Fe 2.628915474981555 4.222315785858745 3.8890955952240183
Fe 2.4099976823884006 2.776594846777855 6.0153948726795
Fe 2.1426918175482874 6.71022687873365 4.632986592339564
Fe 5.367930253379563 4.432649634003481 8.685901389418017
Fe 4.409131719744044 6.7490222407826606 9.065182123481152
Fe 2.803835732946224 6.7307327654851745 7.061378960323724
Fe 1.5186749667889483 4.968411758662116 5.975533726827892
Fe 3.062607991390353 4.561028407495514 7.863873275654388
