46
Energy = -324.68397429 eV
Fe 5.901751802907646 2.60747761648938 3.8343153414434727
Fe 5.211923818571737 2.939247031892684 6.143862893028073
Fe 7.56960800307817 2.756456509546011 5.421959043009248
Fe 3.4860789812718656 3.0624602555090594 4.314785187858854
Fe 8.08938446971448 3.780363129099073 3.129083074165619
Fe 6.652505515915952 2.715915208365812 7.967041374706451
Fe 5.101906983913264 4.247299112325668 2.502986255268306
Fe 4.217227241953541 2.4714840223601278 8.328743200811287
Fe 9.050109881846156 4.6514675158764245 5.230072949470207
Fe 2.974116279490474 3.6393416784113413 6.758365706950251
Fe 8.904802565573398 3.3517047074107382 7.389791004763015
Fe 6.9493796380709645 4.819544919430459 6.541530620557107
Fe 2.832901321405033 4.917196858551146 3.0891245867990302
Fe 4.475443247533218 4.9988295363653785 5.116097311111041
Fe 6.671644536421174 5.151462332096084 4.160350200702754
Fe 1.873173018317335 5.024225092059932 5.177563728376214
Fe 3.302616662684734 4.70231346178091 9.216485302392986
Fe 9.12830765989519 6.323414005622523 3.5845701656539344
Fe 6.999854541195234 6.209168809091548 2.142910734157569
Fe 5.464249582492742 3.624323461108841 9.954495394509777
Fe 7.494951862324244 4.74062381038461 9.003574057660726
Fe 5.048158132241605 4.872028248738125 7.8461964080935305
Fe 9.13223682343069 5.719640501170401 7.500654658583853
Fe 5.778771094547627 5.94012530470407 10.143071785740227
Fe 4.540107241065096 6.491972148378102 2.6688295744968418
Fe 10.384519009259007 6.6717916478437385 5.676558251744247
Fe 7.850600776660334 6.841815767067956 5.627462278838923
Fe 5.196313675542222 6.941456278531802 6.405847707990946
Fe 7.792044451515809 8.290662014813078 3.445659802351691
Fe 5.954417963779453 8.330617417085394 1.8784764989700327
Fe 2.9717231201703274 5.994568964977615 7.014828240855782
Fe 8.253293331466104 7.146740966054839 9.650688394098653
Fe 6.830768888755178 6.934447361465955 7.982420384840655
Fe 9.35349588737223 8.690053321773036 5.156529881751225
Fe 5.8147456931865635 7.460913418059616 4.276969073441444
Fe 9.070775551768117 8.085942425748812 7.449417433655392
Fe 4.246369681039128 7.076542443441962 8.774795814904367
Fe 3.2261853885995535 7.0545202875485415 4.736385298246475
Fe 3.9557395879227255 8.77001791112679 3.160279506038914
Fe 6.112808226380936 8.254167727982265 9.990431841279843
Fe 6.966485618714149 8.973436220657941 6.045261792749866
Fe 6.127408259736978 9.884041933637272 3.849615263022548
Fe 3.0360162249658447 8.285560534869003 6.963434731091334
Fe 7.444084886207453 9.432295617633958 8.418356454755486
Fe 5.202683964350831 9.03500550394368 7.818511489768893
Fe 4.496288919873859 9.242104951263105 5.438188956985955
