45
Energy = -315.92579381 eV
Fe 3.5905440744110932 5.820516203000968 3.6750061888642236
Fe 2.1788998358786493 2.914157597177958 1.20898848328402
Fe 2.9977447702695956 8.109934462433925 4.8865855754752126
Fe 2.642183818162998 0.9779719822006778 3.0268122813652476
Fe 5.618701764027453 8.566726032052337 3.340584311482908
Fe 6.84103271777893 8.199391811014436 3.223902770441821
Fe 1.3435425852932597 6.139983202438452 7.043389813988603
Fe 1.205876545144848 8.424951114758793 5.95229621728191
Fe 3.159420026199999 6.614872281214924 1.063848001861727
Fe 6.072194456332349 3.0095700101519043 5.548868200552779
Fe 6.165573900753106 0.5858028216380453 5.684606289686597
Fe 5.292823782725247 3.8690838631956175 3.4534436710973346
Fe 5.26870971442983 7.688438318208943 5.11748775604102
Fe 2.9920958534587703 3.3272160261684913 3.187546530660974
Fe 1.6391926672208115 5.142960995969412 2.3752042693098674
Fe 3.389685720307231 5.9663704898686705 6.090614875203778
Fe 4.191234372701544 4.593383881348274 1.4181608671178136
Fe 5.440544847306267 6.690692220636535 7.4364539816432025
Fe 7.9082369387267875 0.1749265989047275 4.169518689489513
Fe 3.6710813534517888 8.424951114758796 5.222279988545591
Fe 8.215029533995047 2.210369044119343 5.51187990786592
Fe 6.6435976393684 4.281736102400474 1.6294172576625001
Fe 1.1717181806964843 6.515295256333789 4.489750888049448
Fe 2.0949241821845375 1.9324874562663215 5.219218189607279
Fe 4.4470465348276775 7.999418033673059 2.7835490143981656
Fe 0.7301723030172674 2.788692870555925 3.2622581199972234
Fe 7.70684423249649 4.394030190771754 4.079433924751197
Fe 4.902347874181835 4.2259915378971415 7.533089239756364
Fe 6.519917579663748 2.2168862851966553 7.637244452787747
Fe 1.5666851641310235 4.388594213995892 4.943537958642695
Fe 5.69655031450393 6.7094624267310685 1.0011601478325198
Fe 8.149661564513844 6.213166200043002 2.347652672895513
Fe 4.18734457642071 1.8249019898944154 6.826410656747708
Fe 4.7737628410671 2.145771878113452 1.9132447964522232
Fe 5.6707301710461895 5.392218335677873 5.446886604408111
Fe 3.330195011390293 7.88268494520793 7.3327724431797945
Fe 3.8024955879175155 3.758825277622506 5.351681490972283
Fe 5.992029276393988 6.0772025491415285 3.1439152937841484
Fe 3.3272598464282765 5.757193706629717 8.54483679751067
Fe 2.0708904860169737 7.777958048824394 2.753082207114466
Fe 7.490677890510822 4.48160739251005 6.672485762059552
Fe 7.6330031507537734 6.679623225544088 4.952471792280571
Fe 6.856290478697653 2.050617070465168 3.3434618455328
Fe 4.4612013033252955 1.7152570250744807 4.285349775592577
Fe 2.3423558385892527 3.8768774817011837 7.261661303442519
