49
Energy = -344.57293561 eV
Fe 9.578184282761564 9.056851680947803 4.476353673594228
Fe 10.537782750109368 7.014149967774058 5.757194779424295
Fe 8.885311582295653 8.617531902449684 6.638851772283216
Fe 9.739156376446761 6.900854491318493 8.228212839958983
Fe 8.589067977621871 8.7975852355478 9.189562004185357
Fe 8.786315954401884 6.750727609713463 10.492650184784226
Fe 6.333885927070789 8.581549376799073 10.216752368928994
Fe 6.818609841036939 7.9412099158776215 5.166045453510888
Fe 6.7817244107461345 6.862719340634489 11.70761867176481
Fe 10.015471376336635 4.881338389897561 6.715873538525743
Fe 10.265127655264951 5.0402037764558445 4.160015380073567
Fe 8.703984680842535 6.792004972601208 4.27796327428366
Fe 6.771254451878521 8.751070230228121 7.673074401110933
Fe 8.019635272520636 6.4249570996651215 6.657830958289672
Fe 8.607511657535989 4.785354810690546 8.749846617432336
Fe 5.093593202443763 9.233941758225175 6.062722975248629
Fe 4.721871628805008 7.627928571351846 8.786656915562682
Fe 7.017970043661991 6.590880846670698 8.964555453334304
Fe 6.934083220497413 4.821662880810814 10.582680371102132
Fe 4.737042464389514 9.836914792913953 8.252211492915604
Fe 7.969230985714952 4.764517676195567 2.982850612756569
Fe 7.732131595266142 9.071936589889473 3.131931439236448
Fe 7.346356008998289 10.10704146336657 5.347067057678892
Fe 4.821900823625594 6.269146223068181 10.603073731727076
Fe 6.746951718716016 6.9553381994630366 2.816313876611178
Fe 8.894004404415957 2.769343660322893 7.333686195756892
Fe 6.901561779096084 3.0927798421904438 8.959026854631148
Fe 5.320810967011836 9.091812679006829 3.6025932415750574
Fe 5.213296222524423 4.828612655580681 8.753983424271077
Fe 8.335622997452129 4.2523248926094475 5.216400419946416
Fe 6.8278265662965 4.406384679388736 7.001785512652127
Fe 3.1431100052772605 5.994681403944505 8.194942265753635
Fe 5.575179210518944 6.652918243113294 6.892652509538671
Fe 6.284209704273877 5.64680981518548 4.768821423145821
Fe 3.2048559388912574 8.006464998730403 6.945874082875885
Fe 4.208573340778129 7.208402789406741 4.807713068479005
Fe 5.662384280014677 4.609674305104289 2.478243690858842
Fe 3.13332308245096 9.659003849201175 4.9446180393518935
Fe 4.394260226532454 6.645142459360845 2.511764516708794
Fe 7.107813288300608 1.2011724313625154 7.726157951647553
Fe 2.9090318131225983 8.477668802934815 3.0211851137831145
Fe 7.512061183623657 2.029225035885502 5.622751275619227
Fe 5.385146866509423 2.590853214101961 6.999190790088733
Fe 4.453918207824514 4.737893562122302 6.418322033386505
Fe 5.812750340237292 3.3667787069798276 4.677355392697258
Fe 2.39477891353699 5.824834941803396 5.861844438512796
Fe 1.5968276503247036 7.903086195390757 5.145315603759599
Fe 3.9169176152194733 4.8170738238503645 4.090133251416263
Fe 2.138818712773273 6.28542464198639 3.43752381061415
