43
Energy = -296.36836936 eV
Fe 1.9022809627490622 5.880654584102184 8.3390898404233
Fe 3.353265590908427 5.217983740634448 10.354891589968831
Fe 4.056242928759071 5.601830454477656 8.19125340954685
Fe 5.538838549073579 4.235152258093116 9.539675928800115
Fe 3.1677997294189235 7.483009953004747 9.433638128690312
Fe 5.3576865397018505 6.555401415738426 10.14621851595833
Fe 3.0034692014942994 7.34698760273737 6.567260927252361
Fe 5.426939487948731 3.9653480532289382 7.091637743347918
Fe 3.297107198776388 4.990073944893981 6.01134662723605
Fe 7.115668058551043 7.123546627383667 11.437406096673575
Fe 7.782394776548002 5.277723753342525 10.025417730755235
Fe 4.000211654106328 6.681827173921258 4.2903000565281495
Fe 7.592910458530728 3.789836427472031 8.067060179616604
Fe 5.715827932197361 8.799833081561307 9.917883478701288
Fe 4.912096096815464 8.034103897251606 7.9139934031012515
Fe 7.085264616767763 2.9379348982263536 5.613552852721112
Fe 9.82044383401382 4.109514538827796 8.655006601668749
Fe 5.298201414905533 6.300461047746215 6.233330491542222
Fe 5.3713247368162405 4.545000989920586 4.71485621738046
Fe 7.692684799845691 7.7412312069874805 9.281370357310543
Fe 3.3843717481930526 4.654696002424936 3.4420850253568918
Fe 6.502207372120971 5.956458330674374 8.173930300759633
Fe 4.8096873456272435 8.648783710570742 5.47580596950637
Fe 7.187165851936252 7.794802247995908 6.819288858638011
Fe 6.184829030130294 9.865130784395998 7.158078319253736
Fe 9.25259613409657 2.7170038191166426 6.771429354137512
Fe 3.550301324534073 6.933796890958689 2.0019269835922966
Fe 7.657656082076109 5.2518717601814195 5.911304959487076
Fe 8.883536194041504 6.142796367871506 7.935888117669332
Fe 5.380903033708441 5.653531694992837 2.494308596398877
Fe 5.310630495215197 8.27997537238245 2.923545187575232
Fe 6.337447390522702 10.006466871883084 4.4796806929584605
Fe 7.347370278574453 4.610880917214485 3.4643460070962706
Fe 10.195075302831176 5.0437922758308265 6.32673595136117
Fe 9.30044728740736 3.7442787983032537 4.657121093067444
Fe 8.29017132471062 9.383201415125143 5.445348799123028
Fe 9.350519065889829 8.481327956135319 7.60859596587468
Fe 7.674409904699589 8.704214801625854 2.9580110193460474
Fe 5.819847309485797 7.399955425352241 0.8912740955719824
Fe 9.26022618360312 5.981926446333255 3.8257753155165837
Fe 9.167039892529255 7.241285860742333 5.628506094301618
Fe 7.593865362622001 6.513334887425944 2.067928163868361
Fe 6.7531528466771755 7.057147042070041 4.398010281477061
