40
Energy = -280.27816162 eV
Fe 5.493936759594411 7.174550817566272 9.615081662213905
Fe 3.15939777771642 6.520544519740944 9.155363822565864
Fe 3.9115220913255757 8.668681254599818 8.291463992454846
Fe 7.145684889394405 5.310847872380801 10.158424013952404
Fe 7.854387709601453 7.488947596964389 9.612072690367217
Fe 5.071298286182708 4.904973253299536 9.0240753158684
Fe 6.3227394908818395 8.666845592058916 7.91528583928887
Fe 2.504385289199097 7.103368424738065 6.851438126139823
Fe 4.741189114731829 6.593657315519007 7.184157861513113
Fe 6.967824000636884 3.4352245751617736 8.615324334145614
Fe 3.0918706732951646 4.581937992530687 7.75836544909449
Fe 8.951628158638465 5.257912024791474 8.574709874882375
Fe 6.018016460870853 10.181265863813927 5.776012615667625
Fe 8.187452437051347 9.775841864167 6.375074537749707
Fe 7.006187921135659 6.004154764756703 7.666771554438126
Fe 4.369067357066495 8.55885409608502 6.021357091261067
Fe 8.682221200607843 7.685443919827332 7.442567118697216
Fe 4.7174861684197555 2.6819704835524862 8.155952434548942
Fe 6.754305509585597 7.813231410259152 5.726605698930278
Fe 5.495847982730574 4.401415326793928 6.500331144472894
Fe 3.474869964409657 2.805042431851136 6.120218271358574
Fe 3.1642535071785054 5.18487109261591 5.5020681751257
Fe 5.190250287043718 6.377640601743831 4.724573758174383
Fe 7.634502642163727 9.458361401151011 3.9501707520853184
Fe 3.1771520585209574 7.492745562168578 4.286796097344999
Fe 5.355620017526704 8.807739564711175 3.8630673914149973
Fe 9.039411227218679 7.9024151910583385 5.009307266846054
Fe 9.533786814179372 5.712779686141075 6.1794403197200864
Fe 3.417833782492592 5.418489752228239 3.126838547330182
Fe 7.987441717005156 3.8346059433314394 6.598112385924166
Fe 6.035420008033267 2.1863156098486276 6.2327871841412135
Fe 4.72053108802626 3.691406199284683 4.353771254775359
Fe 7.308168956753961 7.160448368422787 3.20365337396365
Fe 7.448251871839606 5.557038862848069 4.996163564185145
Fe 4.886254766126131 7.097254305900334 2.340309992520246
Fe 5.9263887935725625 5.047137567087755 2.871544345093828
Fe 9.616367798747449 6.126502894480395 3.6475906008474572
Fe 9.422909482322613 3.9073935259449524 4.641600243027702
Fe 7.141969172741533 3.2932533519056775 4.313101229975108
Fe 8.175472484858268 4.729632031399681 2.608053644555121
