45
Energy = -316.0652359 eV
Fe 9.08797178603599 3.4512233705651507 7.807201861780913
Fe 7.527577428452514 2.987537969747466 5.903756225293636
Fe 7.445557464412947 1.52401057399913 7.53138538433247
Fe 7.676226039850351 2.7457347983344476 9.78807228098758
Fe 5.53263804692171 3.035033447731444 4.3627061814149535
Fe 8.84784048071096 5.8034336357961624 7.9161260478955695
Fe 5.46165607836629 2.202411345972094 9.157030813514353
Fe 7.920249243992277 5.136744722124939 9.948322450798553
Fe 7.69873963837714 4.043671511468167 3.781388815741017
Fe 7.499950559761995 5.664625565497679 5.990256354156998
Fe 5.211632423331321 2.312689212307537 6.743405249049638
Fe 3.8286679409615147 5.87534978055153 9.680341225388005
Fe 6.091095660966553 8.807792475422415 8.44709349383912
Fe 3.4654169827531365 6.005781778159955 7.205683168250929
Fe 3.284468036004166 3.739194767521658 6.017615381559898
Fe 4.34351455074003 4.0814716059496075 8.232902490268652
Fe 3.7794101663648707 4.324267166490953 3.668978693895886
Fe 7.798594884334567 7.92846143090394 7.141253444792508
Fe 4.22473196180948 6.465521064325107 2.4706166071807396
Fe 5.724482369230166 4.376038103031775 10.270330522276732
Fe 3.9787997084565343 7.928974943325884 8.464681670811512
Fe 5.344085770883365 4.710118805576974 6.0419121884503655
Fe 5.501147522988615 7.317687610149901 6.3297647397801855
Fe 5.623582892858328 4.258765383335074 2.1933298813090754
Fe 2.823919140670682 8.204704284686192 3.5366392761666394
Fe 3.729074345504742 6.2490911168228225 4.8840788009553915
Fe 5.610949793135215 6.409495830005227 0.7436382875754439
Fe 4.644005449149922 8.876225997856139 2.029261211156633
Fe 3.165801026487847 8.147692001221191 5.965299425335016
Fe 6.81609349064293 3.923889026429418 7.957137137318087
Fe 6.045158106486293 6.138142920397155 8.255146848786303
Fe 7.593859725081997 5.361629063312638 1.7831982534219217
Fe 5.817221984798969 6.983731828284726 10.41372422656795
Fe 6.1035467868461675 5.784606403434496 4.00404068646373
Fe 5.079045836887937 8.048749118829713 4.139035870107074
Fe 4.148580610863672 10.09501068263119 4.5146791863276965
Fe 9.522373421570068 4.55034019792207 5.580288250464318
Fe 4.42498861535657 9.864764537547183 7.0193907976075955
Fe 6.704754571882259 7.536422638963029 2.358097778430198
Fe 6.302789302355006 9.926289176614292 3.4299843704077895
Fe 7.940797773785757 7.511134029382512 9.479461729356276
Fe 9.549155842529927 6.962000158321207 5.811001250197333
Fe 8.709758439064291 6.172647972720195 3.7034736806484276
Fe 7.436031442974263 7.899626869625929 4.690580943919461
Fe 6.381570916989595 9.697202248458087 5.89591905123463
