40
Energy = -266.96761981 eV
Fe 12.040670326591266 9.095016620682255 7.820052372409258
Fe 8.944616703494514 13.456868486951796 5.8478238731787275
Fe 9.97348938464978 10.18560909172915 7.756505012105222
Fe 5.84856308039803 9.095016620682255 10.06918103458004
Fe 5.8478238731787275 4.432364920037375 8.944616703494514
Fe 8.944616703494514 6.604794183077176 6.135177072536402
Fe 7.7895969203623885 11.2833029110523 12.128114688925459
Fe 10.132728394883943 7.703624315259748 9.97348938464978
Fe 12.040670326591266 9.095016620682255 10.06918103458004
Fe 8.944616703494514 13.456868486951796 12.0414095338103
Fe 9.97348938464978 10.18560909172915 10.132728394883943
Fe 7.820052372409258 8.794216786306777 5.84856308039803
Fe 7.915744022339251 10.18560909172915 7.756505012105222
Fe 7.915744022339251 10.18560909172915 10.132728394883943
Fe 5.76111871806357 6.605930495936731 10.099636486626641
Fe 12.128114688925459 6.605930495936731 7.7895969203623885
Fe 10.099636486626641 11.2833029110523 12.128114688925459
Fe 5.76111871806357 6.605930495936731 7.7895969203623885
Fe 6.135177072536402 11.284439223911988 8.944616703494514
Fe 10.06918103458004 8.794216786306777 5.84856308039803
Fe 10.099636486626641 11.2833029110523 5.76111871806357
Fe 7.7895969203623885 11.2833029110523 5.76111871806357
Fe 7.756505012105222 7.703624315259748 9.97348938464978
Fe 10.132728394883943 7.703624315259748 7.915744022339251
Fe 7.756505012105222 7.703624315259748 7.915744022339251
Fe 7.785397903904029 12.618061434073848 10.08801444302949
Fe 7.785397903904029 12.618061434073848 7.801218963959806
Fe 5.84856308039803 9.095016620682255 7.820052372409258
Fe 7.801218963959806 5.271171972915318 7.785397903904029
Fe 8.944616703494514 6.604794183077176 11.754056334452628
Fe 12.128114688925459 6.605930495936731 10.099636486626641
Fe 10.103835503085136 12.618061434073848 10.08801444302949
Fe 10.103835503085136 12.618061434073848 7.801218963959806
Fe 10.08801444302949 5.271171972915318 7.785397903904029
Fe 7.820052372409258 8.794216786306777 12.040670326591266
Fe 11.754056334452628 11.284439223911988 8.944616703494514
Fe 7.801218963959806 5.271171972915318 10.103835503085136
Fe 12.0414095338103 4.432364920037375 8.944616703494514
Fe 10.06918103458004 8.794216786306777 12.040670326591266
Fe 10.08801444302949 5.271171972915318 10.103835503085136
