45
Energy = -317.19320151 eV
Fe 5.43270608652925 6.416876142355559 3.085398268647797
Fe 4.314777563262028 5.737934494210935 5.448478792576701
Fe 7.137988758352279 6.167467775654053 8.853500344928968
Fe 3.1955495290721276 5.169745566769047 3.5011357785763777
Fe 9.980225558614213 7.683124121152858 3.643826890089159
Fe 9.267828331129662 8.569530301473726 6.07433076941151
Fe 4.606431806114787 9.743529896744448 4.757542934145307
Fe 5.073056250500521 6.7006493931259135 7.7091504620117615
Fe 6.514472355650237 2.812892518559284 5.242054196284189
Fe 8.887840130745024 5.5081151583826164 3.321511703131888
Fe 5.728871306329622 7.613492283706308 5.419473205513053
Fe 3.670985174633147 7.771732612479416 3.7218408981843876
Fe 3.4253330440707295 8.10351078325 6.136424463370776
Fe 6.78087329545225 5.4052874019371195 4.643541948301004
Fe 7.719215117004016 7.16104025303284 2.119822936992337
Fe 7.863002404203001 2.491265635484728 7.212691339953846
Fe 9.467316633721637 7.188522693461665 8.061522573780652
Fe 7.128727968606512 9.5656972898097 5.4150950319981055
Fe 5.856988648738534 8.81850052818691 9.344325580799785
Fe 7.531514839389448 3.694999938968779 9.191359532374303
Fe 7.7669984734459465 3.3664801813661613 3.2653350962208503
Fe 8.949774292252343 4.754699679917478 7.6989504977036045
Fe 5.270224193721225 3.918747682884881 3.43770074498249
Fe 3.852325069649647 4.393476771719629 7.539049091784854
Fe 3.3541592758014303 5.9385253730645555 9.499412431711852
Fe 2.1739070746994162 4.426769747947438 5.67163066198615
Fe 9.15381033095436 5.721875353248097 9.922124236486232
Fe 2.4820519761645525 6.296834786997339 7.288843141376061
Fe 6.089002172376769 8.700426155910542 3.2173355286275944
Fe 1.8978059623753678 6.684586116256157 4.93104290196709
Fe 5.111223772216539 9.448170296849732 7.107110331434987
Fe 7.91678565107533 7.576427171494783 4.412907901720131
Fe 7.17784669882801 8.382644730798443 7.49916527984326
Fe 8.044176101081385 7.9539464108832405 10.033717750856287
Fe 3.5744551846318413 8.185363348974931 8.728381744753229
Fe 5.405668812414251 6.803402713849005 10.36516276167001
Fe 9.720506975173354 6.16639397852239 5.607695997166359
Fe 7.678289499596269 6.441712850485685 6.490478329830191
Fe 8.558964038728243 4.037062398699125 5.4441630442328925
Fe 5.507475195869226 2.5660032397919776 7.736806626867949
Fe 4.218939455864373 3.2269099353338007 5.478308815168522
Fe 6.357515517331627 4.588852067268626 6.9644641574116415
Fe 6.806188593041807 4.989851511942838 1.8647815378457686
Fe 5.325255143751724 4.531353815750523 9.41451650881067
Fe 8.921113444556104 9.473736599017613 8.37605493619052
