45
Energy = -316.63786071 eV
Fe 7.611607562758968 6.874037383206111 1.1305691720443793
Fe 8.673848461615213 7.624988743402446 3.256065949156967
Fe 6.105873231409378 6.972143344007412 2.86911350537872
Fe 5.874822384439613 4.9957048613707 1.5982673832775183
Fe 7.909996846163642 5.205426100452281 2.7191388951317292
Fe 6.49441184205839 8.857540859141864 4.245202842239185
Fe 10.06876797306925 7.238817360090514 5.5628859049332915
Fe 7.536073717097718 6.511386875546162 4.9445730161110095
Fe 5.685026618780821 4.857100155214666 4.078588128342539
Fe 4.3000960518894535 8.467372256949234 3.411003719060792
Fe 6.780667190982047 10.527734446154724 5.99497126038498
Fe 10.044486313587797 8.752798873606535 7.652423802838463
Fe 9.805050201962866 5.481770379219274 4.063661520991957
Fe 7.925843882207663 3.9370781580257592 4.768201684104769
Fe 9.212248886872844 5.015784398741437 6.3642963504345005
Fe 4.9631768166819485 6.889038666335962 5.0505392638131505
Fe 4.505664135349177 9.310383449734394 5.686944798889242
Fe 6.6575348462505906 3.033182149532071 2.9292270149584225
Fe 5.364467678286504 10.565691346675573 7.801095918497582
Fe 8.242698543042806 6.995536344387569 7.255069615975457
Fe 8.431544416363769 8.875351280172708 5.6676252350128475
Fe 4.209457517343658 4.594938700550109 6.113098929911208
Fe 5.894060209167129 2.834396007400434 5.336241288849424
Fe 9.340878545918173 9.660563394579599 9.870728464058448
Fe 6.2026808373421165 8.088041046770702 6.707326545291148
Fe 7.675048749731381 9.212439607186894 8.148118087958201
Fe 4.285567779318342 6.864698468544497 7.377307267553661
Fe 9.055206419261234 7.347477483735252 9.443096590942861
Fe 6.4128547103396 5.23802571924539 6.7439002563968256
Fe 10.584467031959154 6.370134396243009 7.859188984130849
Fe 7.091660502134674 10.792612265648312 9.70999975852225
Fe 3.475285095817582 9.005832368990244 7.894882198712012
Fe 8.607451684681964 5.12711895265312 8.653005189853474
Fe 7.7830686581198805 3.172196247132459 7.142275753221958
Fe 5.38163262005419 8.735782951758733 9.207420460548764
Fe 4.460372025736008 4.787652246032054 8.567215044872135
Fe 5.486826921463576 2.879630549129452 7.628739033831309
Fe 7.570217084711245 5.949185803418231 10.902560910750882
Fe 6.431258639574262 6.60393358270181 8.934941502684623
Fe 7.423294592796472 8.545522674110526 10.69869676571739
Fe 3.850978417929762 6.909037915872761 9.693232478165067
Fe 6.679841424712939 4.039893449374392 9.296146155273638
Fe 5.485515111473059 9.917709858690227 11.186889767630033
Fe 5.477958500771148 7.472778440420545 11.368875725241274
Fe 5.261832998821908 5.182854117892396 10.787971538354588
