48
Energy = -339.6275971 eV
Fe 4.6060092850367464 5.089149351221933 10.060197597179421
Fe 3.426394335061989 3.1277972050513956 0.28517909319180995
Fe 2.1638326727029837 4.869371392631641 1.1352434755754839
Fe 3.700615601008258 6.68471101622364 1.482211977019274
Fe 6.336685149636383 5.60353680009968 1.6725801071612962
Fe 6.0837052895263675 3.2876263336732703 1.0933792687878972
Fe 6.809119882736058 7.903217270706836 2.5114789632625465
Fe 5.008616797644364 9.84481750401079 2.930460231770861
Fe 4.287111533030749 4.28056675999389 2.260030502689308
Fe 8.12639561590102 3.707826466710438 2.5709332215565057
Fe 4.643594645368082 8.692035595982114 2.7591974490672535
Fe 2.835839363890926 0.4982944944366375 3.3437823433160627
Fe 2.3624674896504536 3.0187408843625136 2.929089751226241
Fe 2.5649226431926926 7.876287131390994 3.782132861910015
Fe 6.20892625287563 9.844817504010791 4.004704058161784
Fe 4.332747803117756 1.829336964585428 1.977943349382607
Fe 6.408307365962228 9.951098251730002 4.687983044423588
Fe 7.591763961293749 5.971680068279383 3.758898909590363
Fe 6.188202507760286 3.856056127217548 3.6945956413107646
Fe 4.91393281768801 6.316729696250361 3.458000923050332
Fe 2.4322070848035384 5.513612229562227 3.449636348079384
Fe 6.727616018109238 1.5445116773970378 2.7025754788728324
Fe 3.895400996919801 10.07927864243332 5.3611844103511554
Fe 6.261686760807915 7.739441602535962 4.928339762469014
Fe 2.0914865195998 1.982789917446376 5.005411248760671
Fe 0.601204910801979 4.177132362526302 4.18673141823324
Fe 4.08161124595828 4.065681826064202 4.703441012409101
Fe 4.853952732797873 1.8816363935811897 4.387541948405045
Fe 7.5284709707162545 1.9558342781623697 4.873496294422927
Fe 8.084649392472723 4.323971035737544 5.4604252255842765
Fe 4.27447580662779 8.925616606895453 5.178774104605157
Fe 5.92870958432659 5.484119920055888 5.53781138449767
Fe 3.6161512657925954 6.411554576013267 5.488535760971917
Fe 1.0704884626120164 6.482897045104315 5.39642359050973
Fe 2.109290836599354 4.269278386838315 5.887518943511627
Fe 6.054280431780091 3.169622972765768 6.242985990184436
Fe 7.707471144500976 6.59926858380711 6.49954626178565
Fe 3.6791377598097985 2.2780378113340927 6.663208593992917
Fe 2.3274543248705086 8.19466041269493 6.421204229280292
Fe 5.738044174097883 0.9169401599312211 6.685434584738289
Fe 4.245859070481712 4.6749290177846845 7.060049832029518
Fe 0.40153818751872855 4.971312066392743 7.20160264954047
Fe 5.025900737735448 7.149007987475913 7.245935625192097
Fe 2.411819114393224 6.190733838157419 7.712722678498423
Fe 6.611404007969315 4.992249865310634 7.872197789001328
Fe 2.444885672345787 3.830348218349341 8.313998394368594
Fe 5.057644600915987 3.051823435490908 8.514391947260119
Fe 4.530862870092345 5.594755843432323 9.117696699120476
