42
Energy = -295.89137257 eV
Fe 4.228499052299233 6.130434908262015 0.14161837530583254
Fe 6.382965711269866 4.898899702157323 0.5653951368801733
Fe 4.109055593477068 3.807055892617536 0.8297197746824345
Fe 6.17859612777887 7.340957662587859 1.2819774173949607
Fe 2.539207448033885 5.67011634196367 1.911673393352747
Fe 8.082216746113208 3.477613476447339 1.8900227463163657
Fe 3.7829904555788816 7.718788615250632 2.0769623231172822
Fe 4.951989726272328 5.651227991874933 2.394361549739057
Fe 5.896827991767847 3.436033281730053 2.489534912117203
Fe 7.345457712512736 5.5897082196041685 2.7784595323761643
Fe 2.043863067149242 3.082176830141845 1.9407827831975961
Fe 4.1693278823698305 1.6788523620113136 2.5564374504888043
Fe 3.6624806996450108 3.957597987455769 3.262009679182413
Fe 6.520072455433412 1.2746891614367601 3.212929654867912
Fe 1.4135098626518658 4.623249908679594 3.8464859990821267
Fe 1.6476620221582063 7.35259991966404 3.813129020513403
Fe 5.888623485231712 7.391325723596477 3.6713230638426406
Fe 3.552139017554053 6.318905615072626 4.338245118770849
Fe 3.819451928736772 8.732451052466722 4.185422876106265
Fe 5.494228197360996 5.0645734567979 4.8974098416284075
Fe 7.486417277157617 3.6258335668155177 4.1878520322025015
Fe 4.765944946280132 0.4867720914929204 4.860551487347032
Fe 1.1464433455068717 3.275279104735687 6.049095350189908
Fe 7.3516919114143064 1.5100641781529136 5.354597177362667
Fe 2.4893327030431927 2.092553532808695 4.251974623928114
Fe 3.16231481493212 4.0886969969555995 5.476426171801526
Fe 5.179467318303424 2.6749382432209368 4.818120177725628
Fe 3.239633625986336 1.8882184545373724 6.557252632069836
Fe 5.3783855492274 7.566150665121073 5.963894621907287
Fe 2.8190721520813953 7.9143244327821485 6.1214556664398545
Fe 7.570026989708268 5.979803390978312 5.2420303935293475
Fe 2.4786558070484106 4.146274148521918 7.8662307761928965
Fe 5.712028486306587 1.5344749374905302 7.007973036487575
Fe 1.538686651952915 5.843626889528953 5.968675104647935
Fe 7.15805214339308 3.6765997154253403 6.4422487680290335
Fe 4.711055207793302 7.711642885651808 8.000695494632557
Fe 4.891115978243868 3.7514024497994765 7.020380211504029
Fe 3.811058757049574 5.935158922237967 6.835048390812451
Fe 4.077261339460397 2.5831908991228887 8.776157657249977
Fe 6.287154935637074 5.7694874694530744 7.357486749489371
Fe 6.455344016881483 3.5173512146824235 8.725864270382687
Fe 4.498025275495162 5.147232116966451 8.948422973403293
