44
Energy = -307.47496943 eV
Fe 4.416152050534885 6.058681095897344 1.6732633228106393
Fe 3.3890068716970445 3.979799736063153 0.7264629430309006
Fe 0.8836886149538883 4.270593900572439 1.2850974953641368
Fe 7.0447441036098475 6.406622544683865 1.4693071872332018
Fe 2.146583242325214 6.21500092378043 0.726092706545657
Fe 5.087656390658303 7.882224967196346 3.0847042489513408
Fe 5.742554151887816 4.4014150222739 0.7638623259054491
Fe 7.33757204607426 3.478375295987476 2.063111895860825
Fe 7.433091395170777 7.481016598921851 3.727312170618096
Fe 2.4082118536693744 2.605275442157683 2.4616311207567927
Fe 3.9662349112468895 6.136450920482228 4.145801421146677
Fe 2.4934183178405642 7.451102614561054 2.7994974385708664
Fe 4.942122162479317 2.085959600451559 1.440656909921778
Fe 8.573467070913734 5.345293277581599 3.1280844890965684
Fe 2.581366621452047 4.92812165628224 2.758814135309791
Fe 0.41983612042835955 6.154787099898929 2.6216501846628026
Fe 4.787170319211423 3.69925389507502 3.060166969233895
Fe 6.187623943380033 5.584826379888494 3.405023418865608
Fe 5.241074247074465 0.07721731104995777 5.290181233871267
Fe 0.705325260922468 3.914470242096588 3.851432154774082
Fe 6.324710847593807 1.4852332120572267 3.3247146629697917
Fe 3.8988406192314327 1.3203062066108988 3.709260365763154
Fe 7.215184047805175 3.498054464649749 4.341002506609779
Fe 1.5965398423415633 1.7755577328047962 4.490955382124402
Fe 1.5945937802870223 5.975447514720988 4.764474324785001
Fe 5.251722472546914 2.5017616571666976 5.327316457472251
Fe 3.1268826114280306 8.011577223835223 5.264213842433977
Fe 3.0399062189764474 3.693132120438547 4.827100963258797
Fe 7.658184927315391 5.681300817966937 5.381663351583688
Fe 5.596718185818893 7.145852743484789 5.5958589688371845
Fe 5.355440242630898 4.7620393816342474 5.514177368659721
Fe 3.241322524369299 1.4727163730732555 6.112023982349446
Fe 7.243016685600841 1.3161283322041837 5.701372533028386
Fe 3.424243185329483 5.730010153844627 6.482650187121401
Fe 1.6414657365602872 6.987189684489214 6.957643859721747
Fe 1.5587733558307018 4.255287443879959 6.4625337861709795
Fe 5.360994433736476 1.404329908654414 7.45446139184365
Fe 7.055797302780919 3.64475095651011 6.7293536514110315
Fe 3.9970758544444283 7.625874243430742 7.562741839111984
Fe 3.9994771135965403 3.5735608637484244 7.107149023631598
Fe 5.857755419269754 5.686796144292487 7.613632396105822
Fe 7.384654198380147 2.058751211990864 8.116753132711398
Fe 3.9154646348812396 5.495735732369752 8.761787861194355
Fe 5.688862872685112 3.5566441602111736 8.729531197540135
