40
Energy = -275.7791104 eV
Fe 6.5901699463197465 2.6069651843285016 2.0887603108779427
Fe 2.215194131744101 5.692044518739891 4.887906407364307
Fe 3.4634260181042213 3.4293999577928798 5.486671759271402
Fe 5.015632860618824 2.8741297225737013 3.7832336833896836
Fe 2.2071763412410985 7.429445535564323 6.645785573815676
Fe 2.8317708608067975 9.197808223359296 4.94573329317455
Fe 3.692834204371746 7.382011178153108 3.479049335283836
Fe 4.332288737073363 3.028700590067058 7.570314401409016
Fe 3.734572012963911 5.384263567936754 6.789975804589951
Fe 5.825205203023616 1.9485709588860103 5.925694831074451
Fe 6.4547801750892 4.694077909149852 3.139314202711944
Fe 4.4981682693260545 5.30702038078047 4.424224409582258
Fe 4.3527856536531315 7.702451598002865 5.780663643689452
Fe 3.3110655190461262 9.322232093426994 7.461252191580238
Fe 5.9788604405636026 4.255201501626336 6.01542252918462
Fe 4.066831829409148 7.105126351581571 8.365056845929288
Fe 8.025122215920682 4.956845420512291 4.981536423221055
Fe 6.763045597064047 2.907565942987681 8.110279069257167
Fe 5.40671218348893 4.903204489883184 8.512480149501826
Fe 7.4410921793219424 2.7350289357992437 4.249536578299533
Fe 8.376499986369437 3.0438563131033467 6.512365224865644
Fe 7.415022940958552 4.462472013064763 9.844934294988066
Fe 4.819840956442797 10.191196031850904 5.810341574866928
Fe 5.87105953328593 7.027138490535426 2.2947421870262965
Fe 6.093928578950193 6.598600618119449 6.831002547259729
Fe 6.298577196014643 6.800983779267138 4.49931747448267
Fe 7.840591426050314 5.313645974346563 7.573006717544813
Fe 6.478502788622669 6.826312128420803 9.3428254195098
Fe 5.3292456352738515 9.036050882991804 3.7200054416957085
Fe 8.23161122922333 6.408705307750681 3.0966030219598446
Fe 5.618143837660377 8.842582841838233 7.845467523904902
Fe 9.977497353137116 4.925845617254761 6.190733490578725
Fe 9.484370381204304 4.125600953602626 8.519540566365755
Fe 8.840983867546878 6.342295073733713 9.679322963270463
Fe 6.7901371413503195 8.836904245822018 5.778457528574291
Fe 7.755347622227311 8.602462558006929 3.6510591741682132
Fe 8.591719856666995 7.134596666751681 5.6909771835144065
Fe 8.027050133255985 7.91979807067172 7.901683614723476
Fe 10.065190559199916 6.61812283379074 7.741193904064079
Fe 1.2943700621276009 7.487161002645544 4.239954168148209
