40
Energy = -280.05761897 eV
Fe 9.868953973407974 5.252652541957673 5.5714517738134015
Fe 6.973826109326838 5.358652554446909 2.965980895817992
Fe 7.236277684495197 7.21094867147124 6.935956405861632
Fe 2.6239776597637006 8.182842427505022 6.212541408824074
Fe 4.069857523647044 3.815239455919833 8.247504365130526
Fe 8.421262676219508 2.6896457523281945 6.975404696101767
Fe 4.631679670313062 10.126316788847143 5.940950145995015
Fe 7.8857907964220715 8.28494639659833 9.136066511413686
Fe 10.179586401965102 8.640643655860671 8.903954341719027
Fe 7.1072799154525 10.998168201337776 6.042324778634985
Fe 8.851057463261569 9.347998793208397 6.988764368317674
Fe 5.372041886182746 3.67896051265763 3.9779380344942106
Fe 3.708754602566592 6.3877847813566415 4.911556040385339
Fe 5.065389466051953 7.79173316040975 6.223866829343812
Fe 3.3800836387432747 6.354582511015316 7.618082163088418
Fe 10.257520778998295 4.842153637862544 7.9347163305676345
Fe 6.296208735905467 9.451763170597795 7.60348679884702
Fe 5.532880948091756 5.495284497400142 7.432958392026739
Fe 3.7381459113609115 8.784199298717398 4.167355345541131
Fe 7.817750062785804 3.861117539028639 4.64841437788427
Fe 8.097820534665399 6.450191621184724 4.726471643087164
Fe 5.9403782532004605 5.50720349887794 5.154905760321229
Fe 5.520267818107644 7.479064064782362 8.900479809564867
Fe 7.901743942627388 4.8700406629487425 6.778540778946158
Fe 5.951393427092049 3.2187562085598302 6.269629961821993
Fe 5.863008112192878 9.817863127566662 3.7800709926304505
Fe 5.721799289951282 7.375593369342098 3.6488931730039456
Fe 3.7607451142392305 4.250394504727521 5.99455463184737
Fe 6.473533146285099 3.4821003275771285 8.615531249614293
Fe 6.965687727664049 6.930154516344442 10.835518360294799
Fe 9.502779997900477 6.976980453582372 7.3944874342703875
Fe 7.277713792393356 8.843633235901923 5.223954703368738
Fe 7.876030201924447 8.022091722202319 3.0881413152599557
Fe 8.74288631365971 3.7047602094625427 9.156207792569113
Fe 3.8347017869229085 8.97667726698752 8.005396429738198
Fe 9.60814033242919 7.915207188351423 5.183648148569478
Fe 5.24733392929496 5.2804555038798044 9.82576637090598
Fe 9.547238110176357 6.4239042484450435 9.841606879697856
Fe 8.08174101123604 10.63383088977328 8.674202333215202
Fe 7.549159758984272 5.767891536883459 8.945146733371649
