45
Energy = -314.09066446 eV
Fe 3.5897557785066914 9.943786712248473 7.544020746611086
Fe 8.847916692980228 7.203929357459335 8.66871875499841
Fe 5.421599870958718 10.32787284343602 8.80105725536498
Fe 9.271422054266624 4.115564133764352 3.1552073044084445
Fe 4.540874764734764 7.938364069851817 8.47591633668445
Fe 5.6116034982440395 8.666904243242017 6.500935635894975
Fe 7.918684189379638 10.771653201652404 5.416523744531157
Fe 2.8306573710982357 6.301237632773723 8.293676874049485
Fe 8.185403133938934 3.071444636252548 8.760430392050374
Fe 4.6346610909779775 6.065908399041201 6.3418400540627475
Fe 7.567546716400232 8.481765275014729 4.845974901216996
Fe 6.709083816675218 4.575275764233142 7.0948276090820475
Fe 8.321491973897393 2.3222715857006344 4.511629749657489
Fe 4.801998373688315 7.863443670314128 4.470963799201057
Fe 4.880934425307147 5.695045475197339 3.4744074103208007
Fe 6.132112047510686 3.8809283815957514 4.839428351248324
Fe 8.535130366834313 4.561482173230947 5.342705283955408
Fe 6.877414577035607 8.65442032278348 9.203216603169105
Fe 6.660509037809837 7.506930980997805 2.8940001929284023
Fe 6.076411013477281 10.028385944627463 4.096394311047077
Fe 6.701559761531691 6.297057185949328 5.162883759286302
Fe 5.802883557441789 3.1515589552484142 8.686688302600842
Fe 9.354151017104922 4.993899053816923 7.755074293907131
Fe 8.84871003831789 6.868770138653878 6.314435113477794
Fe 3.7794226316198394 4.168426088688294 7.586224558270852
Fe 6.074062312879323 1.5156101814078893 4.358552758614388
Fe 3.0099238922541987 7.872690134359955 6.373170861824822
Fe 8.824073938551644 6.5256716375834545 3.9058768453493795
Fe 4.909270381626243 3.2865392700514886 2.992476412951748
Fe 5.923849014800407 10.934147704273743 6.538725957755916
Fe 4.755008590677291 2.5007180229578965 6.258050769105517
Fe 3.9174640832120766 9.93235455852853 5.21540249150364
Fe 7.126110424207715 2.2699928243385195 6.6184230007370894
Fe 7.946463795712884 9.061544375970858 7.109034536718805
Fe 2.3428048923919644 2.909057463882041 6.297561879152998
Fe 3.6273219662207854 4.222134521083981 4.927280932951289
Fe 7.109234124536238 5.092335724027701 2.981818261159642
Fe 7.50425842297259 5.266400762571381 9.372406932119649
Fe 5.150101425603602 5.592541564485181 8.94276076225941
Fe 2.764099102884782 6.480690160104901 4.411145535684087
Fe 6.7350920902712526 6.898983103021532 7.630202686460841
Fe 9.412312010026431 2.8765282053228094 6.7193683219838745
Fe 2.0034482226590775 5.3905147828052655 6.323970951547397
Fe 7.652255967869691 11.00281833764629 8.078775262428834
Fe 7.162542600781687 2.7640354996798218 2.559448561543481
