47
Energy = -331.11935779 eV
Fe 4.795421483569361 10.216785998322162 5.769355526824593
Fe 9.921454305362033 3.1873035280115363 6.7480314654833755
Fe 9.598847069877966 4.273654469823901 4.620930325713701
Fe 7.974969581764435 4.679974376126759 6.814241312842694
Fe 6.10873274718783 5.095874753151977 4.916747268135406
Fe 6.858279123286647 11.378344072349972 6.765144639704893
Fe 6.52456958910855 5.304486352111476 8.766015859701705
Fe 3.350136901507565 7.536956848489879 3.124912997225998
Fe 2.4871091535315344 5.14987072265114 8.664763510090985
Fe 7.925303736731238 2.0782081437559206 7.464793843421419
Fe 6.941035114181969 9.11109387021807 2.5269218164895793
Fe 6.487281735872529 6.609674124089385 6.752959460595119
Fe 7.477443502900918 4.365850201335512 3.1846231294185596
Fe 8.98738244731699 4.056452370824051 8.856999892197857
Fe 2.0258179320602014 5.131774863360665 6.284408149542982
Fe 5.644953601599988 10.002424249048003 8.257932667929543
Fe 8.801461702707465 10.223383534287947 6.08348831539542
Fe 4.650647787481661 8.115429422231788 7.072472307789333
Fe 6.842197427518266 3.0092598112734907 9.267106340056925
Fe 4.570877961131373 3.94947522196739 9.097402232128076
Fe 8.227170409526021 8.487178215717604 4.458282844529398
Fe 10.092485169007599 5.579842277666694 6.786431257043379
Fe 3.1298297715806993 8.723901042092644 5.249114379413423
Fe 6.844046479482835 9.053059333994439 6.462066890489269
Fe 5.629112135820695 2.812262039192055 4.164589260071587
Fe 5.213680225784552 1.633973551553238 8.03152771530581
Fe 5.8225078497687806 3.4508015092472797 6.761584326653602
Fe 4.862187955847608 5.564381066268871 3.0535392819534573
Fe 4.424323435650724 5.421894523548173 7.137198992133675
Fe 6.605906116928839 7.8312749665190164 8.781179502931176
Fe 4.131596076500038 1.6995845621037957 5.663729599197631
Fe 4.384417292088383 6.681459509254741 9.092521758517293
Fe 7.14244345486525 6.708579013293436 2.85627800717921
Fe 3.8234947990632713 4.038419200737007 5.083848780193797
Fe 8.180714112783681 9.427544234114125 8.334731584415971
Fe 6.689956779612094 10.36750412026721 4.4602284251529865
Fe 8.293261225298751 6.181557025102799 4.885360462434052
Fe 5.199190907589781 7.670027982799202 1.8314142657776113
Fe 8.787812345193172 7.6913274525034145 6.711415295562741
Fe 5.735342028182099 7.790213372149256 4.4785494312495135
Fe 4.60233424917277 9.69056087636569 3.378261741034871
Fe 3.2129747694887487 3.1632499977239856 7.306259440359943
Fe 3.7631720615449313 6.47037914048703 5.152345548240117
Fe 6.3383565077740185 1.066419172261935 5.979470089642656
Fe 7.801324624514616 2.8680388400159433 5.192257948200634
Fe 8.616946399215205 6.449712073573526 8.652025739986176
Fe 2.5413376531406997 7.224986978193423 7.2994712767495855
