41
Energy = -284.58484299 eV
Fe 6.090021601180963 4.568939760797837 9.866763361783716
Fe 6.251040969474164 8.853841238717429 9.045786970077348
Fe 7.070703455945756 10.850339189567153 8.289284946357544
Fe 7.400241852832109 6.600738633440938 8.58093446799087
Fe 5.332788481408113 6.7719203097260765 9.77265021335014
Fe 8.150381058419539 8.764244285041485 7.579804807576443
Fe 9.154923089607681 6.468920311687782 6.980565826328597
Fe 7.795961879648421 4.318758984711032 8.271837512813194
Fe 9.304982470412462 4.136386012987282 6.344325831538212
Fe 5.343185548323595 3.046470798241586 8.140397290115876
Fe 4.543919992629964 9.951866604128755 7.907690524265148
Fe 5.403468626354477 5.332803124236342 7.586483057749452
Fe 3.7307867467463747 7.69122347077368 8.38112439209667
Fe 3.7014898637071934 5.122467734476301 9.114912474955682
Fe 7.687885567665717 7.816803385673545 5.393040187823114
Fe 5.761828956685741 7.635089996939186 7.057038304158557
Fe 6.299047065451436 9.850549212325703 6.347359633482492
Fe 8.992529454365835 5.732407144331111 4.489872416670503
Fe 7.214737902500583 5.613689294660364 6.077992890000896
Fe 7.093680898845726 3.1199691222881083 6.33947655243599
Fe 8.742607862661831 3.1810400870080793 4.261734811952023
Fe 4.9560224747112995 4.026448220126107 5.552156736279868
Fe 7.040631267706599 6.689393530563783 3.314057300715214
Fe 4.811297418179108 1.7630896417018842 6.11144723787787
Fe 6.528090069611223 1.9843963493560641 4.3555528223518
Fe 8.483146111401451 4.66491384975868 2.38613525334133
Fe 3.2224581138662836 3.759621003844801 7.1233917124930946
Fe 5.673789515001329 8.591131109698779 4.3498899953339265
Fe 5.191206693897803 6.378986448951122 4.984792599009912
Fe 2.7954132538991896 2.5044115832306946 5.190060390733884
Fe 3.3762206235053642 6.153157209567184 6.549491664007522
Fe 6.511194104824665 3.1686478833928957 2.121118240040572
Fe 6.427080588643827 5.457322936594529 1.4247484717925798
Fe 4.445149377369127 2.8141459415328005 3.5539158651596954
Fe 3.886973544083499 8.621673300697086 5.948896020427683
Fe 6.724940419166878 4.4004457970476505 3.98704922729687
Fe 2.8709545657543853 4.764734145814256 4.630916972391366
Fe 4.8862732982306545 7.478497631646145 2.4251200978184015
Fe 4.660581013007912 5.130088670867933 2.967171116591029
Fe 3.1778823055083127 7.240224883297957 4.056454998639465
Fe 3.712732908864968 9.428452172651298 3.5868078162770196
