48
Energy = -338.3916292 eV
Fe 3.288698471484135 5.2752996446647735 1.0291330990420215
Fe 5.733702547024608 4.643925942418718 1.047632967082384
Fe 1.85723057954445 3.296083676365241 1.1000724225161655
Fe 4.143220616998991 2.942857413541135 1.9469322796437962
Fe 6.307130043622568 2.1223042777034613 1.4360473571921675
Fe 2.558191609980858 7.639839558526963 1.2289176996176412
Fe 0.9976961221028867 5.601007245080385 1.8396433044543548
Fe 6.750805615572854 6.032001340676934 3.0524189138903104
Fe 7.957682293780605 4.133281345053067 1.9195205355178153
Fe 4.939992308445243 7.174299103201507 1.958575446610203
Fe 4.540943153138745 5.105575992383431 3.0723300344424795
Fe 5.170997519129042 1.2890952098839732 3.609022687089234
Fe 2.4460590079610274 4.207990700769071 3.240852719937658
Fe 6.266302536710271 3.4946406432262234 3.208623960983074
Fe 0.2804602958471726 3.5436273038323534 2.9274040640977597
Fe 2.399728900878622 1.7980393016282743 3.186957565861724
Fe 7.979599577020948 2.0116588953126513 3.6757963652761574
Fe 8.168686386911611 4.433119661649716 4.427908963108806
Fe 3.7125861957331256 8.761021221596348 3.2837852988106455
Fe 7.3212328160775035 6.622645530000048 5.387552688335258
Fe 2.718735924631895 6.607090607499238 3.19073019838562
Fe 5.7086669434254045 4.813204112876607 4.985695163383777
Fe 6.196959954070684 8.497992985890416 3.9112063509190924
Fe 4.748264339538203 6.974320653437231 4.6655842869819955
Fe 0.8499072420607001 5.599471491792128 4.459140404512139
Fe 4.045094076300764 2.9999758837027555 4.598507068882581
Fe 4.101325555740574 9.245317465146853 5.521438478082891
Fe 1.4298217410505896 3.273909174634311 5.156948925510879
Fe 6.455655709065044 2.4611974757010984 5.355697138919828
Fe 2.725206312303639 1.2491676065413826 5.491425258367867
Fe 3.309754911405848 5.2080178415450895 5.4770040368932165
Fe 6.004814746072254 8.298570969305208 6.447143435652692
Fe 8.671051656132288 2.7791038573034896 6.214261928781035
Fe 1.479334966822773 5.433414333616242 6.7534807876281535
Fe 9.257182902597064 5.440144097405698 6.475476833747201
Fe 7.210876209299017 4.426716338086278 6.683061010075868
Fe 3.507499045812702 7.332656526602018 6.959444787263585
Fe 2.1668372722211604 7.638505937381219 5.138139817447039
Fe 4.922528608809419 3.760518661946802 6.865860663058626
Fe 2.688113938703978 3.1006661477401605 7.03290954106021
Fe 5.444680187338268 6.102852356465547 7.062043612337476
Fe 4.758002938901046 1.4021571910326085 6.6158496358889085
Fe 3.5726584825474315 5.135142603366338 8.209205790073868
Fe 8.370517634186292 4.136788994061654 8.645681658457077
Fe 7.649410926411417 6.4271713581006455 7.955726240941777
Fe 6.761602591655783 2.351461275253856 7.925931437883847
Fe 6.033554138408793 4.657166808664947 8.968045864102239
Fe 4.568591189244795 2.696579980109944 8.832828013973948
