48
Energy = -339.26545147 eV
Fe 3.125891588591101 0.09439369391690311 4.65744358546038
Fe 2.511600741086648 0.8830684178945469 2.203020283700264
Fe 4.889091807618263 1.7310522928043162 5.524317931389342
Fe 0.5286693448095937 2.2290048137289795 7.278223324458071
Fe 8.060106925621653 6.584739168116772 2.555386650894041
Fe 4.431367518091137 2.1276621360421246 0.7614524480229475
Fe 7.051994485972742 2.396462869647779 4.372730367489658
Fe 8.826256576623676 6.641779244483335 4.981817513309037
Fe 2.789163255272451 6.172685369174469 5.89938243332683
Fe 1.2596511302836262 4.151263475403905 6.275106908686652
Fe 0.7061961222189798 2.751708124377998 2.444169605187793
Fe 8.209932447719552 8.670722982530238 3.5003381783596765
Fe 4.785485269549586 2.8305301335677915 7.8913001084362735
Fe 2.8175025139215326 1.8435085256126529 6.816030034330148
Fe 4.712957441672691 7.6547327567457115 6.508079947300632
Fe 1.8303544084599883 7.04449123371138 3.483987639485444
Fe 5.687321459751626 5.994913062369574 2.9000037011823245
Fe 6.877993929897794 4.1674062157288105 8.279224812399267
Fe 1.9554367197807636 5.308061873357954 1.6493063147657097
Fe 2.492407532834086 2.328335771091141 4.4217210311592146
Fe 6.280124641127248 6.213031971080518 0.6317563740996304
Fe 2.970566519576256 3.2023557663605704 2.24211606374205
Fe 4.1673319911662325 7.7377852205485205 4.0756782333193975
Fe 6.13806956644817 3.6437012339723864 8.760941640796435
Fe 8.434858447054681 4.2099422474369455 6.27599571244997
Fe 1.3153765961338395 4.52117802142279 3.9648786385146715
Fe 4.507096513414179 4.683705657049172 1.1852791215439031
Fe 2.2551982523794094 8.335505007773573 5.460865339314789
Fe 7.203878826583712 4.264148456296698 1.962951657764941
Fe 6.11717866335416 3.822206545495901 6.096384166363834
Fe 0.012569214757067744 2.5254125799785854 4.908863901646944
Fe 4.774610031568231 5.378504981211437 7.572540276388327
Fe 3.7913143985760787 7.038185120277957 1.6843972504273987
Fe 7.361379137272677 4.927130213188028 4.307589665744823
Fe 2.7721344845436446 4.135994928860572 8.068458548349884
Fe 3.659090393958511 3.920131214729017 5.767293883679521
Fe 4.6533112049641465 1.278855329156324 3.155952118645121
Fe 1.1266972226670475 0.3853619172309604 5.911472232243079
Fe 5.144164407899265 5.728372386322472 5.185466977729672
Fe 6.613008361461663 7.516600139271304 4.64779328081834
Fe 0.7057829388444803 0.6230527926062649 3.6589668458530125
Fe 5.182565419464272 3.5964404321193015 3.6287498081028002
Fe 0.49573678902767604 6.387691458849377 5.326438219471163
Fe 6.953196183999908 1.9247421943985994 6.877912714542417
Fe 6.089838495474128 8.196566449499967 2.2803659542636243
Fe 7.051427756644462 6.15957008002245 6.688064261078639
Fe 3.4768174445934568 5.310532827770592 3.4995142902507985
Fe 6.526380150951777 2.0558579404452773 1.9130426390608195
