45
Energy = -315.92945633 eV
Fe 7.14911220704104 9.50602089335011 5.360847467410019
Fe 9.218330712495238 10.612746317724762 5.922803972973018
Fe 9.387399805858127 8.344163483923737 5.229252799720064
Fe 5.254767370203328 11.000159425308732 6.171583747004165
Fe 7.1182234340416555 11.029429245616713 7.505647478534167
Fe 4.937530289617292 9.425100948993952 4.435853368835367
Fe 7.170481218403039 7.4634712143729205 3.8483794970838794
Fe 4.883022296997633 7.815678905800328 2.7386088923800216
Fe 10.793989958157235 9.064186523771676 7.054173296569301
Fe 9.337223812024842 5.878499616889997 5.190681133418024
Fe 4.910307404097528 10.541199562698187 8.549022652045451
Fe 7.477415706460807 7.076924045260486 6.299921739887006
Fe 7.202536267893783 5.071666864245705 4.658233127225596
Fe 8.366275968521808 9.102444425825086 7.535912906010646
Fe 5.890009630749781 8.666428831820465 7.273870486967231
Fe 3.6650214029296118 9.25195854911264 6.718314080947741
Fe 5.096899590739176 5.685407930462643 3.6041834925998604
Fe 5.303606266090397 7.260212766081937 5.392946928732803
Fe 3.128854452057751 7.730137829831069 4.608034748156326
Fe 6.8186701938052305 9.44941633356551 9.494109313545078
Fe 2.949864008221591 6.1680389600003425 2.91683888056255
Fe 11.385926674126766 6.928811237926903 5.9829683228615025
Fe 4.896661777040254 3.504942378823869 4.43695804539734
Fe 11.274409416168915 4.417486233635132 5.319817154895716
Fe 9.624541553805338 6.961823724032755 7.451361872484867
Fe 9.601500119132355 8.44220289407195 9.355977014509666
Fe 3.1984366055139053 5.325123674825356 5.1719184499835675
Fe 9.01212135479732 3.5530212443308797 5.7855111949281355
Fe 3.638033562461745 6.869873926623476 7.138685303088522
Fe 5.364179525326442 4.931545389334502 6.159747600642211
Fe 5.650473887592627 6.108665881302435 8.18630412902729
Fe 7.547113290849427 7.218982473084001 8.935774577738568
Fe 7.912953774076518 4.962041418797361 7.388485421617807
Fe 4.5911437888208 8.178141525624941 9.162086352636305
Fe 6.759370088606043 3.006978111912767 5.908972011302439
Fe 5.8102064305438015 6.627903206954505 10.581851086701018
Fe 10.49579824297707 4.760701616132416 7.2748941702042975
Fe 9.530053858700777 5.899013707593154 9.532868374034999
Fe 8.071241378522656 2.6397508131603415 7.898793661679177
Fe 7.369932045548283 4.764706780973664 9.787799307655527
Fe 3.38965905429125 6.147715708818336 9.522084734076875
Fe 3.6203174545853667 4.554500441796254 7.801174014404915
Fe 4.889947323831583 4.497534464973765 10.099225755660939
Fe 5.896784034130438 3.6144408577036473 8.141025577740933
Fe 9.554181393875501 3.6668386333606926 9.220687885564702
