41
Energy = -287.04039403 eV
Fe 3.2329439261054667 4.065875478781497 0.13813293727245066
Fe 3.911924734599651 6.304312127223891 0.8664594821538815
Fe 6.3778204476080695 5.5593897180473055 1.1917321723525456
Fe 1.9463957498762998 5.30943641964691 1.8938210113485714
Fe 4.798000198365478 2.4077104705247434 1.2705685316831852
Fe 2.348670994292445 2.7744104634940268 1.8877229036451122
Fe 4.463048076439354 4.490834678087925 2.1100838606760415
Fe 6.444887805390433 3.3920863989380425 3.0975148387443396
Fe 6.088970177500127 5.907286457819546 3.3890131624978976
Fe 3.7212929608964256 6.530249885538492 3.474053568493306
Fe 8.261902858123273 5.181157744956488 3.343799413350795
Fe 4.778990988888161 4.363818223844497 4.4774992128183575
Fe 5.605665730878524 7.7440427875469755 2.003207904482113
Fe 0.3754730763268763 3.944539920515339 3.46173084074923
Fe 4.181658930472057 2.1987861461728833 3.481805530199826
Fe 6.18035461408361 1.0953249413975126 3.5879018518782058
Fe 1.2381966551761177 6.053064500642674 4.354903789164133
Fe 1.7457419978426199 1.9741581815844627 4.280940889555793
Fe 5.24554923257224 6.439814338249656 5.545635616635594
Fe 7.808200358183801 7.4826113516931745 2.8603882391031505
Fe 2.6548390194165172 4.130041617818161 3.7609868880488313
Fe 5.773098510276741 8.30768325538861 4.299864367685422
Fe 5.767140187304448 2.5333506448974132 5.350347280349306
Fe 7.6229062873429845 7.023994510177486 5.2557716973369875
Fe 8.046736611854955 2.5342824821286185 5.277382907750245
Fe 7.11255567907967 4.680581172797053 5.392471055290859
Fe 1.07046454984233 3.9985115939051084 5.819806143186638
Fe 4.317888064386514 0.7521055835379525 5.507299370297418
Fe 3.3457715578530824 7.782859998472634 5.868126413017894
Fe 6.6967384150926 5.967693594410473 7.575331317828883
Fe 3.2471068559767047 2.8345817037588774 5.8533420033118855
Fe 3.0467989998318776 5.473578020783776 5.729658892818
Fe 1.401998860322002 6.356672649933307 6.975152320941418
Fe 4.986142577349402 4.36538949961153 6.825187371633089
Fe 5.741408149128249 8.101323422840538 6.984904147260487
Fe 7.036138202439109 3.300574573002724 7.479526646604155
Fe 6.570599186889406 0.99462493803867 6.80051445751266
Fe 2.776772642639406 4.298043831691698 7.849418297893082
Fe 4.732369250076283 2.1816402295340662 7.716521514181369
Fe 4.03955483344105 6.496100689975242 7.851244350542864
Fe 5.169847563873404 4.580021270627986 9.022792317743052
