41
Energy = -287.90641421 eV
Fe 4.603356753907324 5.503119866519824 2.295675611690137
Fe 3.8978279988442286 7.819680505444805 2.5953511877769913
Fe 5.947447826444481 7.150438597501728 3.619184014940432
Fe 2.1819606186457987 6.25796550670627 2.964408581559617
Fe 5.336480331580118 3.1531033471518506 2.4754368082807265
Fe 7.1140978722227395 5.371107996039382 2.5563541960776988
Fe 9.028483954841134 4.882477069920806 4.253244015437326
Fe 8.511785824250467 7.273242991091547 3.7123785055036502
Fe 3.1399750512116675 4.235716072385912 3.6469667020234664
Fe 7.6948453285090785 3.2061561047984477 3.0945258419603014
Fe 2.2017883172939863 8.147718495988784 4.427343606938503
Fe 4.028599879270214 6.336595994125167 4.761767500204318
Fe 4.188406947999397 2.279706727178894 4.467955855143848
Fe 6.49425055119476 1.75697172002439 4.420492596766464
Fe 4.5094191846518115 8.984512986542015 4.599540540925552
Fe 9.933288328951008 6.760354552443425 5.551967657226695
Fe 6.987485014458347 9.063106215303126 4.5978564524164955
Fe 1.8742975778353543 5.945858588172904 5.432292103053643
Fe 7.255756165655672 6.0939517198395095 5.320536163581692
Fe 5.689962042106474 4.345103229675779 4.381668572904051
Fe 7.573712502190017 3.4937533807842254 5.70295238892217
Fe 8.785774105656184 5.239797251474837 6.917387675784378
Fe 5.929722255484965 9.76522022473999 6.685807195589997
Fe 8.128656127855107 8.061184523129462 6.385608003826472
Fe 5.537759199619547 2.5728961962718175 6.466574950582192
Fe 3.5435979221832574 4.1156604477502565 6.058588401908594
Fe 3.2376044648954694 8.272133599998368 6.499001260954721
Fe 5.473388827932532 5.130663365370767 6.659286569880219
Fe 7.03346187789079 6.43420711976849 8.15466543923739
Fe 8.98918423587405 5.050032671484235 9.270471181053603
Fe 5.629942911249967 7.557117433106751 6.340027580654645
Fe 6.921307989281128 3.9769975310440304 8.260960106418478
Fe 3.515415638031179 6.073006706864211 7.352230421934633
Fe 9.528494173619562 7.1946517147275895 8.120576039153105
Fe 7.2792331283012155 8.749222688141993 8.541545833607158
Fe 4.516173633876379 3.6124568809884936 8.28921008174427
Fe 4.8448288517945 8.02563368081549 8.476855883116386
Fe 5.002002385001881 5.673112909197494 9.231351457467685
Fe 6.963137487140967 5.231618764565952 10.440589869497362
Fe 6.1027910793188145 7.534864143541112 10.391632809221234
Fe 8.421136001559143 7.245720848009096 10.15657070366393
