45
Energy = -316.21403398 eV
Fe 4.6159729084293515 2.7994611546266133 6.8236843101015605
Fe 5.750078085554125 3.0121192528172442 4.854800973317696
Fe 5.743276818850167 3.5441857381281 8.912611734501986
Fe 7.093769482710549 3.1067461014347466 6.883591489350188
Fe 4.056799633583699 4.68714129779763 5.061015202513714
Fe 5.7791934364241895 4.85520023365278 3.3728537558352905
Fe 7.4684884500028765 4.8230098964744235 5.069103650514172
Fe 5.581114339742032 6.720529594180173 2.1263233615850514
Fe 3.455527544810348 4.717951959163295 7.52759932895879
Fe 3.89250576878852 6.9583115417756645 3.817024964633235
Fe 5.87336573203961 6.658477440513821 4.888379671759419
Fe 3.866938812939057 6.840109213305489 6.379560846592627
Fe 7.596859958380221 3.6761269278750066 10.656322789069922
Fe 7.724472417202072 6.936954859863799 3.325514814892134
Fe 7.464431716532494 8.426071532339149 5.330463450844865
Fe 9.12886449381938 4.395187837243397 7.001323042998774
Fe 7.4821108642522764 5.058091110231435 8.631618314740756
Fe 3.160939715168748 7.315411263226956 8.678202773490455
Fe 5.80565795008184 5.043465038556858 6.653216521005036
Fe 4.845794000896686 8.88980351989644 5.2493519738406675
Fe 5.875286377490974 8.714585641214185 3.1930687648258176
Fe 4.389735590380248 11.10761721092548 5.803602822527838
Fe 8.349545506415595 2.627980533379529 8.754197968477474
Fe 9.80847794003831 8.339475499175512 4.109830725920132
Fe 7.810126223762223 6.571562036788347 6.813007094903416
Fe 5.822560366902288 7.810356528208616 7.382684227932865
Fe 9.445152609333494 6.13072768950944 5.041589419198064
Fe 6.453712578870776 10.715779216356239 4.496592979620661
Fe 5.007309898617225 7.770216441750372 10.306509091976887
Fe 8.791751535527965 10.257572082252972 5.617771019603838
Fe 3.6982178389094997 9.527298348808532 9.70855506475183
Fe 5.074706807694014 5.9295835369185985 8.741043664193214
Fe 9.809059654722057 4.428597861983788 9.346518796237053
Fe 11.568447449276364 7.127666339480469 5.093960180632707
Fe 4.02244586007394 9.34014778819298 7.446234129976152
Fe 8.086677097774658 9.519461790759527 3.1759175308265153
Fe 6.142852912447299 5.526138500840492 10.797031649178773
Fe 6.044393618243957 9.69512627067023 9.148409787794506
Fe 6.3549216240557325 10.235377435627495 6.79648247638041
Fe 9.897173357353381 8.128102943856959 6.499463831819623
Fe 8.111951360669996 8.968952063261153 7.827153116305435
Fe 10.918393448150878 5.923118976301087 7.024437116337568
Fe 9.394527182039143 6.7233083249799455 8.650207866359237
Fe 8.545096073858554 5.917638376546746 10.816472569693456
Fe 7.1869257228096295 7.377108774567345 9.405602488637047
