43
Energy = -297.86017741 eV
Fe 8.166415712593212 7.967969595970182 9.99534032281675
Fe 10.340495412709947 7.960330090643835 5.69775034858047
Fe 10.081980567434238 5.73856321391953 6.669091540473126
Fe 9.275919803984294 7.957369146928081 7.858361246671544
Fe 8.854931743770727 5.7841582529355025 8.792646711765551
Fe 9.806673049266927 3.50000323264221 7.647481179238266
Fe 8.46584352004627 3.647227382347074 9.6379007780854
Fe 6.165693759337865 7.583545651095983 10.988830128007349
Fe 7.264654886476347 5.620109225463373 10.611404761340129
Fe 7.26739575504452 9.389257207924217 8.213016531301077
Fe 8.346409534700587 9.281455020510952 6.001310457061486
Fe 9.283165835681006 6.4874871143114765 4.209907220048482
Fe 9.152461131084433 8.916736528515893 3.7842628902958406
Fe 5.251335499350866 8.655907682466284 9.145393298337385
Fe 9.106815046118253 4.2040746202489965 5.120751396079798
Fe 7.92625362996048 6.771457921179893 6.235154812131013
Fe 6.7478656356977025 6.916626838109382 8.340350417944546
Fe 7.724351882542239 4.492928685887565 7.117082841051408
Fe 7.397874562149286 2.3087541891569336 8.07270841755184
Fe 6.1604701746559485 4.387836223295481 8.95465507849671
Fe 8.6405965199994 2.1533206918780348 6.118448037404428
Fe 5.173896083200963 2.995607682007729 7.286526625294008
Fe 5.477513896480811 5.405913095555496 6.769838024728376
Fe 4.805710075535664 6.209434848397873 9.635466699785553
Fe 6.7865533318673 11.024794610632636 6.450012196624827
Fe 7.141740849249537 7.776652161641457 4.043576387123922
Fe 7.009721622136167 10.20736969028396 4.187519970265344
Fe 6.032517340915063 8.60983116246219 6.14161833423902
Fe 4.687269153982024 10.131139341275492 7.36456729663294
Fe 6.6391934566519595 3.207418114310676 5.513928892241295
Fe 7.038839492382965 5.32338009031468 4.446349184225141
Fe 4.262783302567628 7.361258969465534 7.46762996977771
Fe 5.049243958648639 6.819207801619125 4.903589483460625
Fe 5.3651395990331325 6.430386481673781 2.6973110548002386
Fe 3.016596213598924 6.073774648771092 5.7068227965766924
Fe 3.5777603583148396 4.840003143741058 8.036794573951076
Fe 4.787093879005801 10.629150999029164 5.036216880169753
Fe 5.0502910081983785 8.87045117040854 3.4906486776793884
Fe 3.5046171335198832 8.692789781304075 5.634004337805947
Fe 3.3753539231859597 3.7547413900597717 6.018370599812097
Fe 4.892329716453842 4.342331753613968 4.443526581056132
Fe 3.233793389793752 5.412591255996233 3.3615576921365617
Fe 3.055124128887079 7.648944658412498 3.5620581917804315
