48
Energy = -336.42573382 eV
Fe 7.274800058301782 5.195204444448415 1.0104531493726419
Fe 5.7864875058902046 7.06642523248404 1.4793389244899537
Fe 5.438146892457946 4.300061764185726 2.205932185521134
Fe 8.189344393370197 7.52118868180325 1.5015363702424263
Fe 7.486042182262936 3.739775797691136 3.2323977506852906
Fe 5.707274403477875 2.617852873615333 4.551117314956209
Fe 3.9671583592245714 6.143388892036145 2.696015685855991
Fe 9.124568895382637 5.423235541869403 2.4852379894107446
Fe 7.042722452434376 6.175220458787224 3.227728847397626
Fe 6.780120085278371 8.824237365168386 2.9713040360381453
Fe 4.083797993332345 8.713069445232403 2.689032227874194
Fe 4.461548187151353 3.8924594162739066 6.492881811682602
Fe 7.919697057991089 2.4425453775338215 5.354298442074147
Fe 9.38787778210846 3.7723358450765048 6.893580070971527
Fe 3.3695318646646775 4.433026450999215 4.315850851547149
Fe 3.8937312971334563 2.823035984383164 8.463585037281065
Fe 8.843516105153938 7.512143752729547 3.858007808071879
Fe 6.841834177150524 4.213449488666075 6.203790293038935
Fe 5.606580114172155 4.964065425199509 4.464641121384816
Fe 5.2391506039235844 7.585751657899856 4.176214522130873
Fe 4.472476966234492 6.1427685559169225 5.9471932452940015
Fe 8.62742844697472 5.0790359948428625 4.966479124436222
Fe 2.712350280157347 6.889580890757443 4.507103965662967
Fe 5.78286317859526 2.06331263187499 6.991271086444895
Fe 3.6982821759004936 5.380239390024388 8.247226458678481
Fe 5.989431732239544 2.3118627894775208 9.630302494932236
Fe 6.955227912145135 6.680237872540593 5.651893493513309
Fe 6.064950439618463 4.26594649455418 8.500014933947016
Fe 9.267638422404277 7.240616878029557 6.184534071321954
Fe 7.859363262510959 2.397365524051366 7.9265710647124825
Fe 3.2580186523157963 9.167736284275044 4.957002172445727
Fe 8.15962644787879 5.613830209766001 7.555857956194328
Fe 2.6942830924626278 7.51812820994867 6.790373720237399
Fe 2.262826455607685 5.078127265559548 6.319105117522947
Fe 5.22539278407653 8.343808278791114 6.530249064094602
Fe 4.208344573928073 4.117168057841054 10.340097912058406
Fe 7.4688313614165756 8.948591289782179 5.35093022238313
Fe 5.395639316677622 10.096278691335378 4.781093383516194
Fe 5.812016373804625 6.478100754921782 7.811970285649778
Fe 8.363623026467792 4.124810932630776 9.422545335251144
Fe 7.638132250814122 8.12137707740053 7.657089266926172
Fe 6.5159924422625 4.336128831719343 10.894473226256109
Fe 3.701895172105829 7.813054866253445 8.843821262358288
Fe 6.256716054574215 10.27610243181844 7.147088363762898
Fe 3.809322814440119 9.85064711553494 7.309898856689149
Fe 7.434820006428328 6.46061707641102 9.666480806889114
Fe 5.155815749547352 6.268023021462614 10.118269396754917
Fe 5.809719998626916 8.712094454913789 9.03059230385276
