42
Energy = -293.02532172 eV
Fe 8.162904897780196 1.5675919812171586 5.045715329116079
Fe 7.456181476852154 3.096768392737534 3.419672733406788
Fe 6.744274838672936 5.07513849079024 1.922664494147515
Fe 6.176569531000671 2.6185337231833374 5.5704946572550424
Fe 6.854008154410899 7.457288639894472 2.1707587247295037
Fe 8.864096497837854 3.717339026491804 5.407109312302813
Fe 5.469677828904019 4.339750418079697 3.9139885065834825
Fe 8.230009121797258 5.364889654949074 3.5954872634125015
Fe 7.756244455933063 2.6042049167086416 7.307259652460864
Fe 3.8292291658264 6.096282387302572 4.406037008958643
Fe 4.6609851415927395 5.998496751596558 2.19650636183768
Fe 4.2284912040658025 4.20183021571863 5.948602439044306
Fe 6.8446915035008145 4.9319640830420735 5.929159868330701
Fe 4.57601889463184 8.175350662542257 2.9729221382663007
Fe 6.260580701775667 6.627007892992393 4.256249026908696
Fe 5.729206975456171 3.9104400203957788 7.856946452369133
Fe 8.492647780887353 4.817335572600439 7.814395111529505
Fe 8.91103689999231 6.193404105143436 5.777046764446227
Fe 8.544751380957859 7.852724096503798 4.042285329946635
Fe 2.4203729599794275 5.672198439743013 6.356954529968844
Fe 7.399175942998012 3.7462694640146847 9.587551651356438
Fe 5.213512503923933 4.867998943308544 10.225883016173647
Fe 6.535732034295019 6.140611442867451 8.441426170172099
Fe 4.982789964488876 6.35926081723139 6.64867788043062
Fe 7.185439684027616 4.927593550997746 11.533964826495723
Fe 9.65577923365201 8.462217703407378 6.034445942732973
Fe 6.615105669433951 9.165514209991315 4.018554518240149
Fe 7.106392071316855 7.760812521724266 6.303908592166175
Fe 8.483759532918908 6.119072668240411 10.00412225363008
Fe 8.950676630939357 7.303636487088817 7.935051223867792
Fe 4.73293203502088 8.386172771504244 5.293491045985092
Fe 3.675460964138603 5.204048498092033 8.335683454965567
Fe 2.5028115598189893 7.911519845471469 5.142844392093045
Fe 4.592663693796997 7.215326217757308 9.376338124955641
Fe 6.27093653527768 6.9662185308375495 11.039885942941874
Fe 5.401021855356923 8.73910389887889 7.745488652554556
Fe 8.330376467762543 10.29486225191515 5.302896143103272
Fe 7.245353367077267 8.2364780110665 9.30665164106035
Fe 7.972685689568656 9.71157933641669 7.4094667930617435
Fe 5.985950672806044 10.268122625740952 6.095638678200506
Fe 3.099536985442474 7.715399339278012 7.462239697698095
Fe 3.591034660761967 9.916971972079837 6.600255666191275
