42
Energy = -295.24483387 eV
Fe 6.009029734821702 4.436204385502198 1.8407910177702926
Fe 4.138600487176147 2.949913492802789 0.8636305583093238
Fe 3.969264572180114 5.767535419174672 0.9464052513074095
Fe 6.180325766809585 6.868066120476327 1.419799507830492
Fe 6.550927037083109 2.0855595522738355 1.3325258058362817
Fe 1.5652484542385583 4.253076484718589 1.6068811163927086
Fe 2.301780345133568 6.399279389006422 2.863302960501154
Fe 3.5770846785902655 4.269663434271948 2.785565867574623
Fe 7.501477973556546 3.1156140755899626 3.5598555853666105
Fe 5.4833328435609605 4.347609261511542 4.297109340013623
Fe 4.034550478058907 8.06257396494904 2.0815085219141523
Fe 5.090571877484253 2.4225174213621026 3.0803405851065286
Fe 0.10948237923284646 5.540807344441459 3.23646492293798
Fe 6.245659587128096 8.012225004736623 3.7349731327428586
Fe 2.5338377656536037 2.051266645172418 2.737791673984257
Fe 4.434425807187338 0.653982814197211 1.8296558896661448
Fe 4.811542666452532 6.258024119890625 3.212348732418263
Fe 1.5960670893375415 4.102437728907849 4.230661605137818
Fe 7.331787830350872 5.840405727284693 3.552314456317424
Fe 0.2430095850188714 2.8476969242404664 2.9304889922247264
Fe 6.6226326164925595 0.8017262645742299 3.642741261160491
Fe 4.192048757843579 0.6204118293169063 4.361173205233346
Fe 3.767337218389952 7.933950802077473 4.57437725716684
Fe 0.1364564487381753 4.986163754576614 5.733947241040436
Fe 3.6365434151817313 2.8481687525951105 4.948246712544468
Fe 3.408943177829241 5.45555923118989 5.079665415118331
Fe 6.034079010030193 2.2288720455116113 5.493281848316257
Fe 5.709525729299698 6.498217703740877 5.540988629370734
Fe 1.6283421317655111 1.7828082206195683 4.91344257760454
Fe 7.2697242451330535 4.483182417303763 5.712721454099921
Fe 8.257866955845655 2.4349257679259066 6.1674359706089605
Fe 4.849703801818394 4.268087402297355 6.6885677059241155
Fe 1.4887454021776696 6.846230796837135 5.076510093463808
Fe 4.201508065259554 2.0028197758616835 7.0162711722948545
Fe 2.318235175461161 3.8001589935528837 6.627853142251055
Fe 3.8141539417367434 6.880666177760809 6.948187879996452
Fe 6.600074242914569 3.150974058120545 7.790042781981126
Fe 7.958794039309225 6.702674928850236 5.9484141461411095
Fe 8.404680420785327 4.702370404346797 7.643114833609666
Fe 3.634706363910103 5.071426726234197 8.44122767132409
Fe 1.691895093753409 6.022060797620111 7.32442502223067
Fe 6.263417305605365 5.791504356912725 7.782368973503073
