41
Energy = -283.18745511 eV
Fe 10.405212634962513 4.161812657081574 5.656527454845409
Fe 9.90088367335309 6.251623412856675 6.181324445887859
Fe 9.778672948349017 6.619184952555879 8.635111841724918
Fe 8.595442373440083 2.682643139327204 8.714084628780304
Fe 9.553509119625119 4.415575009208045 7.768949786416301
Fe 9.091605733352353 5.723197071708755 4.038608494301264
Fe 7.531370240360717 6.766506689575754 2.6678981529692454
Fe 8.828728202398802 8.248940040572792 4.487545332974374
Fe 6.825709072370112 9.383924970270842 5.907838576705825
Fe 7.237625616013359 6.814839018202158 5.1975991205517404
Fe 8.03958392594981 4.35113545733086 5.694947888329022
Fe 6.403753451181063 8.647801648701659 3.7065513800829364
Fe 8.005084551875733 4.947996155356346 9.594599966376395
Fe 7.8095723545987195 6.0213247809371335 7.411927200801811
Fe 7.623983874014782 7.426647102499242 9.480946524783041
Fe 6.749903315316789 4.523968369840266 3.8015694111762683
Fe 8.59710020391397 8.211228151792652 7.081702248941535
Fe 6.925272481866634 3.783966338338842 7.751081758532843
Fe 5.6189139143887825 5.415756264379174 6.185961708537963
Fe 5.225594923501932 6.287125509465711 3.585595901990046
Fe 5.5392916154934335 7.8121624283326065 1.6762668598618748
Fe 3.7916016578586222 6.978657609266113 7.737690719979304
Fe 7.48510266954465 3.2060089968407723 10.878658991827761
Fe 6.427902167114438 5.848722846410407 10.992236389805027
Fe 4.6519660497144555 10.082298317574192 4.9308419419554035
Fe 2.7940947538459495 6.432469854626768 3.812703552932174
Fe 5.668810726321106 2.034466691217001 8.271369918175454
Fe 6.190472854213932 7.7582174079700525 7.486576037896068
Fe 5.065347539086935 10.235101897556843 2.5879672886239957
Fe 4.307148651529043 4.202397017428125 4.4616685304028545
Fe 4.84265961996521 7.663461978065484 5.450936320309767
Fe 5.504816157378219 3.733855101697564 9.912641242932857
Fe 5.912784896665094 3.0008481678713976 5.797855667307549
Fe 3.1558688780540285 5.674266656858789 5.915623296353518
Fe 4.414173804879995 9.25919983940267 7.250997282866324
Fe 5.255313790200934 7.792303867560888 9.702969143494009
Fe 3.8927911043703993 8.353609804198518 3.214872787456123
Fe 5.688127710431033 5.714499752119511 8.709126503429774
Fe 2.675931259432985 8.362831355075473 5.443414697190618
Fe 2.695494502637912 10.221654686521969 3.7422222426987224
Fe 4.328160180167683 3.9831521831435426 7.508371959531643
