43
Energy = -300.8343304 eV
Fe 9.96433609791103 8.046015805220089 8.340027893081645
Fe 9.54912295439809 8.660953887211061 6.031595457450455
Fe 10.190041686528605 6.34054719680412 6.726018561917328
Fe 9.235273458083007 5.902867762453422 9.20575895172905
Fe 7.917306465855428 9.395526523511366 7.66527142735341
Fe 7.822593200648277 7.956005932788934 9.504669772562846
Fe 8.871399500119912 6.869154707217836 4.606930075369648
Fe 8.14066622904574 6.788264799159047 7.195098926277003
Fe 7.180520640107089 8.467686548129178 5.585986675572108
Fe 8.899579689255026 4.6410485732609725 5.571899573781098
Fe 9.877084829756614 4.248521197692519 7.696458446723241
Fe 6.836573038564319 5.848069445449452 9.171924348099601
Fe 6.003549787056668 7.797238331034035 7.8916638742267
Fe 6.6743901085575015 7.306621397112221 3.513073566593757
Fe 5.40138422461757 9.644060908694568 6.666797621389442
Fe 7.296014781226885 4.94259355568668 3.570520159653002
Fe 6.695331203257913 6.020151445324582 5.533989842393163
Fe 8.511399285206231 2.43416286689739 7.166540745075018
Fe 7.333457269542696 4.50734247257993 7.307582358020115
Fe 5.052377092705431 7.878598736456726 2.0718117383756245
Fe 5.334249375387409 9.290229073014329 4.172723160410988
Fe 7.84805533595296 3.6649412991615917 9.350782431339196
Fe 5.430173469376119 4.008327567340767 5.5185273067447715
Fe 5.669035489334981 5.552738103075772 1.771113039277574
Fe 4.727872650735365 5.769809645201481 3.969338353185928
Fe 7.370777473017021 2.867909483654157 5.131949274390669
Fe 4.782333736420514 7.469513998409435 5.702882770245436
Fe 5.226069634126289 5.651578168356498 7.371050086167646
Fe 3.1925704711233163 6.496776773087013 1.9087532060838446
Fe 3.2121802271476203 9.285833330969028 5.76770599390137
Fe 6.129221517661717 2.529676803921444 7.3844693424132934
Fe 4.677729544244178 6.684788279128016 9.57732891044088
Fe 3.3539275265437043 7.871844911191252 3.846274808595013
Fe 3.402537014499514 7.438923333881452 7.601158869169882
Fe 5.576503315306656 3.3593755210104934 3.2334774176104304
Fe 5.2428992178820835 4.008482957222705 9.150583364454775
Fe 3.7027621689407306 4.254600095804295 2.1710079477314426
Fe 3.3304153615373346 3.560929923884781 4.418005926588076
Fe 3.307880260098625 5.349159408332809 6.04976066223246
Fe 2.1936703890570106 5.541560656075027 3.8169965956218146
Fe 2.0345981417000423 7.187703660221353 5.609271781988902
Fe 3.805363230875645 3.3562562854942257 7.19043494671089
Fe 3.12116517227283 5.215485088986259 8.587813384931867
