43
Energy = -301.96048163 eV
Fe 2.1119078035280667 4.576610162110268 3.82670441140909
Fe 3.676858860174519 6.141258197882861 6.848039761290657
Fe 4.043993324695341 2.9445234578054653 4.486108229094983
Fe 2.496367012317167 4.213999991568415 6.122063695111238
Fe 3.603902053514305 7.5462132218188644 8.796462680269977
Fe 3.8142432233325416 3.9999771281313796 2.397019998871166
Fe 2.263826148857309 6.609981862062622 4.955198736988333
Fe 5.560922737775714 6.34763767378174 8.936174575122983
Fe 4.710864448837753 3.4953390531581188 6.753577132083495
Fe 4.37531725754961 5.252117752953002 4.733296166692886
Fe 3.2246508168112595 8.534600799478017 6.682785218915456
Fe 3.7933225537010125 4.709827569203998 8.630244792058487
Fe 6.379527478392916 3.7208034414039894 4.846408838296564
Fe 5.428007532664332 9.111838721592818 8.462412677167947
Fe 6.6151650116189 7.983119763391518 10.341075253046771
Fe 5.867721250088044 4.90543787357707 2.7732544316865932
Fe 3.661805602990567 6.319991592514178 2.706480711646978
Fe 6.06820272206563 3.960302740481498 9.06048001121704
Fe 5.591251583423996 7.624372546173422 6.597823467446012
Fe 4.984201186486957 9.892799519450087 5.992225386917504
Fe 6.125562891259875 5.358770931955776 6.826950958785342
Fe 7.621954170439651 5.734255291214314 10.300196380559726
Fe 4.369263232134816 7.73753025118107 4.559130168826532
Fe 6.220419050682411 7.271967195038865 2.61916181188141
Fe 7.505219464180579 7.500505607094959 8.164730628511961
Fe 7.118950319395106 3.0863102181070876 7.118232881872124
Fe 8.318579254549869 3.4465430729128808 9.508057717026892
Fe 7.871571651987694 9.664198315135014 9.120730129789159
Fe 6.54817945484864 6.227083993842583 4.636704219804792
Fe 7.247360905136703 9.572031010940893 6.763718134475644
Fe 8.148691128899914 5.2187928552257805 8.089651971198107
Fe 9.283912744836664 7.44942329589497 9.57892859164616
Fe 6.620101863843287 8.712069342367542 4.523643203414439
Fe 8.1572934581065 5.171963838501287 3.308696237898856
Fe 8.186648309012503 7.342882273729952 5.909004347319972
Fe 8.648037532412454 7.517571482653071 3.6081456975677497
Fe 8.302055546889255 4.8627904254554455 5.7863443269636
Fe 10.02013162504284 5.228294417557457 9.514120053436422
Fe 9.505611779906488 8.920726305003326 7.45667166884388
Fe 9.97824309508512 6.4653090774445365 7.2735339508816885
Fe 10.033370620347373 5.939610822959391 4.6574986994800565
Fe 8.895797506577141 9.590510743873514 5.006856017333537
Fe 10.58800828430269 8.067350284370818 5.44012049441009
