41
Energy = -283.5303441 eV
Fe 8.633239930821665 3.867903405305596 4.214169489922102
Fe 8.354114509580388 5.033676284338492 2.2129160727725874
Fe 8.592437323501688 3.2098398477281944 6.6171454022088145
Fe 8.985698845397856 5.514557893953151 5.970469283013864
Fe 9.63023695074472 6.248974436595888 3.7061781901776425
Fe 6.418947558626588 3.959967294152281 2.987482712409187
Fe 8.84880172858499 7.341150982462204 1.5658528641243619
Fe 8.591672829741968 2.920395957871803 8.864950363088015
Fe 6.509497154299809 3.807943076500218 5.518194741011825
Fe 9.285687133476603 5.106389514179127 8.431262008182234
Fe 7.082863499344551 5.918788955825043 4.52632142227473
Fe 9.10021190563152 7.358304688851428 7.563825075486728
Fe 8.881946560639365 7.87996034391611 5.100558589172289
Fe 6.408841657260649 6.089021529153053 1.729243454347886
Fe 9.358159305321694 8.83589063999494 3.006272033491146
Fe 6.418395748468903 2.9341558239665377 7.9883785415045185
Fe 7.3305306021428525 4.4813635079858205 9.913036702641174
Fe 6.99207233841922 5.2592585996423615 7.350600625762551
Fe 4.30789558933601 4.023758096066034 4.473391371970025
Fe 7.0111311629758575 7.555296072997965 6.466051207963191
Fe 7.197986590391006 7.793017674848585 3.1885067161931473
Fe 7.411262801374694 6.81236274074778 9.165786120668564
Fe 4.432518189004547 3.8869166461796 6.950052030732449
Fe 4.936045405689022 6.022093337978721 6.052659627348227
Fe 5.19146810892803 5.002884798979963 8.916514978592613
Fe 4.9998188186406525 5.960297058422331 3.5518116504913633
Fe 7.000876598885895 9.061498898251072 8.363828749143407
Fe 7.1428855812816865 9.466526734895291 4.891046062756568
Fe 5.911953758704108 6.231535974050383 10.86936181548465
Fe 5.172448161308502 7.268739783112304 8.221684138683628
Fe 2.634625702198855 5.038046740754774 5.803972356508115
Fe 5.26571344556122 8.018083758518497 4.651065391236528
Fe 3.067297312755703 5.8690524451769 7.981623437806292
Fe 5.863756906086114 8.52549413225052 10.370610630051944
Fe 3.0536413496206674 6.868636922625395 4.482449908536893
Fe 3.8202584278077087 7.085209698011643 10.131701978830394
Fe 5.414375078202653 9.447199924243241 6.5911230757245995
Fe 3.510703596589635 7.995362857634047 6.482503916326698
Fe 1.5336978684810987 7.094816857762129 6.425333426607573
Fe 4.403810917954687 9.453917210433834 8.77208751986588
Fe 2.4743750277488274 8.116892579091383 8.542399016480424
