43
Energy = -298.59611546 eV
Fe 9.269114230261154 4.648923368611517 4.584151574030233
Fe 9.765319561546642 3.135164272377669 6.3729127087136135
Fe 7.333541725709563 3.2566775050489305 3.70188055558354
Fe 10.815972781931237 5.236068928168673 6.663398046134607
Fe 7.319334090334722 3.411841381672505 5.958204627364542
Fe 8.710293188115868 6.746116502739669 3.192810027487885
Fe 5.193492689365588 3.4852529578768947 2.584154366141119
Fe 6.911306062065037 5.216910549542243 2.596527106498829
Fe 5.192890948074574 2.3451383767212843 4.791905987488351
Fe 9.65290773988531 4.559078254663029 8.72640956187174
Fe 9.442445623092503 7.057779761732311 5.473777037376305
Fe 7.29837002201402 5.85032475680658 4.903473544658043
Fe 8.163103919103749 2.804380131329141 8.00366117581077
Fe 8.478257772742479 5.213961639118894 6.960287676199599
Fe 5.2533728698961255 3.2459436744781676 7.164069954146774
Fe 9.801754810281222 7.220209201586285 7.76166407087504
Fe 5.225452869774158 4.617667114969501 4.896850170521284
Fe 3.1935394287947814 3.59446191320301 3.6656228880157573
Fe 7.529915384000215 8.34993516611258 4.677198894629436
Fe 6.174893498270399 7.42652759801761 2.9431844124229767
Fe 4.438532456468448 5.783017871086787 2.8390590184417093
Fe 4.472514894427374 4.476895050551964 9.022373066404047
Fe 5.206209217755875 7.1711668637985415 5.217245248222551
Fe 5.422831302282737 9.458876967334765 3.963676063067819
Fe 2.9984603576345945 5.756574589623816 4.698258657185991
Fe 3.2009642942422762 3.492123641596084 5.993219809549001
Fe 7.283217480431021 7.3860935783999935 6.964027287441997
Fe 6.953319490596535 4.5045775306107325 8.986272532549016
Fe 3.540166283365384 7.9854773891356 3.7868554685451006
Fe 8.570694771069261 9.211164743999555 6.799636705120814
Fe 3.8050145898951366 5.57552548110066 6.969236352602502
Fe 6.072804977459417 5.415449818777921 7.060392272449599
Fe 6.187883039439005 9.526085506431276 6.266931891867295
Fe 8.015900874796476 6.625085907107844 9.097026398971147
Fe 4.817046106470608 7.867305047428818 7.442555159027745
Fe 3.806553750259383 9.421486485555143 5.819872764836971
Fe 2.552631447790184 7.517282378518287 6.354597892587913
Fe 5.601904839796286 6.540032222848732 9.177898513431359
Fe 6.74306132978173 8.889140825060716 8.748557244882676
Fe 3.153728526644842 6.788203959647565 8.914112490887916
Fe 4.795989051872061 10.269554251636144 8.099201303583042
Fe 2.799814812402443 9.056612352826157 8.178053928151678
Fe 4.5946786760126574 8.556447636448603 9.862458046306392
