45
Energy = -313.94792009 eV
Fe 7.024363615598329 6.534658756017138 2.9987209669012143
Fe 8.068095949964068 4.4167496666949955 2.4696402817103005
Fe 5.007411646986791 7.081374789329674 1.9348518920604054
Fe 5.54446493522379 4.707863575895027 2.28995777896494
Fe 8.833819121593177 5.708397736189825 4.424448096579162
Fe 9.122110228007138 3.427543463089126 4.6217866969975026
Fe 6.679209378439378 4.134016236208339 4.317963712525869
Fe 9.95244919442516 3.005218729979308 6.840024357014891
Fe 8.37713112080402 8.132278723702854 4.656252761937505
Fe 10.410130798648623 5.161183167473312 6.108431176105016
Fe 6.681633515812307 6.406533201247304 5.360173278396157
Fe 8.761936922040764 6.822174052403793 6.617292594558499
Fe 3.844503788821315 8.677747612413413 3.1896524813190714
Fe 7.712821620280913 2.1225597880517424 6.032033140908171
Fe 5.257813491814956 4.688099234130274 6.174739594700453
Fe 4.1036705663291055 3.9809915552178707 4.05371950763306
Fe 4.597580713746668 6.344861736529378 4.122188603141961
Fe 7.751419825293208 10.259388235760017 5.536247579496222
Fe 6.100699591029974 8.626388364831618 3.9323847614863183
Fe 7.7987528373412 4.473924677015843 6.576330932683512
Fe 5.349278577410984 2.396066031673335 5.355410529381115
Fe 8.361580104154841 2.6533077917219137 8.454275005060701
Fe 5.448477535468148 10.597756511147917 5.412446644922826
Fe 2.9077183874694144 5.200090793794466 5.801700987917314
Fe 4.451401884804602 6.851120923443252 6.738688967405479
Fe 6.697686214957636 6.414853401997349 7.870131332933426
Fe 2.3928654382289514 7.235782418466225 4.705502209835662
Fe 6.109113579262323 2.9272554909352864 7.629276839771517
Fe 8.418305154598498 8.884339153553576 7.614791532007433
Fe 4.812069448612834 4.907972858702815 8.40848547220369
Fe 10.45917293390556 7.088583931675204 8.083365241273025
Fe 6.408849388413958 8.480310087908471 6.408910074272033
Fe 4.056089333048167 8.751457109155156 5.431174126856372
Fe 0.974014693835564 6.366703328491133 6.477967170386143
Fe 9.321776111383077 4.999841260990704 8.316922581584723
Fe 3.650685702983816 3.374240370326749 7.082479027014823
Fe 6.571116549916494 10.636175403619841 7.639650124944528
Fe 8.40450164190597 7.019632279052122 9.359943864535836
Fe 7.145872516675401 4.479660185389675 9.248452651390055
Fe 2.546501495003903 5.622684480882598 8.05923406723135
Fe 6.011936810733478 6.434671697482088 10.140661614074912
Fe 2.3976304124361465 8.007489970052939 7.200427575946182
Fe 4.083797061577934 7.325791890149103 8.994145175528745
Fe 4.4864712785419805 9.488003648123085 7.678051441214727
Fe 6.307728592892517 8.552811868230247 8.976878047068796
