48
Energy = -334.67862648 eV
Fe 8.198126858784505 10.20340443771675 5.936505881525532
Fe 9.759985434207799 8.546067322067174 5.024883905274167
Fe 6.72197836442248 9.244050340327348 7.467541806282391
Fe 11.515763609825282 7.14644378206685 5.9404627413730005
Fe 6.090266875549815 9.8756251111085 4.873960642721533
Fe 7.983657234291629 9.156416628666976 3.638504581539269
Fe 8.193847448532338 10.281713602417707 8.709321631324837
Fe 2.293307608164416 8.799438981663595 5.903249946267951
Fe 8.467969294794738 6.685410046943181 4.047446372182364
Fe 9.443255331472532 8.718482249188412 7.335152257521177
Fe 3.960037930683362 8.806116121477045 4.219252484493646
Fe 4.647389538903967 9.055487215178717 6.5984310513910955
Fe 6.930568301224127 8.45321302958477 9.768608143900451
Fe 10.683900427978863 6.9200960976582975 8.308705807005916
Fe 4.949386116694612 9.40880083866444 9.068833996951758
Fe 7.392362135791974 5.00022853422336 2.8362230592588924
Fe 5.162688070865299 4.970390012447033 2.3482422691991656
Fe 7.1492494173612515 7.792407206154443 5.728959616566781
Fe 6.0690637396440215 7.788977726988346 3.319514923324065
Fe 11.628516022853695 5.110665084533349 7.073667579130066
Fe 3.9498794302644287 6.71606553168408 3.209614299038802
Fe 8.062186066448083 7.020683378338423 8.250471438523471
Fe 10.583077420620146 5.183083730860079 4.624852800807156
Fe 4.056926277629732 6.826490660393704 5.906350687739951
Fe 2.080905341871533 6.7258886910079 4.577965538836677
Fe 5.600735685690891 6.9970219170265135 7.886032769616735
Fe 6.623430368693328 6.276973974781176 10.391075951066714
Fe 9.40471972566634 6.331823481781295 6.243303071398825
Fe 4.486362335319849 7.247333517973926 10.02152921955653
Fe 7.284040721517268 5.511579232305428 6.48358571019566
Fe 9.411746516128778 4.935341483946823 8.390421280944476
Fe 8.288209475230893 4.206896146720411 4.764162224757998
Fe 3.127743307248685 8.145656325940829 8.146061794731004
Fe 1.4947108014919528 6.814837373036221 6.935938184548034
Fe 3.921338199908804 4.67327285726216 4.415155929806879
Fe 6.038510169573487 5.841766892620924 4.5386725988249434
Fe 10.055666702512557 3.6560788458676 6.377428755350964
Fe 5.121941540065472 4.669697082621487 6.719208597407803
Fe 3.3005674343815197 5.808250587673593 8.125889731511496
Fe 5.968798629004244 3.426167974508383 4.154998606020717
Fe 6.882834996908494 4.838122423825852 8.622620975889475
Fe 4.7752593678258455 4.787702653454005 9.527587383171811
Fe 2.471430627367708 4.708514177205978 6.17597458487401
Fe 7.843546364439101 3.40577515467773 7.138262672673184
Fe 5.649134141116599 2.7762259880744784 8.115604865554493
Fe 4.139196702006984 2.637917324455047 5.838925415217034
Fe 6.406201105579683 2.142501771378716 5.9244391358428565
Fe 3.3636788221298213 3.358994490190253 7.980495117546511
