49
Energy = -342.43815127 eV
Fe 1.603188869089122 6.131290295458614 6.433866810677789
Fe 2.265770582729901 5.9810630510876415 8.680665091545789
Fe 2.0246581603623786 3.749388017262527 7.790232617427221
Fe 1.9861258687250696 4.040879675363643 5.410210831821396
Fe 3.2873447495999937 7.338380451095499 2.8744655628668068
Fe 3.4286796194831743 7.606148105147628 7.095743569319066
Fe 3.8996157065114363 4.529591182962962 9.641025127376107
Fe 3.5640495151933127 2.3569334261844097 6.141894615671478
Fe 3.4397071278781914 5.990680888085022 4.841949320063485
Fe 2.607324857264375 8.2431039319807 5.051226713058573
Fe 4.303628783617903 2.6761175660560266 8.284554589055743
Fe 3.8443047683383313 4.887715867734912 7.000737155506259
Fe 4.623649492494872 6.68270353351861 9.052995928664561
Fe 4.01533187830913 9.73458040341142 3.791229291989979
Fe 5.182645974849567 5.819701050343561 2.7805002979743194
Fe 5.379365308503898 8.374883036231775 2.3261346120880586
Fe 4.231210143341361 3.8538469112558746 4.376732511228006
Fe 4.894794818468288 9.467515114277038 6.192778398658957
Fe 5.896531499571964 1.2707362433956992 6.997043574915455
Fe 4.989101583923548 7.727671502759314 4.681051541216707
Fe 5.901071480227942 3.4737264127043055 6.1935438525355915
Fe 5.947022289464088 4.630123064444584 8.393331256950198
Fe 5.203893994305035 1.5833299059331416 4.588905549671405
Fe 5.453184609230358 6.576706051406711 6.753424568601484
Fe 6.240133454917173 5.459417782872789 4.815800797814941
Fe 6.581136813942447 2.535524152051615 9.022577928082548
Fe 6.505844037777184 9.646248236326002 4.288679211472472
Fe 6.342451283383784 5.443772671643331 10.466221125837324
Fe 5.8331369398792265 8.717198044484965 8.155491881401302
Fe 7.495650394035932 1.7465673187535857 5.276102652072583
Fe 6.912810621943241 6.868208359087264 1.2964474278549594
Fe 7.108918409442025 7.350061360513703 3.701392870507314
Fe 6.4527578208468785 3.3375954300807322 3.550368369211475
Fe 8.05513223781916 3.023510308545639 7.291276889857763
Fe 7.356446811702729 7.797640795174767 6.229410745467351
Fe 7.096964658500029 6.7982695386531615 8.71737719123076
Fe 7.568954116986542 5.35925646004845 6.755844308089361
Fe 7.868291385541952 5.261170289144153 2.858536883955748
Fe 7.652916378092625 9.110251775791065 2.085240221348316
Fe 7.428327008403547 10.07615666598378 6.447901904103844
Fe 8.382640677959461 4.731444646755553 8.978376097417938
Fe 8.338854877680399 3.9586085274346594 4.934624036626531
Fe 8.765460410782415 9.042915122717368 4.2942559287998385
Fe 8.302597007664176 8.789866009335894 8.356262875812662
Fe 9.170231859796635 7.278952476446843 2.594871704332351
Fe 9.895012090607741 4.62740529571263 6.711807052033433
Fe 9.335856446530228 6.679321994420642 7.708547767069333
Fe 8.996523009862331 6.405601951199221 5.000175524202171
Fe 9.647485908903343 8.567707678430763 6.31626171791281
