44
Energy = -310.38136198 eV
Fe 6.698749179007481 7.596539255970276 2.4739037452004475
Fe 7.437946425366887 5.24949783110315 2.763935962601102
Fe 8.503941956665951 7.163665257471054 4.0297226216007935
Fe 6.7434035488543245 10.615751840571546 6.15774000192373
Fe 5.071381583919655 5.813570846889182 2.189179778536986
Fe 4.590627353243594 8.049355593776857 3.4463536481583725
Fe 8.579328331310089 4.923983724475506 5.050257671840789
Fe 8.60965707295948 8.891848110294587 5.907059705558579
Fe 6.573994477142609 8.513765396784294 4.783545959618427
Fe 9.89993492057563 6.780176479141206 6.05695872764536
Fe 6.0759451840391465 3.6984001005927514 1.5600367648756073
Fe 6.061898602421938 6.089111104422875 4.499428755633796
Fe 4.632756028656555 9.719548479524034 5.728871686301495
Fe 8.12167473991605 10.148058897522613 7.9770191648643225
Fe 7.532197520555795 3.109430621589155 3.817134039981143
Fe 7.560293305064023 6.716689546824421 6.3020338171617185
Fe 3.461858650934982 5.975972388052103 3.8639952245654374
Fe 4.462415619552052 7.384421909619929 5.819741007294048
Fe 6.3441135957065 8.430511680396584 7.293134558389772
Fe 3.756067276563167 3.6454482666845354 2.2733529075715113
Fe 5.793609828221049 1.7549366887005788 2.7349840918463197
Fe 8.881956145566695 7.839316361148779 8.106337375715185
Fe 5.432437774871635 10.281581427763632 8.266706799685776
Fe 3.7817946762582255 1.785705494520042 3.9057048725350025
Fe 7.108791208298824 9.029853619115732 9.662448498712237
Fe 6.434584671241727 4.081594694212585 6.189647967212698
Fe 6.151589814891409 1.7140164125235935 5.157973894216364
Fe 8.605418893641305 5.128621540570932 7.607715275173892
Fe 2.16750846938075 6.2672237809661375 5.949092162211989
Fe 3.6261560057808992 8.617379566139094 7.651215917864842
Fe 5.720745969096299 5.990483898597462 7.538458854405474
Fe 5.213769076906594 3.8774176833634755 4.0154502680129465
Fe 8.346651858745453 2.8941389888713105 6.470503104507897
Fe 7.2248510628479465 6.613348523053062 9.168119935816776
Fe 4.233358296874153 5.014716816702914 5.9719987334614135
Fe 2.6030064400772996 3.875027902347776 4.517933715741882
Fe 5.017472095203151 7.869122483068142 9.341530055004657
Fe 6.890616819352349 4.077160532925543 8.772531734679033
Fe 6.278661688820811 2.115591540156905 7.5471219431027174
Fe 2.295140360480631 4.103317321179404 6.937699073477866
Fe 3.368676353425037 6.150391825950502 8.072357849522442
Fe 4.2246927535597285 2.6127375758362574 6.063401278702487
Fe 5.0996106842176365 5.5469806816881455 9.829135326868197
Fe 4.5308694832801315 3.8765980461279312 8.086203673057746
