40
Energy = -279.85103649 eV
Fe 3.969451925760029 7.953686738953989 7.569965826290846
Fe 8.115134737854568 6.245776643304219 9.581033576546146
Fe 5.85582018828224 6.756395013747003 8.658906366778458
Fe 1.884815273270239 6.855073773583589 8.04832956087872
Fe 3.900638910941526 5.509759471468936 8.405583976422058
Fe 7.475606571744493 8.36552794329867 8.103711267512537
Fe 2.1180620128113006 8.231620203021919 6.012644083538284
Fe 6.15567357990907 4.529123909016019 9.399391326846521
Fe 4.207518039344292 8.411895563609045 5.0252741782456685
Fe 5.820416728181814 7.228079416939396 6.3028053747897435
Fe 6.641267697920043 9.453233258868218 6.142634079877897
Fe 8.136953055979394 3.885893892670338 8.515178901746559
Fe 9.696876662952597 7.397794533489108 7.959696973950008
Fe 3.4568717312307777 6.027425791930324 6.0982459038103185
Fe 4.297107044782026 3.2331207523816983 8.709314711566112
Fe 7.685439854911988 5.857385917969147 7.404597507273964
Fe 9.218442510761895 9.44542528363385 6.7636677625752935
Fe 0.8838017657436615 6.204545308723192 6.036732866198283
Fe 1.9696322446760446 4.424718329998997 7.514820980975421
Fe 5.623798369290246 4.788497076989741 6.831885718272391
Fe 9.871814157492778 5.407225647157075 6.83377214573232
Fe 10.428035268834826 7.543237998286914 5.453313017936512
Fe 8.571446478534595 9.528343756014367 4.539179827128907
Fe 8.236061943409902 7.464949856396408 5.8076938908628595
Fe 6.2357922643513355 2.6403693031671676 7.50611357630106
Fe 2.42871791575646 6.571430479682143 4.097695863032844
Fe 3.781861312132464 3.424616246706361 6.387530665919715
Fe 1.7992718440172055 4.294012782722192 5.093268570230947
Fe 6.5406376870530405 8.22328629587602 4.073241242150357
Fe 3.9116323439127965 4.287855255410325 4.114426273314274
Fe 4.862351766584027 6.358835039516953 4.019891542742788
Fe 7.076793644311204 5.681539622534015 4.630794391374596
Fe 7.903174826151178 3.8164976188405366 6.090237248797207
Fe 8.70583580965969 7.392219664787319 3.381535578709695
Fe 9.437345921545283 5.396262266693646 4.543228826056627
Fe 5.993378474927216 3.2586999775652394 5.016955092855362
Fe 6.5042842479958605 6.662082625762367 2.2551760742512568
Fe 8.073694035398033 3.522014815639134 3.7010369347690455
Fe 6.041878717872077 4.401773203974561 2.7644763485665282
Fe 8.396433104723354 5.297405781885197 2.295151138005126
