44
Energy = -304.59901076 eV
Fe 9.907741951408997 5.212373885666882 5.418724660174531
Fe 7.372007093663109 2.749399761217116 4.095787529398496
Fe 8.305314722410403 3.393791489615198 6.111819817085789
Fe 8.45200217221872 5.073770822619932 3.574933794891541
Fe 11.111732070048689 6.670318557588487 6.706045485351306
Fe 5.080776104417127 2.1636699959483625 4.807517278616393
Fe 9.579106669666242 4.869170669456685 7.728438227386649
Fe 5.857854862604429 3.774863528786701 6.1514810393191715
Fe 8.992518148492664 7.453017186998492 5.023141386834046
Fe 7.408140727557524 3.9145202263931127 8.154015808671641
Fe 6.180497507966098 4.5732804012847055 3.8050737887620008
Fe 7.467903809101834 5.53075728529443 5.731573485588334
Fe 10.335145593660508 7.000706551486769 8.914175886933412
Fe 6.937918167659983 6.919203762575281 3.757267019888985
Fe 10.366846024129705 8.814335649662821 6.799396004339118
Fe 3.5277708858869445 3.3749776883966396 6.386865192896021
Fe 7.967514241467012 5.889921163385005 9.374983503706844
Fe 3.916772476736906 4.088143211315256 4.170576656818441
Fe 5.110949587459358 3.3345526194827313 8.381024250547737
Fe 8.614604314883174 7.003982551186255 7.3151380183782235
Fe 5.7750022897669036 5.061481014473524 9.892297368527505
Fe 4.825320390279258 5.974627479181342 5.353929744592203
Fe 4.677212310091918 6.23340995371389 2.852832331310612
Fe 5.078047598411945 8.308929731564517 4.0448874249409705
Fe 7.45594383135554 9.321739166246614 4.3247834288627205
Fe 9.220968097297396 9.09280352221242 8.93204873680151
Fe 8.83291977464635 7.600920638770907 10.810420942087669
Fe 2.4870547039314284 5.817604487888189 3.547618565127215
Fe 8.099060049565008 9.317960808732092 6.740730666271838
Fe 3.936227355348561 5.260545009834332 7.864844768334047
Fe 2.543943147602669 5.595185192429348 5.8976335716857475
Fe 6.5409682979361135 7.102066703753803 11.060581784688509
Fe 6.991998709211833 8.041433495618788 8.816694437722036
Fe 6.381035897953888 7.884111083442796 6.078226781505672
Fe 2.986190775842709 7.688526965148965 4.758018456527828
Fe 6.139914063317836 5.9672922521896 7.661245085513026
Fe 5.47803960098693 10.60283755492972 4.063334609591324
Fe 4.096216300430481 7.560373265953745 7.031528049680631
Fe 7.338654152269365 9.383108989800421 10.684363413856603
Fe 6.35592734914329 10.826666452955283 6.199161926634208
Fe 7.332828995060366 10.599600349612952 8.635247769321236
Fe 4.849932938680813 7.15314444071497 9.338073811490348
Fe 4.2114861647450885 9.689630846218165 5.7755794674550005
Fe 5.414441282001531 9.428987944680333 7.8641706274263345
