45
Energy = -316.55257163 eV
Fe 7.588413472090335 6.792456782271835 5.680642680349586
Fe 8.564796669085181 7.533860750157703 3.353889754074869
Fe 4.046713100870553 7.770204410576738 9.271133717284117
Fe 8.168273280180914 7.500299007262848 9.115864968944617
Fe 9.082603643414666 3.077555170824303 7.810675818967085
Fe 4.852034603405812 2.8765884811222096 4.687299351046542
Fe 9.37132773956132 6.807940819221347 7.173998331851783
Fe 6.91803850967618 8.944654128832113 4.538468736585581
Fe 4.804429104029932 9.206041632043474 7.590848755946059
Fe 2.708187332342915 7.428065267956289 4.950179302857482
Fe 3.8736284120737947 5.2827361894411276 4.734849279527308
Fe 6.159929309700693 6.745411082363923 3.734427802281036
Fe 5.071338154392323 7.708300907986841 5.698988490834212
Fe 7.04192200639908 2.5718507670517 9.011968113684773
Fe 6.492096269514762 8.562159353673376 2.3053523778181577
Fe 7.784432145116182 5.101722778157747 8.200138383316638
Fe 9.344515460324242 8.626301194375351 5.4869786979112645
Fe 4.574835228565788 9.061325484712901 3.8018171929121687
Fe 6.257294790638014 8.832333980750906 9.51439294161957
Fe 4.022446499806113 6.897803019989421 2.9954292315502427
Fe 5.487071771995826 4.410245051912967 8.300119631246064
Fe 8.280488177777546 5.7607904809792725 10.787352849957717
Fe 3.877510000452745 5.483270226868963 9.464588896030566
Fe 10.033925033424707 5.53586485473379 9.16357343172361
Fe 3.289584922080071 9.705966059993676 5.6641861553025725
Fe 6.64213227410048 2.954779842965441 6.686905409106361
Fe 8.717918648360175 9.926167999972074 3.603043023692425
Fe 6.070942530983768 6.435034774785585 10.092026239926353
Fe 7.300368801807543 8.730287704589152 7.070460711820315
Fe 8.013304761185427 5.192029651246066 3.621043582056987
Fe 2.6302666756055246 8.104316735721632 7.241699346656991
Fe 5.639903057703748 4.587807783022994 3.1790650561550113
Fe 8.858469209964307 3.6188923783091997 10.119548206461777
Fe 7.20915537523361 3.172236901217437 4.358843044981301
Fe 3.767987960664172 6.034040511279455 7.064851306323234
Fe 5.990020267882087 5.044221327339673 5.786035763713516
Fe 8.065885684442032 10.68805916300483 5.857570639926361
Fe 5.62847795489748 10.460275061844579 5.77110725955495
Fe 6.401521201662018 4.193710278631987 10.509306316127878
Fe 6.575697131489341 10.770543921354887 7.970538343897072
Fe 5.958113298670719 6.814697101499182 7.798978304452673
Fe 4.02384111537614 3.7287304983190053 6.7003650111789375
Fe 10.565884928302074 4.786611482532465 6.959744655906409
Fe 9.950188027549851 6.261110552533962 4.881049578297093
Fe 8.503967931471252 4.482580920842626 5.900535780414357
