47
Energy = -329.26670768 eV
Fe 2.4951966636766554 5.33660679566556 4.043566259504454
Fe 5.181632931537753 2.1059032922050718 3.8828312960319153
Fe 6.329306169578773 0.6241634647029567 5.131380744043254
Fe 6.2065487632316145 6.4296995874438565 5.414002770959253
Fe 7.423751792059536 2.8222325370541927 5.011045541593195
Fe 3.2705165094331883 7.746706226860589 3.781811550058363
Fe 7.218427616135849 2.0154568921602203 7.356816006489591
Fe 4.218935383061654 8.246597907063721 5.933581953630736
Fe 7.2154861020432906 1.815445444686368 2.8191804075538847
Fe 3.3433423435281995 3.507200838576379 5.424290521089993
Fe 2.9003048928967954 3.6987264522217616 1.0949653838493478
Fe 5.221961424369878 2.2307400264546104 6.30917801583482
Fe 5.484363638111538 6.726215557518827 7.650430167742313
Fe 1.8749381940529601 4.8172957133164 6.658613977324062
Fe 3.010774919786378 6.859006313104439 7.624442921353276
Fe 6.570198453959331 4.190132196174789 3.093080285132852
Fe 2.10892676300041 2.9021430108797346 3.5432652141577474
Fe 5.474322970162488 4.254915806832748 5.098956863970346
Fe 1.1453248526967315 2.4479473843780117 5.674904441409975
Fe 5.414966985566163 2.6754020228127873 1.3777831993217644
Fe 0.4423960218815303 4.64682470380264 4.6879065317367035
Fe 5.926403761940903 8.39266890351909 4.083439036057779
Fe 0.8304547920703307 4.459752558362989 2.1848756970399825
Fe 3.112813108268062 2.308294389989588 7.358862030763707
Fe 7.5114437136693395 3.800118512937915 1.1018225497874548
Fe 6.657243916956978 4.404325755891858 7.076095048041838
Fe 2.9534722181454307 6.1413303185976975 1.8668825084068903
Fe 4.149611465342413 3.9286494165597543 2.959520484127042
Fe 1.2362888038971225 2.046777259321299 1.5492217791705662
Fe 7.21482105171096 6.438405422478938 2.9551147290243467
Fe 3.389755904429954 1.119502831030846 5.079135640721941
Fe 4.355898859562939 4.423893258756726 7.541954630262959
Fe 8.146129506015646 5.1860795356436995 5.00928939489117
Fe 8.826786185078618 2.5266740060601207 3.6950626637819775
Fe 6.54139968449954 8.647872142826987 6.510045948982358
Fe 5.427310961011689 2.545941553255395 8.630122958892882
Fe 5.0400642315525275 7.572657361641443 1.8420221734555426
Fe 0.8764382364228793 6.700589697610377 3.1792418646091467
Fe 3.940945849041892 5.923260520910428 5.78159041309479
Fe 8.826786185078618 3.867739089572005 3.1326061280589403
Fe 4.879725843450537 6.06440105082823 3.5059318958809738
Fe 1.5028310144706476 0.6940793566965667 3.666520699032534
Fe 8.178925646277625 7.690974712320199 4.772057150885655
Fe 7.862202254406241 6.713602911808505 7.030655816002046
Fe 1.683045554843167 7.037085556728668 5.555796999420585
Fe 3.5065848062865403 1.3771986744725924 2.4061122911500523
Fe 5.303749082392278 5.280658898748971 1.305881286157394
