49
Energy = -345.76466066 eV
Fe 5.727180554829357 6.302608202175986 1.0564558803943416
Fe 3.3021485825861694 5.21859119582262 0.43530236647601106
Fe 5.3359026729654 3.7881537455860554 0.8296145563254425
Fe 2.982307870222104 3.1551896846032705 1.9102488601886392
Fe 4.755689033182768 1.4112023700873537 1.5604724495835072
Fe 3.5984601844456807 7.357307552281456 1.6777147308532208
Fe 6.783545048535747 4.826956183835065 3.050763505218471
Fe 1.8190436579904 5.370109505563189 2.4090240230767903
Fe 7.000799142365915 2.4512771302452507 1.956706293829074
Fe 5.863469613568971 8.737878690074524 2.0003121240791217
Fe 4.284092293898719 5.104377119016795 2.5032894834565216
Fe 2.9285091964928562 3.866689166648879 4.433541927728144
Fe 5.159220061565487 3.082242942627454 3.2361459109354667
Fe 3.443445591245013 1.4772733720050684 3.6855913310905106
Fe 1.6006940981519568 7.742274109845741 3.1363806389231588
Fe 8.605852224021188 5.102382065932997 4.711793529006771
Fe 6.015215972929598 0.8763318154552945 3.6463919595041654
Fe 3.913559420532706 8.82964398139919 3.6512348351552606
Fe 3.2194511006819426 6.509283665664587 4.009486964848045
Fe 7.846599328484007 7.12975223455508 3.0854730979576024
Fe 7.379973235870191 3.008986755988602 4.333779261802177
Fe 6.5661936985789024 8.837535197828268 4.51764588400783
Fe 5.511230342484819 7.003450886705584 3.3487738250887884
Fe 4.964106007662925 5.006437466957688 4.827491844074744
Fe 6.749854529929175 6.392969165790997 5.258029853795215
Fe 7.004228206854512 1.169128705393175 5.927779442323191
Fe 8.708314529187161 7.644475925934181 5.208415754020038
Fe 1.099275078412843 5.806089460648805 4.854448187328078
Fe 5.148098933041861 2.4045678035595506 5.472925572031585
Fe 4.706265132816266 7.663025301033978 5.7033806869067405
Fe 2.274514523688505 8.056679031431745 5.567689765827266
Fe 1.6155606593741667 4.10340254075892 6.634540211831125
Fe 4.449954464195984 0.2213231011344 5.472098322105389
Fe 3.2144978588962805 5.811747956949034 6.207441598748445
Fe 8.621479175474773 3.412733642129996 6.705535749576
Fe 2.722134634639228 1.9888846898246852 6.0499085647987645
Fe 4.233434116658695 3.8135616345629844 7.011476228956473
Fe 6.613331986157698 4.2158591107677585 6.238940589608611
Fe 6.755106656808336 8.124345585548333 6.855012953623152
Fe 8.131902232497072 5.958718314491905 7.1345464869707405
Fe 1.2799168665451943 6.482150821100182 7.300923030931784
Fe 6.5486434440733285 2.5208014083653425 7.837561821073505
Fe 4.478188074543463 1.4097855358734974 7.677092080180094
Fe 3.458881612001901 7.600426335357728 7.79583078498451
Fe 2.6142726489252004 2.8098722374383605 8.444214165904892
Fe 5.392468998055977 5.981834268368331 7.469543828703783
Fe 7.036843849107721 4.588813124219396 8.683098857744353
Fe 3.035725386696209 5.281483110101794 8.556856089235222
Fe 4.791158959962566 3.6321276401456712 9.20981558102417
