46
Energy = -323.78310724 eV
Fe 5.444799126692494 6.995579686672928 0.5944915008698761
Fe 3.480778903750666 3.411893312689882 1.094226511602246
Fe 2.783772289746267 7.4989642357765485 1.08287356535765
Fe 6.0182919578079055 4.4692313914040644 1.0382502214497304
Fe 1.591087837330699 5.492690629091518 1.3970546140447266
Fe 7.133564718409064 6.734801413765585 2.3119763249290206
Fe 4.082127777681107 5.64048691743914 1.4493563553300481
Fe 4.3753195174886335 7.999717157493192 2.634515876074644
Fe 5.761238522658976 2.298701802714367 1.9753833009281911
Fe 8.066061390475985 2.9522589486641526 1.5868673286067
Fe 1.6439014359777626 3.5402406990042112 2.8230839828853345
Fe 7.4919952022068 2.303444420085303 4.0408843681603805
Fe 3.3947838820309477 1.594922972248859 2.8203356439685576
Fe 1.8407652354090769 7.72174096244836 3.2900091351137903
Fe 5.275979490202771 1.7847695587322907 4.406827380699263
Fe 7.247995206360737 4.427599046220568 3.0285386217294556
Fe 0.41972380256920283 5.769803672713348 3.56305952359961
Fe 2.8171198260034473 5.566438479967897 3.4534561761539946
Fe 6.261645348830982 8.238197184571 4.368727441461415
Fe 5.339044072701433 6.047453922976149 3.5398491786027946
Fe 4.529152111025157 3.8286782670648294 3.1281414550726407
Fe 1.0823013993564354 4.179559277388257 5.253261265871487
Fe 7.736367856604899 6.184881822478084 4.592412982300823
Fe 1.4029398341360388 1.603380826009974 4.258222691841407
Fe 8.696973576667128 4.07571174127922 5.047100369155744
Fe 2.6619186062036295 4.438049380227304 7.265027320587917
Fe 3.026292114926855 3.068767269682909 4.810532682019883
Fe 6.08448335699427 4.14416003160273 5.098125427452127
Fe 5.765160151989691 6.415698733029508 5.970365858576136
Fe 3.902763352997299 5.126121042615016 5.480754464467574
Fe 7.584545759071311 7.797090581030396 6.475230926091094
Fe 2.0536518562064763 2.1529952933335386 6.850859839136867
Fe 4.546147282364786 2.708647182219286 6.55761177149113
Fe 3.7988057628269427 7.583595186139224 4.909430711895096
Fe 7.584453099245946 5.197489595420782 6.941245117291756
Fe 3.5950229685476294 0.7058371321220289 5.263265098982947
Fe 5.205456358376718 8.66189793234458 6.598304392195077
Fe 1.7550100111661426 6.446140232041905 5.642825352803772
Fe 7.101084105119562 2.764084257362338 6.634187517558366
Fe 5.82612477417932 0.7221662521766113 6.634581757539667
Fe 3.7813364914289656 0.8140002242656573 7.842804074387859
Fe 5.253521386291398 4.621452591774567 7.728557351522678
Fe 3.5643902250091966 2.92900815757072 8.876973394759936
Fe 6.058584694893636 6.9013897673053926 8.272551942330576
Fe 3.7601174754642295 6.7502429617388 7.389957793143036
Fe 5.806289816602742 2.3229078191272023 8.610791361988994
