44
Energy = -302.80979168 eV
Fe 7.070021830648955 8.708996080442729 7.070021830648955
Fe 7.070021830648955 12.076753320000085 7.070021830648955
Fe 8.755096978022632 8.755096978022632 8.755096978022632
Fe 7.070021830648955 10.475399086707224 8.782607851575476
Fe 7.070021830648955 7.070021830648955 8.708996080442729
Fe 7.070021830648955 5.43104758085518 7.070021830648955
Fe 7.070021830648955 7.070021830648955 5.43104758085518
Fe 8.708996080442729 7.070021830648955 7.070021830648955
Fe 5.43104758085518 7.070021830648955 7.070021830648955
Fe 7.070021830648955 7.070021830648955 12.076753320000085
Fe 7.070021830648955 2.063290341297994 7.070021830648955
Fe 7.070021830648955 7.070021830648955 2.063290341297994
Fe 12.076753320000085 7.070021830648955 7.070021830648955
Fe 2.063290341297994 7.070021830648955 7.070021830648955
Fe 8.755096978022632 5.3849466832752775 8.755096978022632
Fe 8.755096978022632 5.3849466832752775 5.3849466832752775
Fe 8.755096978022632 8.755096978022632 5.3849466832752775
Fe 5.3849466832752775 8.755096978022632 5.3849466832752775
Fe 5.3849466832752775 8.755096978022632 8.755096978022632
Fe 5.3849466832752775 5.3849466832752775 8.755096978022632
Fe 5.3849466832752775 5.3849466832752775 5.3849466832752775
Fe 7.070021830648955 5.357435809722434 10.475399086707224
Fe 7.070021830648955 3.664644574590683 5.357435809722434
Fe 7.070021830648955 8.782607851575476 3.664644574590683
Fe 8.782607851575476 7.070021830648955 10.475399086707224
Fe 10.475399086707224 7.070021830648955 5.357435809722434
Fe 5.357435809722434 7.070021830648955 3.664644574590683
Fe 3.664644574590683 7.070021830648955 8.782607851575476
Fe 8.782607851575476 3.664644574590683 7.070021830648955
Fe 10.475399086707224 8.782607851575476 7.070021830648955
Fe 5.357435809722434 10.475399086707224 7.070021830648955
Fe 3.664644574590683 5.357435809722434 7.070021830648955
Fe 8.782607851575476 7.070021830648955 3.664644574590683
Fe 10.475399086707224 7.070021830648955 8.782607851575476
Fe 5.357435809722434 7.070021830648955 10.475399086707224
Fe 3.664644574590683 7.070021830648955 5.357435809722434
Fe 8.782607851575476 10.475399086707224 7.070021830648955
Fe 10.475399086707224 5.357435809722434 7.070021830648955
Fe 5.357435809722434 3.664644574590683 7.070021830648955
Fe 3.664644574590683 8.782607851575476 7.070021830648955
Fe 7.070021830648955 8.782607851575476 10.475399086707224
Fe 7.070021830648955 10.475399086707224 5.357435809722434
Fe 7.070021830648955 5.357435809722434 3.664644574590683
Fe 7.070021830648955 3.664644574590683 8.782607851575476
