42
Energy = -292.87894072 eV
Fe 6.140768299138883 9.444777860165313 3.015292649535571
Fe 9.032372326783046 3.025345378370339 7.693992507448705
Fe 6.026739193197232 5.5819119732814215 7.508321292431166
Fe 10.55604272617631 4.470735489287094 6.360823065723887
Fe 7.165109621943139 6.737906618606988 5.66130784390976
Fe 3.1219818644412567 7.521689798872465 4.731819609118386
Fe 3.562259965061799 6.627685686288512 2.389915402046144
Fe 8.804780397786102 8.429227999950662 6.13387999973205
Fe 6.877507507437705 9.368595860992393 7.689151815062052
Fe 2.549693205719858 4.163550996870237 6.330501662532746
Fe 9.253157356012194 7.099341268845374 9.795475696952519
Fe 4.435875725218583 9.539844930244422 5.140192165938679
Fe 7.936388113659033 7.9009704348754015 3.622743016816601
Fe 5.25857186010239 7.812042858491536 6.6723168103680734
Fe 5.3444154716483565 5.104641274029299 9.607388993035306
Fe 4.935850882154222 5.106050126789751 3.436292483128728
Fe 3.8688763321718214 8.878633642728966 2.885121203510194
Fe 7.656915724686827 7.118895065103193 7.98754905719814
Fe 5.440735233222741 7.344592855971453 4.199291566280104
Fe 7.88255491693396 5.061427481312883 9.187682260438665
Fe 3.1170149027430116 8.303044824502452 7.138011059722336
Fe 6.7158012933710625 3.165730984555059 8.597604771328808
Fe 8.701664636586546 3.752514475437195 5.032229004827801
Fe 9.286913752422073 8.98642478973041 8.354999007541636
Fe 7.015318908028213 2.631224572021435 6.433904756134161
Fe 10.13555901686308 4.963021305065465 8.816608497517636
Fe 4.319130526985287 3.2759972509430333 5.066251493730883
Fe 4.7161686720849545 3.695892276521583 7.375097341571288
Fe 4.398619432134718 5.725367137792201 5.76540969541472
Fe 9.293897656643013 6.1938374747137495 4.963554336373943
Fe 3.6785599814161443 5.976521697394057 7.966050897200855
Fe 6.774754884254395 9.289987805375198 5.307618238048701
Fe 5.332496232667018 7.511590002764444 9.020244454298812
Fe 1.8934546893649147 6.44190014366095 6.360437986235415
Fe 8.257541058290515 5.015926303796713 6.882778939810952
Fe 7.303294135611704 8.702609670151668 9.886147278725016
Fe 6.361093848768745 4.554556956363258 5.300223592847967
Fe 6.989002637565644 6.52308731372488 10.636955297582242
Fe 7.292391039312697 5.721984878963574 3.391498329222937
Fe 9.983770072380992 6.68921284524098 7.366259743382789
Fe 2.6289065308606627 5.1774803272396825 4.221794037031989
Fe 5.905612828229991 7.269497272467935 2.0070464767611904
