41
Energy = -285.77113662 eV
Fe 3.334797580165608 3.219125555957827 5.947111808361355
Fe 4.982099367031967 2.8533293268642064 7.603652320911144
Fe 5.512446212486377 2.8459343364324234 4.992245711541915
Fe 2.610839117023541 5.552615179719095 6.104006289124981
Fe 4.158116281736129 4.78678990968542 4.087689833922573
Fe 7.464745961814582 3.170449531642049 8.872968088180347
Fe 3.454009622619736 4.752381114224565 8.202238250311742
Fe 7.008351891099829 3.868345922130627 6.609562524415045
Fe 7.871386319609469 3.203550384879561 4.375539917922358
Fe 5.8966727130690755 4.993433105161221 8.618844905736443
Fe 5.965471492689548 3.9701808449944647 2.769500859330981
Fe 4.064217483680732 5.674011222597712 2.0060119291054255
Fe 2.4373826256458515 6.444436409546562 3.7974854173339945
Fe 4.9144555415548465 4.9711315328703325 6.382091491993851
Fe 0.9419465145612584 7.1266930218564974 5.187242711863832
Fe 7.856201946705133 5.139821712727395 10.281967163860962
Fe 8.295375555021204 5.493720741081801 7.988396960827915
Fe 2.6040748958001516 7.82894236211789 6.844521246598454
Fe 9.263804899811674 3.2227018025619016 7.00314574034577
Fe 6.498719598692116 5.326488682183373 4.713116367206885
Fe 9.699062591620185 3.9551911071572388 9.291550377929408
Fe 4.494643810045414 7.01479100745742 5.181813670945607
Fe 4.630767996672228 7.015834993398731 7.775472304767687
Fe 2.7021185613921896 8.73577093077986 4.586516301879094
Fe 8.169279996466603 5.0972364964938635 3.0045046695016175
Fe 10.646925204583521 5.088823667658381 7.434643243901178
Fe 8.877479043012645 5.120473276574252 5.516031692371439
Fe 6.064579375265765 6.56495210955045 2.834386120035429
Fe 6.795164184780161 6.733895144500217 6.628068173258505
Fe 6.73471804350075 7.1020272475285715 9.355715493089162
Fe 4.1592714748637345 8.025135226799755 2.9138737310904084
Fe 4.500378712124677 9.120812009123624 6.218553495350016
Fe 9.893528916841522 6.506861457816373 9.424892104949555
Fe 9.593078453572478 7.101186933282078 6.5529803382805225
Fe 8.223900419413242 7.128412754208353 4.364065491725773
Fe 6.150328076772632 8.461421393096272 4.4743289520041785
Fe 6.240458880717848 8.90864514112214 7.778745552954448
Fe 4.453627779106965 10.073161020702743 3.9918895403392596
Fe 8.492117482544813 8.147316918523979 8.317834282400364
Fe 7.928502878811385 8.82630145828688 6.09907387347837
Fe 6.239245763439867 10.454732188598875 5.70018581083936
