41
Energy = -286.82666701 eV
Fe 11.237286845888567 5.585497739137461 7.112734386948208
Fe 9.230813435663139 5.227148980413479 8.51671763660427
Fe 10.636063831244533 7.486788827296545 8.212728795763393
Fe 9.110496801358673 7.052405506853145 9.938858544856597
Fe 7.005084492658096 6.141731597408561 10.386896743357093
Fe 9.778022146696818 3.8423779378491925 6.373828684019075
Fe 7.542808196356808 4.513608359927694 6.801898520244789
Fe 6.605312218033845 4.2625632867549745 8.980979132082842
Fe 10.479480232353263 7.978621249988749 5.856704607375919
Fe 10.77967492117424 5.7230083885441365 4.8296303372309035
Fe 7.678159730873484 2.6177458483220186 5.3700542524334605
Fe 7.3803547253438975 8.578608144604399 9.89826301862315
Fe 4.706484177058591 5.366281613317658 9.9068308189264
Fe 8.96732816460422 6.426318650463877 6.362196912330667
Fe 5.848538495766544 2.820153136443974 7.025480329691095
Fe 7.223162816910769 6.696120220258012 8.00237991629441
Fe 8.614680261737044 8.524637676197964 7.777091574137008
Fe 3.9401530158883626 3.7329766923891063 8.285888446225503
Fe 8.54088371677919 4.6683890773597145 4.54519379750896
Fe 5.357982605219341 7.639772771567244 9.27994684057991
Fe 3.475723968838472 6.514497638344132 8.15664155918334
Fe 8.92674595317838 7.087847362031624 4.04291841575996
Fe 6.713602871660342 6.4213332206825475 5.271496086558161
Fe 5.272596241678973 5.32278496438316 7.226320514682072
Fe 3.976378003526882 3.4676281687775288 5.744594961163972
Fe 6.390496150325817 9.476376770177971 7.904074404195049
Fe 2.505846911214234 4.9495640186661936 6.735376620119076
Fe 5.958126009729704 4.264211343022729 4.72757815121411
Fe 3.8760204915010656 9.213573968224576 7.939505146082884
Fe 7.272525381934953 5.665886454843457 2.8518615956741096
Fe 7.491846666521784 8.61832674524076 5.679280982671993
Fe 5.221929151571326 7.7894283269366955 6.818267996614918
Fe 2.5239529819686775 7.553575949938762 6.229173146133881
Fe 7.029985121049346 8.125535043015583 3.1859104089771573
Fe 5.097286944194205 6.343194686517575 3.15978373002575
Fe 4.103718912408181 5.979274271051661 5.282979669361701
Fe 5.560252409196465 10.230499967979418 5.809496383512483
Fe 3.2782524065774608 9.695260241891914 5.63950690561573
Fe 5.214782902454005 8.257036933376002 4.529027395207415
Fe 2.967589669124834 7.816216533282443 3.9184033411153716
Fe 4.1641035928735555 9.898294344866304 3.476357211570552
