48
Energy = -336.42271265 eV
Fe 10.703027625219331 7.9694762510205415 7.652602568757314
Fe 10.257499477377737 7.95253789159838 5.16097771181008
Fe 10.16418182687908 5.321139496740938 4.371430848722546
Fe 10.10472405537386 5.894167062925806 6.610269795183915
Fe 8.678581254008296 9.083654531526513 8.635274668775637
Fe 9.469795492392004 9.75751984744627 6.501959221837138
Fe 8.957555385085563 6.593870282007538 8.867503987862737
Fe 9.75030560977982 3.5890850087801676 6.218367997903097
Fe 8.902003913863574 3.13881524167546 4.150880388621996
Fe 8.428728358869296 7.492750065164062 6.687068666534145
Fe 8.425366946823507 7.192431115008501 3.9790167469579996
Fe 8.422478877209647 4.996442272823161 2.806260012164849
Fe 8.237755788657376 4.584066296642411 7.755237480336792
Fe 6.910262897895422 7.613523155929506 9.270725191626433
Fe 7.922504041506744 9.337250044204108 4.781709585642791
Fe 7.866752520202604 5.32711955129535 5.445299870383481
Fe 7.014047066275817 9.42913092539612 6.983325330615651
Fe 5.793944799261658 3.9230665589381073 7.761523270885188
Fe 7.336303034089889 3.0293657978540875 6.11344253061644
Fe 6.574682523922868 6.215479980827978 7.480255739322236
Fe 6.733414257320661 5.199481581910496 9.637267327779215
Fe 6.627951025664771 3.5741678625523186 3.8747433472074584
Fe 6.40820555538543 7.429689937670923 5.4885472729946025
Fe 6.33319735421605 5.900946711485612 3.5794531437708637
Fe 7.448309353379939 6.996336469342423 1.7785097949395314
Fe 4.079840319263333 3.900667956243739 9.339506791211429
Fe 5.420872064093175 5.062656214837399 5.686540893850424
Fe 5.085733492893433 2.58484148371116 5.346038334281655
Fe 5.149296773113462 8.384613346666352 7.9418976428020045
Fe 6.286780110976169 4.49527668888677 1.7057217239454585
Fe 3.970768243341684 2.3432509643814727 7.352200594527405
Fe 4.384252140551552 7.059692791701085 4.107921744847345
Fe 4.6346002504830475 6.105546544819474 8.856435822909424
Fe 4.898663693791396 9.163023722910014 5.42513438296733
Fe 4.163860515052841 6.927434903950698 6.547711613617554
Fe 3.5404627612867774 4.727589785924896 7.179830463634136
Fe 6.211242886076242 8.409794112302892 3.225394219952107
Fe 4.321996472898434 4.3942097137001035 3.5651994692517524
Fe 4.94100698795107 6.559540502547616 1.8950888229721492
Fe 2.990118596452645 9.170534003780558 6.980948799122399
Fe 1.8946963850007128 3.153885623893813 7.96707588979039
Fe 2.8170526544592716 3.153655068231445 5.420972473706745
Fe 2.0610679850674725 5.418286060734289 8.78650944410295
Fe 2.8099073046291827 5.5842290204261085 5.067791594821414
Fe 2.901688963450616 7.718403246160522 8.765279139466392
Fe 2.5321805553863723 8.117813596038028 4.98097624352116
Fe 1.7482600186204391 6.8803948253745615 6.957483188272601
Fe 1.088879572611826 4.621141973732666 6.402636300739226
