47
Energy = -329.44040205 eV
Fe 6.629397873529284 4.15872075047409 2.853332017827481
Fe 6.0588449681805505 6.383063146968249 1.8592693373815807
Fe 8.43066456802238 3.7638873605346324 4.353108375310402
Fe 5.474739632680074 8.446979267833003 1.111871819202693
Fe 4.063296322625771 7.390942999702755 2.7686492884249776
Fe 5.892967167890405 3.0943643667204013 4.831107742141861
Fe 10.036565172453924 3.550885454767933 6.1600888529799604
Fe 7.357432104163965 8.49146402915905 2.4421356475777034
Fe 7.728186234287116 6.18594266603087 3.49282417049951
Fe 4.956936516472805 5.4551495313591465 3.8982168717772714
Fe 2.7479929330592245 6.172455823762178 4.478184636379489
Fe 3.965938136348415 4.279442625397385 5.79795124984249
Fe 3.8423797472696215 8.356080282233847 4.839124902184993
Fe 7.6583009960445265 2.818245483984906 6.4895526904797105
Fe 5.219885866605691 9.584636399038349 3.133760726951959
Fe 8.94729560987736 8.211071625346971 4.325990573201244
Fe 9.429020953976961 5.837378539193894 5.17918038256226
Fe 3.847528631733132 5.1887066231047845 8.312860571351829
Fe 6.711095391964582 5.184563563160893 5.466188866111939
Fe 2.0694983503107527 5.4251178935751385 6.675326698347437
Fe 5.816321960818224 4.055338820340865 7.393974607095816
Fe 6.036787352337042 7.644043858249652 4.404768927343699
Fe 1.826016422731221 7.77150134685805 5.983178519769457
Fe 8.403942821614143 5.072301094637064 7.279766369162368
Fe 4.954084998260533 3.1505808794663457 9.355947767722917
Fe 7.164491140654461 9.739764799313988 4.715384816283056
Fe 2.3906624737254796 7.187601214815919 8.227445766805438
Fe 6.916295979950079 2.0317454302695555 8.603822544673122
Fe 7.6978882608479475 7.27456430176142 6.119328359066758
Fe 3.3993389770817886 9.085181484683323 7.095640961650623
Fe 4.51007611136236 6.571934510180773 6.364040813508141
Fe 9.28492871120812 2.9326678591752486 8.275973162125775
Fe 4.96411153249297 10.33045418077769 5.456351539723032
Fe 10.748492797712055 5.575008030893789 7.076711690534187
Fe 5.563350505931641 5.352294833840612 9.961501746640392
Fe 6.4863277540560125 6.333696958882578 8.020869769339932
Fe 5.881314270620227 8.689746720187795 6.683406831320258
Fe 10.302663273318773 7.881270255090959 6.276762573040363
Fe 7.490888786954129 4.148038860172273 9.279340453474076
Fe 9.687151753462246 5.154875266254249 9.257137530516813
Fe 3.569404524745213 6.5569563144821705 10.307417373339662
Fe 4.685718278599849 7.782014639417017 8.602755315865538
Fe 8.497287763284444 9.387910736896288 6.721254992166113
Fe 9.022408324817881 7.179310454992871 8.138889098787036
Fe 5.931940716068036 7.696645604108654 10.544754012956542
Fe 7.176705641974743 8.529121488665814 8.628725472597678
Fe 7.870618274105468 6.498285764130395 10.144491145278943
