46
Energy = -324.69239098 eV
Fe 5.444497267149813 5.693433227267495 0.282900830205215
Fe 3.8175944789176923 3.4076679490978345 0.7818645550177173
Fe 3.0341503357931128 5.93399593827307 1.0813885615755294
Fe 6.349763572833672 2.888677657798939 1.8299813506178935
Fe 2.247113745607577 1.8559087580118807 2.1689390556341923
Fe 4.424010917748074 1.1809326661391877 1.2239150595187174
Fe 4.905966194454205 7.427139396051907 1.9071558860978217
Fe 7.128323843156904 5.855551765055998 2.2727172361446617
Fe 4.873039610014912 4.81617880070614 2.25095254814371
Fe 2.2543656306730724 8.397363932589005 2.9541882029974422
Fe 2.4919476244134544 4.049644107856726 2.774133828590485
Fe 8.614265545993835 3.948132911173511 3.6579553286967124
Fe 3.301282413793197 0.2475112762738064 3.4171468694776137
Fe 7.0494328501419465 1.8421740157556168 4.313133462644805
Fe 4.595659846119533 2.4434682908100123 3.2278062649089385
Fe 0.8966012659982453 5.880483662521164 3.1368742563656533
Fe 3.165300905339438 6.370732623283006 3.3884152362549425
Fe 0.7128655436016146 3.1589344247443094 4.023762730869373
Fe 6.8156531902822195 8.079127905035708 3.3363403116295096
Fe 6.489544002269797 4.141846727299029 3.9213115060519406
Fe 5.784782349031636 0.2936881747583784 3.016340555636688
Fe 5.5655525523889855 6.426766772114109 4.057417176426911
Fe 4.290364211702265 8.475094796954075 4.324784574906367
Fe 4.145144987141023 4.48625966611387 4.479021347895003
Fe 7.824511670068717 5.879577562218563 4.844472614470007
Fe 6.885423389252442 9.69760892188051 5.1499790198681525
Fe 2.7895278916051556 2.371891042801473 4.91137690866354
Fe 3.7711276017465245 6.442852881363684 5.793023730162401
Fe 2.439219108834712 9.697608921880512 5.07320854740749
Fe 1.7087989790939861 7.4963356456892845 5.146319940440566
Fe 5.966932051869788 7.567651314761158 6.125268696532343
Fe 4.708596954013647 0.5985969180483058 5.249185142809755
Fe 1.7783226424563616 4.930874843729985 5.1368333272992714
Fe 5.851230972563995 5.133046757493529 6.089414908752018
Fe 5.278681203773293 2.8060045579539405 5.6346172403088275
Fe 7.679120225500484 3.587270471036193 6.127079600802624
Fe 3.629373071648693 4.2223376901458085 6.7385109795169695
Fe 7.346867756071003 5.580889898256436 7.590424719042558
Fe 6.537283607139133 1.3656403900732426 6.87763105940742
Fe 3.523950444435222 8.409294324356576 6.778278071198194
Fe 4.760169848505845 6.062207933837817 7.962888183666407
Fe 1.6072701763103538 3.1430742458907712 6.886124503686955
Fe 2.104960823376597 5.887119665734614 7.397430074644076
Fe 3.868445425504605 1.919193904114234 7.403003140660373
Fe 5.773347744885336 3.6341689672641837 7.999273841313861
Fe 3.4157910988957347 3.9060438319093027 8.903384585155452
