47
Energy = -330.08389409 eV
Fe 10.295159280472145 7.62008649475844 4.290146174060433
Fe 9.456817987781157 5.578324860534064 3.3575471436476083
Fe 9.683570994264167 8.450186641492184 6.3602120826311745
Fe 8.355928557589687 7.837598425140245 2.7884812185588403
Fe 9.609430177650802 5.68999933425143 5.866409983207194
Fe 9.962594500653466 3.558153915903782 4.488079257969062
Fe 7.2399158449333285 9.42265058593952 6.483725045412032
Fe 8.673529478978864 9.575323115985231 4.512990812869294
Fe 7.647245092033059 5.514547772605213 2.0192723522946077
Fe 8.472035474253577 7.814061488015253 9.605840006265996
Fe 8.342935899896819 3.260746320248662 2.6846554060414625
Fe 9.305179950853018 5.411243949295087 8.300926875490802
Fe 8.033911137069289 7.273246477274986 7.40912921228662
Fe 8.846688675818466 3.5285941142591173 6.777898429896076
Fe 7.16026831422996 5.169096595456638 6.819986558234381
Fe 7.964158127235815 7.122070318255569 4.990983702903034
Fe 8.348714234047367 1.965983688208375 5.036147315772006
Fe 7.577390341144562 4.4592353732334855 4.550487300966393
Fe 5.899358969651524 7.582239505611335 6.0265518726329725
Fe 6.1006694856552715 6.610700436001488 3.470477854208257
Fe 7.25382719815764 5.881817802308876 9.303762346665675
Fe 6.456221231093391 8.944594716624497 4.039070119096648
Fe 5.806868742027684 4.263417331517129 2.827037261814182
Fe 4.946548122442729 9.973719344579088 5.504254357763176
Fe 6.253880831782015 8.362290391264427 8.758195803730676
Fe 6.481130648592527 2.1119592269433727 3.669867963642097
Fe 5.330727972633645 5.377206027370617 5.3127290765932775
Fe 5.299110948226912 6.3119728348606685 7.970241777321746
Fe 5.742768749506868 6.872213856512792 10.708460572965707
Fe 6.449598664031383 2.883300352056979 6.1797982127256
Fe 4.134453953648941 7.821718062455653 4.371051517707766
Fe 6.867147383181772 3.628108964458452 8.636324191636186
Fe 6.750747425920767 4.515423008483354 11.01013102414654
Fe 3.649001741966538 5.447557954528884 3.7276616801163356
Fe 4.272139511076304 8.7118084204951 7.334062823491966
Fe 4.656996216069199 3.234809487731237 4.639552116463503
Fe 3.477508468676372 6.572435306769471 6.353093399751024
Fe 4.65456286286606 4.124430131092735 7.257397326799534
Fe 3.803338688665727 7.33544660612345 9.432947947099398
Fe 2.564132929469945 9.043118786206827 5.636560854650706
Fe 4.830661434442771 4.797908082803088 9.731038203061416
Fe 1.7963348218472968 6.729490553289575 4.58295918102524
Fe 2.7103513888593627 4.432998551086336 5.723426125828379
Fe 2.0746563349497036 7.707686446049306 7.891400889366173
Fe 2.820296623406403 5.3968223276106535 8.294567920719656
Fe 0.5810826049870629 7.957196200810994 6.150356735025306
Fe 0.973183264162583 5.742359569331438 6.643438038833251
