45
Energy = -312.37575285 eV
Fe 8.119477398064605 3.0316163725106953 4.920581327590418
Fe 8.874944941549542 5.105738853286815 5.640430234668258
Fe 8.415115032019745 7.010933946258675 4.406097075335386
Fe 10.509179542093898 6.8567452127306465 5.738018929021982
Fe 7.6558319881888455 4.932925435249211 3.348143992914641
Fe 6.3178823411574845 3.026022992815128 3.1358909973890365
Fe 7.563689155149814 1.9825554315148646 7.11468605573714
Fe 9.280345982357108 6.065911697355787 7.889086777978797
Fe 7.55138313768638 4.2313504512513385 7.445942860726096
Fe 6.1982507858261675 1.7681918469496982 5.041381537702353
Fe 10.024895484403622 8.699834384897756 4.394836263929457
Fe 7.723503066565884 8.953108300725214 3.2395182521170467
Fe 7.124937930257057 6.490867542545716 6.469452784810884
Fe 6.202915836568542 4.528265864218952 5.31187869236785
Fe 6.014413417921852 6.724031681591447 4.0367338742621195
Fe 8.86244950552189 8.271630303654018 6.597827309743917
Fe 4.899487143369418 4.867642738752374 3.0617253773074657
Fe 8.014164534507083 4.396675438696123 9.700980177606064
Fe 9.175286348387962 6.331677037245321 10.172540648895113
Fe 6.54225356518244 2.7879688665978906 9.191173400431323
Fe 5.458433302016054 2.8198531793264 6.951308319613298
Fe 4.289666917482285 3.098329304000673 4.695181478440424
Fe 7.067035920758351 6.305181323753953 8.870250556515112
Fe 8.561069991190696 10.338764431831072 5.18924870731427
Fe 5.357704457535409 8.792226351666043 2.980679029149939
Fe 5.6854220940033535 4.782463470530609 10.134032455370965
Fe 3.6992266649726253 7.0676383136127745 3.6922804334538557
Fe 4.2489666146628515 2.9472832518760876 9.006553299318481
Fe 3.2294223453330444 3.855671268008734 7.0602451283339125
Fe 6.671038821598016 8.67414164483983 5.3993121479106945
Fe 5.320759880181832 5.071491470651915 7.590089961739205
Fe 3.8644938429544906 5.3608435491701165 5.304123730244766
Fe 8.430382030983045 8.24791593866486 8.909438692108509
Fe 4.863315001614391 7.2728303352861206 6.336420413415464
Fe 7.6958550373505155 10.187123566616268 7.344356120906164
Fe 6.228375756910908 10.64406718785369 4.3227121679765315
Fe 6.3300206250943445 8.429075536319475 7.918585345186274
Fe 6.92833902729465 12.044131919156808 6.170505685770006
Fe 4.1009226291152885 9.290222492118287 4.913745950550603
Fe 3.421282952201755 5.034078022246313 9.431104252061862
Fe 2.953532416437475 6.247640415093672 7.461736584955359
Fe 2.4914432063591985 7.669917311954497 5.616079921068022
Fe 5.310859775102604 10.201751622039648 6.711452354068874
Fe 4.731085156025819 7.023151963118792 9.004480436438818
Fe 3.5492331030735755 8.749934556490993 7.5993054123416295
