48
Energy = -339.48853215 eV
Fe 9.16459361518123 9.188727736449755 6.440977963193336
Fe 7.611957030398356 8.41680106783757 7.98568378718059
Fe 6.643100519544576 8.032852633657408 9.972156937740172
Fe 7.967632021093832 6.058497570628156 8.867225196564737
Fe 5.697743340188363 9.875209456231554 8.58641114157276
Fe 9.515495032771565 6.811922523775955 7.124272565052498
Fe 7.043322077087296 10.47397764842492 6.601213300372581
Fe 4.48932177096315 7.938504542664399 8.95329568284478
Fe 3.806355914747275 9.665687488892088 6.943306577978468
Fe 5.725057637765001 5.878810173409357 10.227595176056258
Fe 5.25112336627276 11.61692692657164 6.862759749224846
Fe 9.710958297119367 4.333345754566502 7.253067634266832
Fe 7.563568691596724 7.145340354052347 5.811527503114967
Fe 9.901790826122436 7.772571052091812 4.788758300158532
Fe 5.342670192725191 10.106707071551968 4.799593711875558
Fe 8.341761955750417 3.784031142365718 9.145727321164337
Fe 5.913489695541455 6.471147061701946 7.835805621782185
Fe 9.312834160889969 5.495848877146144 4.985097399394809
Fe 7.55045488094635 4.859464765285878 6.7266416018610204
Fe 3.974393096670177 5.36587386542803 8.619060330443315
Fe 5.664881723667547 8.494728840574396 6.452157952792411
Fe 7.763243462739339 9.2215326972777 4.519009432363837
Fe 6.048814863474009 3.993096574243136 8.797549780534773
Fe 3.3225828796571473 7.296793375734274 6.967265008042668
Fe 7.746194011618635 2.5891456743651657 7.224887068836488
Fe 8.234693309086566 6.997216852484697 3.283510329748319
Fe 5.225196844841624 4.188684331938966 6.660957316577484
Fe 4.925030013603641 6.287726788116561 5.615059557778925
Fe 6.022106440578529 7.804615899450159 3.908282305002473
Fe 6.718773761185802 5.22229095165775 4.411408441040481
Fe 8.473090436766297 3.308115408437556 4.869508633583029
Fe 3.784237619404053 8.360055309872063 4.716745491307149
Fe 3.5195410294868013 3.0591683420299134 8.13329099304726
Fe 2.9239279467568813 4.73160097482752 6.537760658200782
Fe 8.613417218462041 4.659016066173564 2.8342277943074703
Fe 5.446073514379559 1.9119224135059698 7.525116820818391
Fe 6.170553075640714 2.6630279468033695 5.2547851799514325
Fe 2.4893420423437806 6.210869872183024 4.746209191003949
Fe 6.408607739217927 5.695108506258272 2.1325680449120075
Fe 4.302339387613689 4.226301326933942 4.292492099359391
Fe 4.337693959227866 6.350140617108237 3.130239618013777
Fe 3.642151401235397 2.389489416301083 5.6763065551618475
Fe 6.578779328010905 3.2946408136594516 2.9503889427473515
Fe 1.7726369838879603 3.7742073646150622 4.756276001187512
Fe 4.82538178576357 1.737288357824807 3.5420340837055266
Fe 4.477395052904786 3.8968248941618864 1.9491003137775116
Fe 2.4255985737122105 4.954091928016145 2.6940426191765425
Fe 2.7738192782504156 2.5537785496058563 3.0523700720706244
