41
Energy = -288.3274727 eV
Fe 3.7196889741516657 3.5726994125591798 8.130705484677852
Fe 5.2412237835049895 5.281309290256948 0.8535923871964017
Fe 2.6529798654480787 6.104172500350206 0.5947201952861373
Fe 5.417367942856127 2.8117768348680654 1.5607309401522245
Fe 3.3530483826953215 1.6886773654139278 1.351103544139465
Fe 1.3460658443654439 3.2451475395058482 1.1980117313423202
Fe 7.500617598569673 1.6041504114369753 2.564498440314056
Fe 7.495731174415848 4.079328933286428 2.5534399229912355
Fe 1.3470672011626308 1.2798718441549846 2.7128432876770985
Fe 3.1344573777566453 4.300611349693524 1.9139561875341737
Fe 2.316571720313624 8.13215566961152 2.510348627928632
Fe 5.234893816555584 4.635133744996436 3.1353785406382237
Fe 3.962241950236301 6.6241994394309796 2.479917683327952
Fe 5.278760700197898 0.7501903929091992 3.1377623700122914
Fe 6.5207108598755505 6.659988782515622 2.9625779695220475
Fe 1.3861754065601284 5.930859025968561 2.842516312257048
Fe 6.070202849714673 2.673955202422334 4.0592925808776315
Fe 8.383364823981086 2.7443834911220746 4.6111314992594945
Fe 1.1976671248417257 3.5361280406404267 3.7080243733405145
Fe 3.016289542252488 0.12266387779554651 3.437974021649383
Fe 4.662703508119015 8.404682318275592 3.875304024722268
Fe 3.5892842819157607 2.603951233094432 3.598568380930326
Fe 6.826074168081487 0.7701183429885848 5.107555602613387
Fe 3.0570556803219424 5.050673366642039 4.223689126987372
Fe 2.6608396289573877 7.361078107068614 4.769543560464014
Fe 1.784063403446358 1.431562134886455 5.101554413140872
Fe 7.134777349071589 4.850689280088552 4.8719118110295145
Fe 4.96721793261825 6.333909582849217 4.8117106609954154
Fe 6.955725694491402 7.264058025195883 5.387999862426895
Fe 1.0732839117096225 5.363541730058794 5.583347182646597
Fe 4.87535049422727 4.008071707077212 5.557567126839656
Fe 0.33164738502829805 3.089907593930804 6.149179161481685
Fe 2.6288731639530316 3.4041512281286255 5.821478467020692
Fe 4.394446642429966 1.4861179857625837 5.691574949146649
Fe 4.674999024719684 7.76821991267742 6.565982682513501
Fe 3.3528048974692783 5.681801834254965 6.690853599030688
Fe 6.654008633529211 2.763450592981688 6.485337323275629
Fe 5.90090079331389 5.61218574199027 7.026638474269352
Fe 2.398630756991236 1.76509691364544 7.445044121147554
Fe 1.7162069484727915 4.205789545265602 7.846121643719698
Fe 4.171498080885295 3.389058993407044 7.738049485164286
