43
Energy = -293.47009891 eV
Fe 9.092132076615334 7.4866673778097725 4.005680093893848
Fe 10.694608243205183 6.308847943855102 3.0036577879438684
Fe 9.443414430409193 5.484374231357699 5.268523505616989
Fe 10.097659969471778 6.363358661091487 7.4136820591512524
Fe 8.5734052441634 10.004282465777578 6.999276810160161
Fe 6.94998281836627 8.593836676618794 8.35151482917138
Fe 7.374911374907598 5.965823573757287 7.850591461150255
Fe 7.402338736490374 5.8473784890710485 3.39835104816265
Fe 7.639387791024236 8.506461134036046 2.515555930493564
Fe 8.265913492818573 7.691726472094439 6.424970703262262
Fe 8.80909361685806 7.574594576764264 9.049815592173493
Fe 9.241937612274539 4.433274328289595 3.179316579387954
Fe 8.815425975075884 6.510978353394027 1.6446151546171823
Fe 10.415840086600618 8.194607607752163 5.893196628786714
Fe 6.549234301964907 10.93892968307922 7.82536248201055
Fe 8.221362236212483 9.55923846044729 4.771925749851653
Fe 8.763708877747028 4.137254514524403 7.431912514072566
Fe 9.821807330794659 3.164796820550163 5.480411309225023
Fe 7.545513526261651 3.6190480857873193 4.924001839715357
Fe 4.433009263817168 7.367447427279985 5.6076707959146574
Fe 3.3238511308517302 5.419897870026787 4.730818125766597
Fe 3.215818772859474 5.549662048124509 9.23359785632786
Fe 3.291048149409905 7.968700109584934 9.619617481133325
Fe 3.430171541900577 8.894993611689788 7.037783768493332
Fe 5.510222590615366 8.706615698532541 10.373446000290912
Fe 5.4155254233155 4.998420556450127 8.90485537192795
Fe 6.051025337173727 5.537835285721713 5.407509423604259
Fe 6.510706640087289 7.797355593504757 4.399988537847137
Fe 4.946993220180917 7.232490718869625 8.047769657323789
Fe 5.252589363993421 6.421342825403514 10.677888781811125
Fe 4.13774566213325 5.2646430081207045 6.897303790618505
Fe 4.906081045463298 6.478410640194671 3.312433853088736
Fe 5.99222320194122 9.2751757280874 6.255453989164817
Fe 6.490656676687434 3.821451052692267 7.114408241032492
Fe 5.6057223115830155 1.7817728664897263 6.764829288387722
Fe 4.2676954336700605 3.1677860055696114 8.04317027327355
Fe 4.74786186303811 3.421962509063487 5.39009205480338
Fe 7.392395366065935 4.0776485052841 9.47165121063483
Fe 4.708111171190711 9.743626056504676 8.47297627173207
Fe 6.103268561081953 10.059581205934798 4.0485343796312305
Fe 5.637742212356391 4.307362855667569 3.2438829974982215
Fe 2.740537398340801 6.50470001888286 11.335951194516687
Fe 4.217110850622817 7.861429275904712 12.221795505971023
