45
Energy = -317.67593114 eV
Fe 4.258621743762978 1.4096226207078073 6.772441690783471
Fe 1.1424715333790478 1.9824745035665026 3.5791312302361526
Fe 5.8387842533372805 5.096719692727489 5.52080151511051
Fe 3.7840446022949488 3.7866168765771624 6.163166416429967
Fe 2.690810370531428 5.839078847565199 3.1223969878054922
Fe 2.9071959561332408 3.853481003507297 0.08870031452281547
Fe 3.032515682767178 3.2062236034048537 2.30367450103917
Fe 4.438440966332198 5.419368507844919 1.4900061070723063
Fe 1.3851122254332109 6.8013362541702325 5.19272342449452
Fe 8.834923025555904 3.919043541752591 3.3858240502774395
Fe 4.294083460589428 4.2471297347518675 3.837078150250752
Fe 3.3179392979109124 2.1017467403796135 4.4796567216488645
Fe 6.850267426519135 1.3206094310315646 6.3942217094288285
Fe 7.51242147944974 1.7907803816754537 3.9020682071796218
Fe 3.9020383039327635 1.465038066281424 0.6650768039375251
Fe 0.8894777070213249 4.003673370385731 2.0398855472003423
Fe 5.286885451870911 6.532474800063064 3.438107704785092
Fe 5.3377724348405104 7.733547173002502 8.307902402588706
Fe 4.442196077402752 5.582984097124535 7.701182931438263
Fe 3.2170811990531263 7.603735096107889 6.916363107927156
Fe 1.4118393821315363 7.813830901675533 2.8064246074537618
Fe 6.531481562632327 4.126111887610911 3.2639175501262585
Fe 1.9169730737922237 2.371137305959106 6.4482089674063054
Fe 1.580007305918755 1.8763386945006888 1.0268852488652684
Fe 3.4093631889658145 8.099116401970216 4.281208321120715
Fe 5.336918738637203 3.3924737358238093 0.8387474222337243
Fe 5.630272312140727 2.6845174824916413 5.072719540881356
Fe 1.7278674673998 4.182523837995991 4.58745650224293
Fe 3.7270794057315455 7.689675456848869 1.8818939049172803
Fe 7.802088720876097 3.6892133431537326 5.57514443516018
Fe 3.573253113283563 3.2694972115952017 8.380769921684907
Fe 7.484073589695501 2.694067601834107 1.6575384370714255
Fe 2.457207791986888 0.17370356059499062 5.258657307479323
Fe 5.450884895697722 7.484593593744552 5.867221889294106
Fe 0.2091797605012308 5.8281657949974965 3.3885066906830237
Fe 3.5789999193528605 5.9884202083268026 5.325968800241389
Fe 5.922134406194186 3.425071228581286 7.463681774312424
Fe 6.907458776368085 5.391253083501889 1.4481846459672563
Fe 5.074954436614829 0.37341494608620274 4.680373190006173
Fe 5.238272642226982 1.9091263075292997 2.7215837927808972
Fe 7.63499682782762 5.962716437377218 4.258835496080665
Fe 3.080192665955107 0.5959781924028241 2.704787946915297
Fe 1.8737886207829346 6.012927649782948 1.0120331980284458
Fe 6.7870875171068 5.8475322650860555 7.426879967314349
Fe 1.9868468752828334 5.119214723119969 7.018267112794947
