42
Energy = -295.53998359 eV
Fe 6.007779613133537 6.596438833152693 1.0259676967040248
Fe 4.8284282336481725 1.8759754607762444 1.31986324505144
Fe 1.261923021289245 5.11929143894443 1.7599489176193137
Fe 5.546641869264493 4.296042654264533 1.7529286273815519
Fe 3.656994520430864 6.111269572848615 1.978982810454507
Fe 3.124704478622484 3.54168489903433 2.105457452504621
Fe 7.849385206442017 5.227825449739694 2.1960358265429787
Fe 7.153432432693008 2.4523614444765482 2.415832861886238
Fe 4.660622880722395 8.211301560409403 2.6359363678291583
Fe 3.0364208732596305 1.1570868066845084 3.0144985076985393
Fe 7.6981915879618334 7.620093119669978 2.8561241389554537
Fe 1.7759804314607557 7.419535126559199 3.191042859088063
Fe 0.8971491166754704 3.0786492928495197 3.212402420688831
Fe 5.510018151855571 0.3464751231919875 3.3343572081417214
Fe 5.8687733784758125 6.3814577387398055 3.305844814438157
Fe 5.026197136259948 2.534693981113423 3.5372450593869558
Fe 2.1416406154408034 5.2251969640930565 3.858813746799473
Fe 8.8089422113996 5.317883580567996 3.961036301323833
Fe 4.382699137071511 4.743734093245429 3.940443812077754
Fe 8.8089422113996 3.6338282371251207 3.8798265022733918
Fe 6.644602691714342 4.2058966170693 4.0896166002542635
Fe 2.9099863630127527 3.0283736405849786 4.578208302112259
Fe 5.720485299051389 5.7638559720110765 5.806774609282068
Fe 6.936478491380019 1.820441649245777 4.92081015958795
Fe 3.736101522963853 7.057819212040088 4.4910173550636365
Fe 0.9211654909363253 3.9044331813915383 5.697045550164823
Fe 4.3331241650482815 1.0989386071630585 5.425368996030199
Fe 3.275606574976696 5.063264241500792 6.126386051596795
Fe 6.054680552657202 7.978024221410051 5.059883353557951
Fe 7.70431138462112 3.9111140861655804 6.174138045906994
Fe 1.484810751065451 1.307609372564182 4.90304563166643
Fe 7.961626544748068 6.141534656730057 4.726731648356692
Fe 1.5300298902161138 6.51674459052193 5.762492830731059
Fe 3.9446079738503457 7.4997862669552 6.761325234102176
Fe 5.055996965918548 3.342249310666253 5.947770440482024
Fe 6.428813912781941 4.671796378750685 7.960979634508991
Fe 6.245816180450911 7.129273677930217 7.54456524316848
Fe 1.8965143100363409 4.6069280273824535 7.8765816115341245
Fe 6.424856172697348 2.1407874600166323 7.265701515826723
Fe 4.303981766538282 5.716084790287863 8.172247764722938
Fe 2.6536126797001485 2.5462679622367217 6.842506409740834
Fe 4.346570262414564 3.319585815814285 8.245848950683337
