46
Energy = -324.0383112 eV
Fe 9.218009055980305 3.254323001713457 8.143045828342931
Fe 7.011258787233504 2.352909827332931 9.157982071646106
Fe 8.090027528692074 1.23218920613144 7.296951761343578
Fe 9.170449251249078 2.97055245699214 5.811631564903669
Fe 7.512578913372411 4.894946157197418 8.953095077387166
Fe 5.575103639272848 1.5615290242573128 7.285541916124763
Fe 8.764738528588602 5.280715912233028 6.654200344905389
Fe 5.246663933873315 3.8556503195271374 8.535776970312412
Fe 7.1518438480741136 3.4761022232781276 7.079496408791723
Fe 6.980185035963101 1.7906176073984565 5.242624667861815
Fe 7.35799408374785 4.1808302202782 4.875218159012048
Fe 7.2463647080935045 6.603269172321296 5.202459417051433
Fe 9.330499834526245 5.431442280603469 4.496077358748101
Fe 7.869856582245602 7.109435643131338 7.863992603534298
Fe 3.40891844957763 2.8192481908861495 7.431037235106016
Fe 4.509288055840017 1.5454283064119174 4.855898979056202
Fe 5.58061524573391 6.358468366428658 9.080317421269553
Fe 5.816502078773959 3.024099180547315 3.4148163659563826
Fe 3.3301355493703304 5.238752219599849 8.372760114043048
Fe 7.349344447370525 5.395505765193653 2.881740195961771
Fe 5.085555292923407 3.498973612236015 5.787712636652295
Fe 9.216762797613457 7.678303950387914 5.827192692551687
Fe 6.011080725699543 8.18678998784058 7.374722240377046
Fe 5.9336268929164895 5.593695807935911 6.898790672603455
Fe 3.56397278089679 5.374046863573221 5.9653054356859245
Fe 1.506362500518574 4.316591101774813 7.049424434458804
Fe 8.2997626451681 9.48999278895513 7.010021920837833
Fe 5.410704806357091 5.376596998219187 4.171949344379613
Fe 3.884215175754825 7.332926755130665 7.471757944638373
Fe 4.972590216495858 7.335447846860534 5.368269943581038
Fe 3.6044619017034574 4.012810311422407 3.609237394023845
Fe 2.504739076191684 2.9946178244795902 5.271283153405585
Fe 1.5850085938058873 6.5961076871089155 6.995224715418552
Fe 9.05879130157456 9.682135597221974 4.441208202233424
Fe 8.35352470208924 7.652143809023032 3.4341289522595857
Fe 6.758603646559987 8.945377850205452 5.201008023656985
Fe 2.563952705256036 7.776253205096051 5.268913985254333
Fe 1.6427025233383115 5.355374629684226 4.732260183516915
Fe 6.200296820295057 10.546284752128122 7.053253180434451
Fe 3.497753112243934 6.571290362332207 3.49000725048046
Fe 7.682972484991071 11.24587033452213 5.331315125145904
Fe 6.0314250445346405 7.574393343513943 3.1231548666441427
Fe 4.26200894798493 9.485244576962069 6.150516495429276
Fe 7.00185228510395 9.937144029345472 3.1123598874807814
Fe 4.441823081070377 9.105528383976116 3.804039155510846
Fe 5.470897724167171 11.059391880306476 4.615427088094363
