46
Energy = -322.36130078 eV
Fe 8.280229505993836 7.031741583576484 8.371872194035118
Fe 10.418892370681384 8.335578548250561 8.473994379706038
Fe 11.189107848650918 4.479685229914081 6.415428742908956
Fe 9.132842289616057 3.6391033625594718 7.665834589616419
Fe 10.417209114479874 5.730969900380824 8.473916986263378
Fe 9.085943457186369 5.780463067353445 6.327537335410631
Fe 11.268468943944058 7.034021194685567 6.428439787289118
Fe 9.180574754115373 3.659282879895461 5.14931709866452
Fe 10.519712770761107 5.764261327716567 4.37548886190768
Fe 11.186500220159107 9.587055267074236 6.416452186455249
Fe 9.13434287826168 10.427089741398639 7.662933441546551
Fe 9.09138542777811 8.292749708781782 6.321973118468818
Fe 10.5180822500248 8.302447843828586 4.37774661598393
Fe 7.032088583063278 11.17765833562146 6.335934813567268
Fe 7.033778529710636 9.12961961117269 4.911641573156232
Fe 5.693871897313496 7.033618309999243 4.161075336160239
Fe 4.887312371628225 3.6655403413606775 5.152723956401013
Fe 7.027969389680102 7.034129522280716 6.202207450927199
Fe 7.0340679967371855 4.9399657569596425 4.908786364805696
Fe 8.374077076319564 7.033261448199258 4.165534364612873
Fe 7.0340431335168665 2.8903783677091823 6.33935674596494
Fe 9.178454194745944 10.404542386764525 5.1497729569428055
Fe 7.033203194555018 2.914071422661662 8.876345116118932
Fe 4.970799246625853 5.772020450832391 6.3235158600175865
Fe 7.033941301407069 4.988878810848326 7.558456664983398
Fe 4.933192450777829 3.6413196422690173 7.666593792539193
Fe 3.5488938513677675 5.766718533033701 4.381840080947386
Fe 3.646984264971376 5.732454976501725 8.476693502906159
Fe 2.8839965590885046 4.485280909438284 6.415948953096339
Fe 3.5498088992668873 8.300701182169652 4.381147136468172
Fe 7.033854911261132 7.032184073148143 10.538642452556688
Fe 4.93296509782251 10.425169076960795 7.663185632869758
Fe 5.752597202342397 9.129687583387364 9.732166623731445
Fe 9.549576328445902 7.032188451584633 10.47389828809412
Fe 8.31218146298869 9.127977829339866 9.732787684064785
Fe 4.516499440681251 7.031834430478323 10.470160648068877
Fe 8.310933973386476 4.936593086208807 9.731375486405996
Fe 5.785343894357401 7.032455069821154 8.37338294689077
Fe 4.889175014779523 10.403593524965935 5.153501189747532
Fe 4.971333212850659 8.29724588196702 6.322430194823133
Fe 5.754724898091121 4.936083009259146 9.731747886844877
Fe 2.886202036543547 9.581302790465893 6.416525779588712
Fe 2.809037831155062 7.032505046322501 6.430738126305055
Fe 3.648433077992315 8.335086543723529 8.475014065544109
Fe 7.033192902320716 11.154207438723756 8.870940329864531
Fe 7.032825136133541 9.075928118530145 7.553644168716119
