46
Energy = -320.32111893 eV
Fe 10.342229630809044 7.333978944336612 5.658468272480637
Fe 9.471536095429732 8.882771648822661 3.7563017593621004
Fe 8.884225588606164 5.584398023527044 5.973196920304322
Fe 9.20012027637546 6.466815300698912 3.4294822617686678
Fe 10.352139354599702 4.71769821707742 4.553687336717519
Fe 8.913765629050255 3.380277349983884 6.441052939586251
Fe 9.09047175966502 9.57829276317331 6.034658567992589
Fe 9.740276992850005 6.0926311951654 8.199162862273852
Fe 10.43182771305856 8.474552643733396 7.764699082795581
Fe 7.292180304135979 8.346129779082524 2.7429727761706952
Fe 7.5190580013899115 5.0286954467221525 7.796684539450114
Fe 7.916564538844536 7.6561683561280045 5.055531963990361
Fe 6.573031811676469 5.703020212217207 5.641195974781099
Fe 6.7437620821264685 6.165784433490951 3.3272581527837364
Fe 8.072940671124295 4.217349532082167 4.035849493575719
Fe 8.370611411261736 9.962850623450466 8.258814454287862
Fe 9.076548118361911 8.181370116874648 9.674479401073915
Fe 6.6077371359805435 9.217864600200999 6.687532915765306
Fe 7.123225429505921 9.946531816059963 4.3926396001951655
Fe 7.142099696872125 2.839883760334165 8.270924855500537
Fe 8.183987719552583 7.553490823244351 7.427137384253697
Fe 7.4940202141952215 6.466921213097737 9.719173545859634
Fe 5.616535141334493 7.796212618827716 4.967468743712457
Fe 4.839168962023465 10.141061356062751 5.294948894186194
Fe 5.843594057757972 6.837741397214475 7.6537609250959475
Fe 5.628448464632775 4.855552150794266 9.56805473132079
Fe 6.694435446975029 3.3532424006637838 5.788762306765153
Fe 5.502078441519318 1.6893999188079452 6.9735196867152665
Fe 4.842252115783177 8.876104985141417 3.05437335705739
Fe 6.603300248710274 8.6768292134552 9.128735892777053
Fe 4.268971102541119 6.489868488880479 3.2259263518698007
Fe 5.106360570656798 7.0618186956726126 10.061955696353678
Fe 5.084396099159585 4.266213780906682 7.367667865219058
Fe 5.014516992198651 2.4355103812801304 9.2091980301432
Fe 4.155582167933433 6.06013108426585 5.765329177661546
Fe 4.221531606671141 8.445773351399962 7.084125901990493
Fe 3.4040248855645636 8.42639239141236 4.767699175158302
Fe 5.293004355157129 4.441737833911428 3.9028843662071613
Fe 3.3424761809220738 4.1748164395515275 9.233996677527818
Fe 4.153543534769506 3.134998611089597 5.483643367332141
Fe 3.6499901735794094 6.305392621550057 8.275596381998001
Fe 2.039595987263222 6.935768832555936 3.9105369775524026
Fe 2.7080118611572175 4.801211180578802 4.430094944362878
Fe 3.262700040228693 2.3693465509576592 7.593782028635731
Fe 2.557162313483125 4.555573032382671 6.888331521182873
Fe 2.0964417412534657 6.912759624101348 6.324480125763135
