43
Energy = -299.76498652 eV
Fe 8.523499786748623 7.716959584154364 9.933905683126397
Fe 8.398469563975873 5.8877400109617035 8.364405287147846
Fe 7.040274981566619 9.548736478173817 9.231673743332264
Fe 8.47784229866329 8.26339959165803 7.70306383981891
Fe 6.3106304463623175 7.304844261324533 9.20484624928948
Fe 9.193801683089516 6.369422062305195 5.97037379233483
Fe 9.80750816527764 4.202092723166911 7.114018240264407
Fe 8.934711901182592 4.3371462676329005 4.540652661503176
Fe 6.096404961415955 5.065536251858504 8.281225073698788
Fe 7.851451783019626 3.393792147133486 8.439808650989036
Fe 10.40265554437539 2.784408058863922 5.388650856772439
Fe 4.539538596922848 6.925264482043651 7.517531584181394
Fe 4.577148377271584 9.231149733853208 8.723596458463112
Fe 8.300455455832044 2.3571150461609562 6.234193305692879
Fe 6.176619935367439 9.01294275751647 7.038197185858164
Fe 5.255965370663422 3.0388690394682727 9.145895891696837
Fe 7.496753130676225 4.667114077018979 6.381336828058111
Fe 7.880012412770159 8.298656900368576 5.184550449175673
Fe 3.6398414829535928 7.409412463770959 9.805127962130886
Fe 9.142136959446278 6.745168959068933 3.586156274238102
Fe 6.806222243951209 6.814106676197083 6.662142830682707
Fe 7.044556203310385 5.938630534799801 4.3674680764050064
Fe 5.886318053708414 2.977641000951379 6.925882770281168
Fe 5.250260707211747 7.690666136543423 4.93650794677639
Fe 5.033225427168411 5.282247241490566 5.646615119015251
Fe 3.8061410798225825 4.200291903133814 7.410058793963748
Fe 7.320954380387059 4.172776967041532 2.6004186177983044
Fe 3.8527740755293807 9.200801160019015 6.377948336403925
Fe 7.062472871926188 8.071148897398293 2.9204520230616313
Fe 6.5852271879585 3.3128647045952904 4.655678433445016
Fe 4.087807762694382 5.215467931217822 9.564562710049806
Fe 7.937677046037207 6.232896531454899 1.6131523857558379
Fe 4.743591573848293 4.162903224756392 3.474414965272104
Fe 2.3769120874820877 8.271398400150689 8.014511637519925
Fe 3.0539721567890914 8.58143355979722 4.191867768838385
Fe 4.175609161734377 2.796980398269637 5.345400701240512
Fe 2.2426994312555686 5.8959234277170625 8.091285525755934
Fe 2.7133335935855527 4.665684413410471 5.288445173800244
Fe 2.8021838449998806 6.972644892066048 5.933621886332254
Fe 4.6357788880469695 8.171038972026798 2.461749879528684
Fe 5.701386175375579 6.042533316929894 2.54383000601948
Fe 6.119165991494824 7.464011524830291 0.7730101599075334
Fe 3.5372584137526144 6.303645292368189 3.647526386382384
