51
Energy = -356.04054704 eV
Fe 7.411845751434812 6.830949651488842 9.19671717066091
Fe 4.442443997435459 6.7445307194225865 5.449714569107996
Fe 9.157962192598095 11.79201302394793 7.048500498433921
Fe 8.737947935105504 8.122704478999031 3.497865937865347
Fe 11.510760212603538 8.36664006697008 6.839885918008253
Fe 5.100731959156245 7.36264928505216 9.106504384901537
Fe 3.8454585277273554 6.160466081181945 7.636844271065308
Fe 9.116853380352227 6.8541013385625975 7.512354023165129
Fe 6.963179520270393 9.462345612638492 8.615970576001747
Fe 9.860348713479926 6.539995486724767 10.821839428247277
Fe 6.932805113119879 11.909402528094386 7.966869969920306
Fe 9.352250398595391 9.349299772257007 7.322056098138801
Fe 5.009430659808586 4.484741774581694 6.41141051380156
Fe 6.792710104954155 5.989365292717179 6.645292598410986
Fe 10.893400312953457 10.202392294237212 8.824836937789268
Fe 5.641749947263379 4.96118528624594 8.942594346914017
Fe 9.629485547511521 4.701444420009217 6.43757356025118
Fe 4.568728346688375 9.642258725736006 9.129345697704112
Fe 4.963264245115437 9.274986381136353 5.0945633693618895
Fe 6.982124023936558 9.800148029827152 3.962311212501698
Fe 10.420990380588483 6.7984798871735155 5.253068341592817
Fe 7.134981600368326 12.133637440169727 5.454552796319731
Fe 6.185682528436975 2.8871229541666286 7.6576928207566874
Fe 9.032306458377036 10.575604908380816 4.9670055847847365
Fe 8.119914410560831 9.99051311808227 11.28914528640072
Fe 5.034062052742868 10.671070893355061 7.116865124834484
Fe 7.864891845922714 4.52214916613193 8.120880906659146
Fe 7.153783385082727 10.15671322851231 6.33595810296138
Fe 10.653135379429772 9.038056212041758 4.660657153586291
Fe 3.5963403214229572 8.564403163406274 7.118841154125207
Fe 11.192813585066732 10.715396783621438 6.440291623460202
Fe 9.904547658073918 5.121269097097182 8.994485776799714
Fe 6.312767889796935 11.15898500739396 10.214674647930346
Fe 6.218278617938582 8.685557828819768 10.786452387536054
Fe 5.87558128271742 8.139194754618561 6.9882412827451725
Fe 8.312769397253149 5.889995942250881 4.725788926307834
Fe 5.806029640318894 6.2431279500429975 11.155380189299857
Fe 5.533504512267005 2.684407778264537 5.202479027187429
Fe 8.103680098655651 8.145042408986573 5.692098186149482
Fe 7.985441965031835 7.4926857858934 11.697206983301383
Fe 7.463410951026741 3.7383078265537257 5.762887867021044
Fe 8.919915316470247 8.606509722208122 9.568755157291177
Fe 6.408734968147761 7.38919485065189 4.341140556558342
Fe 7.83518878731423 5.051066060554181 10.703533850360794
Fe 7.2741460414883585 2.9489490547454147 9.739832140421933
Fe 8.740963101221599 11.165803406659418 9.314697639105425
Fe 10.416229571572524 8.994914696550637 11.168949769951261
Fe 11.50349243230249 5.995398756628879 7.3106601381833185
Fe 10.9874515898061 7.657103327869274 9.017895323981202
Fe 5.648762017919529 3.861192474587771 10.990797447969246
Fe 5.9967336658570245 4.976537608039564 4.296052210805007
