54
Energy = -381.70033455 eV
Fe 8.469696476212158 4.620052957065679 7.924465232330614
Fe 9.304128276024494 6.573741404005822 6.607476867437308
Fe 7.37155773120549 4.325586702443923 10.01362068774762
Fe 10.529342539255772 6.265090245637396 4.13395268254539
Fe 8.458015932641473 6.468606738792386 9.536272407377684
Fe 9.258194118940096 4.4740417687860505 5.382403056352131
Fe 9.884962553837504 8.40894190923388 5.23882547432765
Fe 8.627830734119563 8.86974600934194 7.517196631662308
Fe 6.637175244293942 2.5636119135208464 8.502266887995802
Fe 8.424462171886894 2.3780855829365537 4.292801123433431
Fe 7.3052791895952724 3.173428821238745 6.293956743577197
Fe 9.249905443854598 4.262181329043316 2.9453904714948225
Fe 5.860728897398698 6.157434557061618 9.937193674824785
Fe 8.253141000506774 6.421833399459178 3.952375172868708
Fe 6.516057031213386 8.598082762627918 9.567709015269577
Fe 4.866040076676909 4.19961356137839 9.995783167503502
Fe 8.841540941828615 8.609118228491301 3.1324800665942143
Fe 7.099687470476056 5.606118496057211 5.933620790725787
Fe 6.207491495755243 9.347585721568207 7.309179610302081
Fe 6.093267454374637 4.789161523929599 7.897169205022086
Fe 9.389568170285223 6.516574760924148 1.9025508857990443
Fe 8.015393485791774 10.196232017480895 5.4458859237772295
Fe 7.152104166234949 7.046744090838249 7.822986691748281
Fe 7.492345696027245 8.031399555200469 5.5055990244721595
Fe 6.983042055403569 4.209617059324149 4.122209161853615
Fe 5.785111498738161 2.2581460154721174 4.501128482443454
Fe 6.962285815316991 2.719240149230945 2.330559953878008
Fe 4.967445573258975 4.059482643315976 2.9635697025549526
Fe 7.215035083433894 5.091034866957281 1.9327033214505795
Fe 4.33664371405338 8.002919166022815 10.4146817925368
Fe 4.214759746946483 2.3861733134519256 8.565858939046898
Fe 4.764456308809881 7.273237318416764 8.13114834386083
Fe 4.916905338936331 2.9707991326439234 6.498653896915173
Fe 5.335081645269756 7.380288588790205 5.871616774982148
Fe 4.278371970960645 9.665239515299561 8.799468944594532
Fe 3.7587925030560205 4.996682287935705 7.805510491351624
Fe 2.3685276607284784 3.707191367932927 9.254901985685143
Fe 7.064223436820745 7.379269654794936 1.5804154448919883
Fe 5.830893992254512 6.34577860178893 3.673673190656608
Fe 4.7800616970024 4.995884024420115 5.542361162299545
Fe 5.49615711934654 9.963686454459364 5.171917761744438
Fe 3.1660945177638506 5.98177294396837 9.82032940153576
Fe 6.414280591901624 8.620935549412923 3.4864270959487116
Fe 2.599420674039483 3.2358168209977523 6.820270089401764
Fe 3.416177711561569 3.1884082924531563 4.55405517083558
Fe 2.5254035016814664 7.759253440075444 8.355420550354403
Fe 4.985681443156185 5.690608888010932 1.309431456946617
Fe 3.700232950245544 9.086056707825792 6.622179260017734
Fe 3.1224585790700283 6.656258715081972 6.138210662291565
Fe 3.9273051606123923 8.210757750203353 4.227388564758597
Fe 1.5398278562457288 5.485646036775903 7.807335797732399
Fe 4.555012871074772 7.811182045003932 2.043715777200018
Fe 3.50102034632654 5.84318620329686 3.5632600845448903
Fe 1.9817211686899454 4.9140617625584735 5.237788549293823
