5
Energy = -28.86158616 eV
Fe 5.943405959802152 4.918708907409111 6.599799458276996
Fe 6.288447283331558 6.437298278405863 4.7979396465375315
Fe 6.366274515147821 7.16633527510864 7.245760581672005
Fe 8.026376566283684 5.909980632908765 6.24487309893142
Fe 4.431913463672852 6.624094694405421 6.168045002819844
