5
Energy = -28.39527092 eV
Fe 6.214390705241323 5.964102283983871 7.819718535182826
Fe 6.563941636855223 4.954399760184799 5.726807805264456
Fe 4.483672829159002 5.601531461119383 6.5715037296066185
Fe 5.911741733601526 7.380446789250551 5.983565453262468
Fe 7.305007487086357 6.6105276687857994 4.40335782060788
