54
Energy = -383.84977859 eV
Fe 3.445479349399457 4.157101775853794 9.602917128863352
Fe 4.436260147078187 4.063444910452438 7.389827760836463
Fe 5.774024515055379 2.9978617382598864 9.1855372852269
Fe 2.0395947484944332 4.375332690684558 7.068372642382583
Fe 3.694141808766344 5.582104313460315 5.541882891940525
Fe 5.263340480216132 4.480185359503245 11.184768062018842
Fe 5.738805370378362 4.259005361307165 5.333817955892588
Fe 3.7788016773676807 6.386858736406361 10.5115272113731
Fe 6.388028700298285 3.8512801190490746 2.5948300466647822
Fe 5.403398490984361 5.466335817258701 8.960242484885622
Fe 1.5601747215793675 6.430006758964654 5.782620914796235
Fe 6.996872023291505 4.237708307179815 7.495495723477987
Fe 7.31612953961197 9.035950353604308 8.637593884763689
Fe 7.422032892821748 4.5643300983643815 10.056067624519388
Fe 8.372042575579759 5.909336193892729 6.46163561881273
Fe 4.885714840333132 7.830529750277377 8.806197380669918
Fe 2.810102425095424 5.953651288167902 3.373759910441322
Fe 7.968589492519276 5.833859882030266 2.654463975615169
Fe 6.28866671879672 6.746735496677445 10.724404247544333
Fe 10.81225978341938 5.826398130917968 6.795125511001164
Fe 5.325001483890434 5.668635786316047 3.3987915327547853
Fe 1.7757017631158092 4.206316945088362 4.677107874067721
Fe 9.276349150393592 4.98680068668889 8.572407820069788
Fe 2.6976956147274587 8.232663886858665 4.158941990696047
Fe 3.4924759177879756 2.794586107848599 5.645935734600785
Fe 5.5693903033161725 8.885836869195513 6.778110055331674
Fe 3.2642924610654194 6.184303664666592 8.040864707564051
Fe 8.265145481042408 2.624595520399796 8.500647337606624
Fe 4.162070251545956 10.014101331173077 5.3421347943357
Fe 5.791292775200747 6.3884011375111855 6.7036433074298865
Fe 5.611515440426756 2.03525381740191 6.801367329907239
Fe 4.859966233417899 7.614092906370823 4.633578514709716
Fe 4.068810254663814 4.890974374112409 1.497553729493259
Fe 3.987541713002523 3.712257672392638 3.60055050783803
Fe 3.3490933959297715 7.993398647344851 6.565160318736364
Fe 4.507728386844633 9.515539607785438 3.03305474774053
Fe 7.094731996253261 10.631816503016669 6.713949256019522
Fe 7.098362285821981 6.670895096438666 4.607203487287603
Fe 9.49694532483489 3.823927255000391 6.451675778888959
Fe 9.531850082825478 7.47353420216543 8.187923337320608
Fe 7.774747047703088 8.18594255268947 6.346383365581874
Fe 4.223601773332529 7.391104476375606 2.007628913805409
Fe 6.542704394720929 9.431337684935924 4.506479115570035
Fe 7.378291329512249 6.6965460801832 8.585138864762255
Fe 5.863904572210553 2.1742002514956087 4.37293329652987
Fe 9.32289101653696 9.753723751467605 7.468323542313723
Fe 7.720809257413038 2.3208791036594083 6.060908129494131
Fe 6.187804726627077 5.964067947433554 1.1556721769690137
Fe 7.930590287430522 4.205441445606198 4.539825813022264
Fe 6.4675418379317415 7.921541759950897 2.59275020181373
Fe 8.693083779245015 8.14168141355835 3.7425388778838196
Fe 9.716013600657849 5.8892279009334505 4.546643282139811
Fe 8.794515009173104 10.117808190218746 5.095648169756976
Fe 10.07412837209465 7.98056507788265 5.8019824146981644
