52
Energy = -368.47345698 eV
Fe 7.895126018780747 6.120932503253326 10.749537602565745
Fe 6.87522259573945 7.023886089239132 2.600057674526191
Fe 2.350220110192824 6.505103604572055 8.380580291791757
Fe 2.2265905668590404 9.104548632144269 5.520285497706803
Fe 10.180197204679352 6.701741181842647 7.655581083936511
Fe 4.482345635508298 4.5638094190972085 7.504963081415576
Fe 5.44931694444558 4.9684677359972005 2.684358182276607
Fe 2.0168046444806964 4.2731084399864665 4.191618685531246
Fe 2.0745918814552944 6.7268730855004994 4.574439543498218
Fe 7.914273223174574 2.2503405977399065 7.643356320845511
Fe 6.004111445285098 6.4802726683190315 6.620533344369802
Fe 7.979862059191094 8.061460645777574 7.112524790561835
Fe 7.679309861590795 9.781986992158165 8.685172862526562
Fe 4.004849122611909 3.2517446752272026 3.4141286796989285
Fe 10.384206111375793 7.840695012762643 5.680458504661045
Fe 5.710436295918846 9.160818098024894 3.099885779325933
Fe 8.845798903987388 7.2220421940558985 4.033013804842354
Fe 6.653651796651456 7.731957559237377 9.400352374714325
Fe 4.687504852562773 7.311269879121141 1.7269034172007478
Fe 5.922383632303294 2.8928779995041167 9.16133702821537
Fe 9.41153755331265 4.283435838048865 7.527291052813691
Fe 7.035974357097033 10.172571111446207 6.381139124947448
Fe 5.536629575657303 8.60613933855861 7.434519324250622
Fe 6.851937056423688 8.181161439071593 4.908400734393149
Fe 8.804985079678433 9.5486251596174 4.985172409065228
Fe 3.213610642763628 8.489892362240573 3.31192725789316
Fe 5.914689562029567 5.214375968993321 9.444695642651752
Fe 3.1849529766042584 5.71370108651932 2.7358700117967794
Fe 9.712043421449232 9.49770599854186 7.295577036207074
Fe 9.930853033990507 5.520216030738543 9.67054627456962
Fe 4.8082700309221815 7.053315315800851 4.115906403972657
Fe 3.06377618876065 8.80563727919463 7.7567987618686285
Fe 4.6567705285949215 9.197442175337876 5.313563878803589
Fe 5.428326181237539 2.180265094572573 7.079335409718068
Fe 6.709687952149983 5.505296361177055 4.537764467600377
Fe 2.205434391391955 5.119289959150997 6.528169716171237
Fe 5.656097932867448 3.4142054310089187 5.154446521879902
Fe 8.030023922316415 3.88444549510639 9.481507216768573
Fe 8.421018652346609 3.6230128905695427 5.364369677752887
Fe 6.83236070351815 4.312566933636209 7.096770437848446
Fe 4.106713351916068 5.1371584740843215 5.093803713816976
Fe 8.449565541629008 6.031863458720376 6.025668718462116
Fe 3.6734129493681498 7.132318331336988 6.348120944508686
Fe 10.387401124172412 5.229161487596524 5.274024914761178
Fe 7.23132226977204 1.6852240081388135 5.420757956757018
Fe 8.593912040012532 4.918434955999854 3.3350416182328195
Fe 3.412871570545602 2.988233635364942 5.876948633593755
Fe 4.626961662612917 6.861990628777894 8.561739891090122
Fe 1.1035265140917097 7.385781562477352 6.653056184687587
Fe 9.135072411964067 7.934078939676532 9.412964300309318
Fe 7.837634720759244 6.033419853497578 8.36940808119026
Fe 6.936690612788612 3.1166670067780684 3.3225376675378135
