52
Energy = -367.36519156 eV
Fe 2.2523702828823264 5.749628792223145 7.671256513853516
Fe 5.411293343613769 3.970805375252142 5.760698406168549
Fe 0.4203744435424527 6.753294106013713 2.76255165721754
Fe 5.326411067183085 8.1892418190232 1.3811590424834528
Fe 4.508323165363163 5.137138280118821 3.759301274266393
Fe 2.2806095614610373 1.9871744475118729 3.266919480931943
Fe 4.290128515812621 0.5774324077579841 3.522779409871408
Fe 5.143920869158693 6.157403776341748 7.423766446667262
Fe 8.152607682953548 6.313850844993198 4.248907744086816
Fe 4.125493507604769 6.1420815727244165 1.608459171463736
Fe 7.002536226545266 4.055391000594934 4.037780039407253
Fe 6.379177256208764 2.041095874461325 2.4107023107161654
Fe 3.4955826914214545 6.25504988463221 5.709207572303087
Fe 7.607478957153307 7.518735205193913 1.305321590757109
Fe 6.09288504184972 1.6447003641638986 4.968682118996939
Fe 6.046723541480053 5.929071324591136 0.16436911411453467
Fe 1.755602345793556 5.678489756646982 0.9577436781863251
Fe 2.5549083786271445 7.899351413340573 1.8432441579447032
Fe 4.400189596265138 7.656903468897157 3.633728654137485
Fe 2.74035464837575 1.5938548749402444 7.8474343335322585
Fe 1.0698875427798533 5.744636083719573 5.333286008882124
Fe 3.6123309095715137 6.882991620429844 9.472681517433378
Fe 2.0400328394925915 3.5714780238888992 9.046778884398078
Fe 4.798729338565444 0.17632269245112403 8.656838033681105
Fe 3.633582273494303 3.950637228884286 7.263427483350973
Fe 7.333336634381727 2.7690976950745054 6.726908380468603
Fe 6.597374101456417 1.8412352970752504 8.99071641569072
Fe 6.3761181316519755 6.294859334144696 2.7264261425149403
Fe 4.58551863603234 2.8595534686466135 3.6831645625018066
Fe 2.4222473777717317 6.091267697495898 3.4000554058782204
Fe 6.800235184465247 0.4163374308267155 7.025579094758011
Fe 6.6713900625419305 8.411354275937388 3.815906350684589
Fe 5.938238752573759 6.24442880503021 5.153746627828882
Fe 7.762662435499605 4.773830772777783 1.5999430535124028
Fe 3.3856708541641747 1.973637081745856 5.525129185596817
Fe 4.167398018952403 2.0553020619904006 1.2954834147944068
Fe 3.9516951199328005 4.328810088661712 9.809369833907969
Fe 2.966810516372576 3.9643761553761716 2.14546439022677
Fe 4.837543054595771 8.335894800322258 5.840970127186334
Fe 7.2243074249002115 7.805394197464243 6.1257807807085385
Fe 2.2459030844953625 8.045695309145417 4.625229318107662
Fe 4.010837031914949 5.087276653703075 9.370671467496777
Fe 1.3829019170147192 3.5123784079950244 6.666229683879511
Fe 4.237475574704904 2.593987017543982 9.472681517433376
Fe 0.7826951402406872 4.307448139992143 3.1349093661801626
Fe 4.528433379341081 0.004891592317222169 6.093820087223577
Fe 5.5491132877106875 4.1272569850072784 1.8593857117412296
Fe 5.060472211902556 2.0037420913654826 7.208877206072487
Fe 7.413567811783958 5.193082713989019 6.562153209422173
Fe 6.046381651740715 3.2827050379234524 9.76311214037999
Fe 5.974056332857787 4.06947513977307 8.310131037151484
Fe 2.592549524934913 4.016388791013748 4.738392812533688
