5
Energy = -27.93014419 eV
Fe 8.963122577591163 9.494572203675295 7.343717286520993
Fe 8.853388020936258 8.461585712757842 9.369852854759973
Fe 8.729899927516618 7.2136022724412845 7.121115901702136
Fe 6.906329569270108 8.841154085681517 8.059087802401335
Fe 7.3700603937668925 6.780211887282846 8.923590861341099
