52
Energy = -366.46675868 eV
Fe 10.345945723513566 6.9833190755462 5.980397656085994
Fe 10.051611087133061 5.480738347411462 7.844039678367264
Fe 9.661857644415099 5.986181069926178 3.991058369888601
Fe 9.036413092949338 10.540687521824092 4.6905188630043515
Fe 8.761450370439508 7.616036864688838 7.781739597159368
Fe 9.997156154767913 8.342028064841005 3.6781931267644485
Fe 9.556020450748646 4.37005236378962 5.784610006994141
Fe 9.380108055213432 2.87759862901669 7.741177216434413
Fe 9.775532654437168 4.0737223921598735 9.815265315376088
Fe 10.01948860151257 9.45394602567629 6.329087086387163
Fe 8.425951339161227 6.1261538365788635 9.8348747026077
Fe 8.764304565920543 9.800741456943912 8.625834082289124
Fe 8.34722110862791 8.17738449353654 5.224160462091416
Fe 9.087531852362494 1.610131854519897 9.62577742614948
Fe 7.2614590222141455 3.3439061368740246 6.100130608622653
Fe 7.996250634186179 9.335847271515325 2.805652144216252
Fe 7.90734253340002 6.070344173527355 6.083819695349774
Fe 7.667942108679686 7.077227162386385 3.273394230342522
Fe 6.078486502538161 5.1538165308915875 10.380247171092039
Fe 7.5457040381069405 4.744142963803004 4.160823925452022
Fe 6.433470001404582 9.413019924871087 4.595972355239865
Fe 7.598322081127543 3.3117429898223216 10.002998733736867
Fe 7.64415791168674 10.183926903946235 6.615712211827315
Fe 7.824532886333558 4.660594396080343 8.047632035732551
Fe 6.392849572980683 8.059547749087935 6.680714156022403
Fe 7.181329395412792 1.9128703528169888 8.042065395038671
Fe 5.648098183922116 5.215316137876724 6.469439621580432
Fe 7.236016714462535 8.289417042624052 9.60137885915189
Fe 6.4183830578727825 10.402786964128671 8.611799036388412
Fe 5.0095124345188395 10.05233600651521 6.699153912630709
Fe 6.373968047707484 6.495228627581956 8.417481543044538
Fe 5.5902485475028065 3.6891656512732305 8.359906410382168
Fe 6.1418220637461465 5.402991336091095 2.322450614894425
Fe 5.60846112174145 6.678707090448148 4.518144166533273
Fe 5.291233813203436 7.1282872231045005 10.63643613790018
Fe 4.144559563611064 5.641893655383574 8.90259501245241
Fe 5.557090603013197 8.226901412207708 2.6775526437864463
Fe 5.3189086234588485 4.12523930386718 4.340596729919852
Fe 3.4430570342647 4.393899668175454 7.02393871567611
Fe 4.178297247903301 7.106110822971863 6.955656886149867
Fe 4.143715981923885 8.589057804349949 5.033029982816506
Fe 4.922538297483343 8.565282070003727 8.705845227939541
Fe 5.0085183708281535 2.656088834672518 6.328061199554148
Fe 2.7872658672580357 8.987635448109549 7.377029585119167
Fe 4.425249673258833 6.6040811091891145 1.386478026643553
Fe 2.872890806442202 7.586236920082399 9.299437376215023
Fe 3.184161217602784 7.384632685848669 3.2429541634198347
Fe 3.6731175195983554 5.021376062800211 2.8928425694905355
Fe 3.337310364350845 5.858790549469941 5.118090567153283
Fe 3.10615328190768 3.4368227544928645 4.837225853453686
Fe 1.9525429558457146 7.751899177137952 5.500705899270728
Fe 2.0034572196063736 6.351921089007973 7.441049761165576
