54
Energy = -382.34791014 eV
Fe 3.5645604595941927 5.699797987254564 9.335479540992035
Fe 4.879880177645515 3.5475656168645155 9.834509939567914
Fe 6.197006109660691 5.586716884025322 0.47720797994835784
Fe 4.458341418276217 7.40794428660472 1.3232994012286263
Fe 2.25285740561747 3.847050607653371 0.5193630256533245
Fe 3.832489486646443 2.4968422157853793 2.1359253451531606
Fe 2.025811282938108 6.412318274064688 1.325400299346799
Fe 7.001019887754625 7.5580280897915575 1.8210265482140953
Fe 2.9511428033712295 8.755449981040034 3.227865976207542
Fe 4.107197015133443 4.974570508980952 1.5320652990693038
Fe 5.443155061823165 2.236609501296539 4.054509914269358
Fe 6.231390586156598 3.560574579497738 2.1902405589116536
Fe 5.2318812655887195 8.293420677888738 3.669193335664093
Fe 8.004994023621311 5.245826507107633 2.422438748888732
Fe 2.8712012803326417 2.5315936398335257 4.456316283962399
Fe 0.33587170421271884 4.720693890053126 1.7827222785944934
Fe 1.561423848369091 2.400638441496538 2.4990244900059864
Fe 5.79408523642539 5.9972151275010654 2.840514859557798
Fe 3.4098455528762095 6.53167394305471 3.296094479384186
Fe 1.163096350256411 6.392851091627393 3.826254387665822
Fe 3.986416946181427 0.5320049318995186 3.80488493510738
Fe 2.21837473199786 4.420019677476039 2.985826900299666
Fe 7.44236048307161 7.082442034304605 4.241662263325391
Fe 4.214456699127436 9.755137576025323 5.286451483926345
Fe 7.906417539101356 2.476411286384102 4.365371409581297
Fe 4.419665381076781 4.314195671510499 3.7224134124413664
Fe 9.007062657718727 5.19082117707008 4.629672291662185
Fe 6.34269036835281 0.43312193264209015 5.1952925052351
Fe 5.148087493363258 6.152978455885951 5.085610393122159
Fe 6.766572349871762 4.423329716803411 4.64119989728787
Fe 2.5017997903184135 5.206404857584465 5.487667321251963
Fe 3.1679981475089467 7.6765022130133715 5.398900181637497
Fe 4.387055869465359 3.806703268691472 5.945999068722537
Fe 4.187527238979902 1.2864863165256493 6.143774710323264
Fe 2.1554169854285914 2.8022586615982874 6.66136656017921
Fe 5.736894296280834 8.1398402576061 6.212926453252414
Fe 6.358720606304793 2.510333061916146 6.291883554414442
Fe 7.595154235319174 6.339476124627964 6.457881543456547
Fe 0.7346502499005095 3.7965636672447163 4.626219048220135
Fe 8.393629429609698 3.906611311816612 6.587570604737813
Fe 8.246554794961384 1.4681099071677284 6.978737377582476
Fe 4.236189259534366 6.191583399126882 7.1529526355194015
Fe 6.102696534334564 4.708953006534106 7.222991888603242
Fe 1.8959036375652367 6.831136730974965 7.288247208598243
Fe 5.927469985233111 0.7815459666209905 7.814961092156135
Fe 2.7458908386840415 4.605447404312739 8.072621754656815
Fe 4.4457562639162695 2.789232143186753 8.094560895462902
Fe 3.8097347524080427 8.533699518108097 7.629189087648758
Fe 5.973141206693749 7.0522659588530985 8.500453112759986
Fe 6.917227327777629 2.876551229061482 8.717356750410893
Fe 9.23991760340818 3.0330162171489308 8.545473145256985
Fe 7.836082627493527 5.117355757738958 8.715031998824598
Fe 3.514361363895001 6.698886587388896 9.281843161150869
Fe 5.120855624944687 4.863176397857898 9.335479540992035
