55
Energy = -390.20122474 eV
Fe 7.272834752235597 7.350545355727939 7.326315870338285
Fe 7.078042161466496 8.720122995340114 9.336671964887033
Fe 7.1924807851182795 8.445326814866043 5.175493379666084
Fe 7.153202594649538 6.08121117273963 9.390415301849144
Fe 7.388997792805965 6.0302631695701585 5.3601859554133
Fe 8.592374112541584 9.334443294233761 7.15135902650642
Fe 6.074183305309876 9.416252863706472 7.216309088026927
Fe 8.530297879883783 5.322653818247395 7.402799575805942
Fe 6.0597231521018635 5.313819600385368 7.321383989380681
Fe 9.19312277560666 7.544482784080193 8.77043285937136
Fe 9.36295517695197 7.257180912940422 6.190987116793428
Fe 5.247285260855122 7.336839953685888 8.560195437263761
Fe 5.234163304992073 7.285150985698356 6.127709987815615
Fe 3.3312058355044902 7.555783459512555 4.845904137078471
Fe 7.455528688731309 9.850302418474447 11.356831282022126
Fe 7.354367251299817 9.78041035927118 3.1871130563783456
Fe 7.45132101914146 4.861206316967963 11.443386280271861
Fe 7.411931162179532 4.880993232544186 3.2988654913492366
Fe 9.864443103974667 11.41869262032529 7.255017887582126
Fe 4.98471079257334 11.441490100320925 7.36582423622525
Fe 9.874727057356793 3.3499159526808233 7.432195534814581
Fe 4.9791817803349705 3.2377144391752486 7.348175448062856
Fe 11.437950981740048 7.489204313170095 9.889735974922457
Fe 11.399753103319785 7.3236233911389075 4.966171096276987
Fe 3.421168624041892 7.069200912681373 9.959582947534455
Fe 7.4187245308298735 11.5484120816213 7.356428234645642
Fe 7.3853234755295585 3.2032475979124793 7.2897494580990845
Fe 3.2506017801816407 7.326999830994606 7.362845460722143
Fe 11.413039509780711 7.323727378292983 7.456164418432783
Fe 7.4944918849092375 7.3337019190996955 3.118499334468205
Fe 7.598142650157174 7.391637708609542 11.307041612444479
Fe 8.401907957715093 3.9941942022284587 9.356369499151391
Fe 5.9475824936886195 3.9050055246287165 9.49506929541285
Fe 8.716830019184576 4.067095476932392 5.319506743432039
Fe 6.073338539392698 4.125214780185033 5.263853307541252
Fe 10.635747143484299 5.216389692221174 6.051586738662473
Fe 10.586639854832232 5.45076528153593 8.579654590836235
Fe 3.9881018960569397 5.373279463292389 6.052465143053284
Fe 4.01442760019494 5.157571660466759 8.637254176312483
Fe 8.489385277136448 10.67441535426762 5.251613385437385
Fe 8.679070647727384 10.482321846881026 9.287655935912777
Fe 5.983709944120038 10.73522846770018 5.112033657200879
Fe 6.136722018970214 10.908232034242452 9.442329985300406
Fe 5.208752779858589 8.72351678115266 3.9477680809949445
Fe 9.380037340300031 8.626118036940436 4.2533388054240095
Fe 5.466251612682977 6.32610171554377 3.937764550718425
Fe 9.465319416284842 6.0668270478032955 4.110201485867629
Fe 4.29021650220801 9.419340796790834 8.904964554787242
Fe 3.987199811840032 9.470954781699097 6.097335894597968
Fe 5.297970044883704 5.949355238630692 10.788171754270289
Fe 9.452835036505965 6.032252268160862 10.59096432211463
Fe 9.575573384397032 8.697984609233176 10.817496046544688
Fe 5.334379305748647 8.453410978488396 10.862914044211388
Fe 10.764703734293505 9.404732586756106 6.209061232281342
Fe 10.802618050395248 9.500730318209323 8.646432023491855
