50
Energy = -352.69448611 eV
Fe 9.94014259617509 5.75749818166711 3.484820415287115
Fe 10.385304987434077 5.660204069886773 7.338334706070799
Fe 9.893159765847244 7.15704693627904 5.482784574856667
Fe 11.116525874794734 4.769100478898073 9.331073670672552
Fe 8.990877667469185 8.051401915664643 3.4241026060476174
Fe 9.309208964317154 4.488318219082124 5.514972559246964
Fe 8.66065131087661 8.805153280694757 7.74213529421184
Fe 10.258959524519028 3.3061235973364402 7.692768168696749
Fe 7.841501954165858 6.190313432261216 2.106011256866528
Fe 7.756379306010527 8.284108317906618 5.55508810236307
Fe 8.049310894680374 4.058613367900381 3.353484197180411
Fe 9.54014720756725 7.02164624549677 9.036016328809676
Fe 7.765095290187811 2.393772548581143 5.2934183767250405
Fe 7.357254316947409 10.245093898000706 4.276432055679876
Fe 7.803140363922299 6.122048067092065 4.524128233734353
Fe 7.964596415189851 6.200030808815807 6.9707959445779855
Fe 7.721338675683496 8.461066875763867 9.913390791136086
Fe 8.851204536604532 4.820687323825829 9.316277553272101
Fe 7.034830328575787 6.301227030203927 9.306986569490892
Fe 6.606252276893816 7.9645958296390855 3.3587012398336933
Fe 6.350182747432347 10.15215372570284 8.960472436093044
Fe 6.462703617833088 7.981917270437412 7.637370536487694
Fe 6.521505927311791 4.305241250558397 5.463696273766659
Fe 5.319461658982901 11.304007454443123 5.339114573713828
Fe 8.004674596577011 3.8166402848397736 7.419452927495334
Fe 6.571218391355726 3.8555643847142393 9.514743245753166
Fe 5.391966919678486 10.110065378167139 3.1197226509368123
Fe 5.418594816280138 8.902650328203563 5.4117026054613495
Fe 6.015379120835477 3.0300590866782393 3.3087931367642778
Fe 6.982562589610094 10.33250591548523 6.734454510988974
Fe 5.702901063858562 5.569075272226967 3.1910721103449973
Fe 5.2929243004370194 8.132173690956618 9.691303742004871
Fe 5.610328066189603 6.537893286578164 5.468388353064588
Fe 4.781114157265004 5.728519305337012 9.791367404085536
Fe 6.036065594384667 2.5356517023320744 7.443555757310712
Fe 5.598773295736032 5.094565553159893 7.609284047193352
Fe 4.5004458880155775 9.679646693343676 7.417264871479636
Fe 5.438853981379867 1.9255505119909624 5.270465308538074
Fe 4.272337236177692 7.243171462505064 7.581757462609924
Fe 4.292373817473423 7.908735879390228 3.341077825375551
Fe 3.498444628629076 9.985090634333025 4.732823874951676
Fe 4.3118697040567335 4.084242405526854 4.669735415835242
Fe 4.383634818610473 3.3330792537721794 9.239599353015056
Fe 3.3174843504637743 5.977539789740442 3.8258737120797166
Fe 2.976002312558695 7.315106792567683 9.60398673652103
Fe 3.8979150863613854 3.2746995997619255 6.898528871156842
Fe 3.2129398604124315 7.725303359732387 5.516693510382455
Fe 2.9461484464219 5.08996069175452 8.472682473461791
Fe 3.4147348108601077 5.481642840181737 6.1661084908921655
Fe 1.9662289230232535 7.001568752596114 7.47002361383243
