51
Energy = -359.79402521 eV
Fe 3.081205714886863 9.658601284823591 4.603082582522941
Fe 3.088568998666426 8.027874788468674 8.109747656605851
Fe 5.4355807359495305 2.6398685590906994 8.679914525786513
Fe 4.874452009906845 2.92308349595627 5.222764302611701
Fe 5.516887705766571 10.092945952252283 5.863735768898404
Fe 9.00735654140737 7.394844902216506 6.257808842114611
Fe 8.879606255005944 4.884158440335128 6.819781544424083
Fe 4.534775932245218 5.404341716673952 5.043491530397125
Fe 8.764897414229734 7.531936381665334 3.0915553464501446
Fe 6.5885628983427535 6.10779618523134 6.171724501755218
Fe 6.628123008118275 6.09373341449484 10.353538805057113
Fe 4.883010607990115 7.582421714578287 1.742682899873268
Fe 2.96739355673979 3.7174429151346633 8.520768599952195
Fe 7.126765249155215 7.102629759838127 1.1204644867025941
Fe 7.055147202813432 3.6275361515135334 6.121800511781805
Fe 6.878953705339204 2.010324635116898 4.222840893608041
Fe 8.284129820523749 5.927158152887719 4.65657475350132
Fe 5.327875231631458 6.676910057369097 8.187664209522875
Fe 4.708470197784069 7.87512099086775 5.956158764361997
Fe 3.50135288371067 7.377725399793333 3.8851754731954053
Fe 5.9966660296065895 5.003556923432456 1.4193503930270757
Fe 3.0709322075970404 3.588047771796371 3.7604383999855493
Fe 7.868691705286174 2.591331944655705 8.028282737367045
Fe 6.443775166347706 4.402529993182556 3.899616234304696
Fe 4.618145106796864 7.503258125176848 10.203863717912464
Fe 8.596003989183853 1.8688836725600353 5.8653797783928265
Fe 9.112829015639145 1.536191160065829 3.4836871234725773
Fe 6.263728509839939 1.512402657732836 6.6137704270147415
Fe 6.139891376339389 6.75726878013123 3.5461993715609275
Fe 7.543353910186647 3.029792697737154 2.1873027810429364
Fe 2.819567949591219 6.0654477087923935 9.371134222961459
Fe 3.3212141351036086 9.952197315778841 6.834681967815601
Fe 4.080230758257866 5.35357576866424 2.7006494137460355
Fe 7.2128818721745045 8.437346749203524 4.850805084000764
Fe 6.883610977281113 8.361777318946883 7.155699557841209
Fe 8.20840364754871 5.309149774977424 2.306942542979428
Fe 5.15815960364643 9.132884944271664 3.6913779240964306
Fe 3.09249911040898 5.933233613016297 7.000499582793631
Fe 4.956636244069168 4.370238706441658 7.064013165403334
Fe 8.807751308111277 3.673086373513056 4.295280277377129
Fe 5.086437428739232 9.276480595278484 8.284345622646274
Fe 5.1284714184692834 2.9774173699761737 2.5896867121559546
Fe 2.091007439408862 5.647365490918298 4.611513362649497
Fe 4.749436688027153 4.7814748250489805 9.65289593334668
Fe 2.672998234698203 3.7744666108148173 6.120858219733512
Fe 2.1254578033714826 7.856463290524461 5.894323077432219
Fe 6.859816169841567 8.32634182766368 9.570976880878383
Fe 8.116578360691404 6.6436788319842845 8.34801497903604
Fe 7.112076155237843 9.009037244236382 2.4312517819071897
Fe 3.8456641327233627 2.000026244894682 7.185231940323073
Fe 6.891805229392028 4.676428124104933 8.408488141502325
