51
Energy = -360.54343493 eV
Fe 8.105755846091666 4.6954833674523115 10.674800147307323
Fe 6.66201931907197 3.8203564151986034 8.945477694973274
Fe 9.279039828204246 3.339924001748113 9.126991335125242
Fe 5.741835406280689 5.7074133120910995 10.209562448109805
Fe 10.193774809693908 5.590626931189348 9.59423176203205
Fe 4.349249180673051 4.597549337412518 8.441732987089896
Fe 5.207321200576041 2.782014348744302 7.110330797207266
Fe 7.983696217844002 6.881176115950373 9.926047513891566
Fe 7.975050733960389 2.4719731268012772 7.1961796924540575
Fe 2.9091788889434316 3.6136752022176735 6.888536913821222
Fe 8.457728414150772 5.269076649368099 8.164909272703984
Fe 9.76363148104455 3.986790131612633 6.725925867770997
Fe 6.294183670909206 6.0352803067701615 8.145731684250313
Fe 5.960707367789406 8.245614781223905 9.251298892020852
Fe 9.98350581059359 7.987480394011872 8.820628908546361
Fe 4.309633865818657 3.5694054384373617 4.97980551354366
Fe 2.3543980009310097 5.876490272626124 7.255164187316684
Fe 6.504374459756538 2.537450485451951 4.9144991413397365
Fe 4.014874908005699 7.03015931046351 8.330417244659044
Fe 4.817704469968596 5.494873264003757 6.2034321354785895
Fe 10.244765181668441 6.365206007620967 7.080778038864332
Fe 6.238852245113192 4.856890303501653 4.171238042440513
Fe 8.460878989808275 3.9974545366895367 4.770264144819569
Fe 6.8477270133890755 4.282778359686649 6.5341271887626355
Fe 8.023247627637046 9.324812178076899 9.679558683005821
Fe 7.867893138264851 6.346980733859214 5.77083254996653
Fe 9.915081997415436 5.986938773822098 4.650322892067818
Fe 5.787812292222631 7.773210515556497 6.796512735068226
Fe 7.99627683239344 7.782575933542095 7.701845620442546
Fe 9.032486836078736 9.949792258378233 7.552270264054062
Fe 7.460444263938179 3.3692655353737666 2.6410091107618054
Fe 2.4791283512767475 5.223194494211096 4.953955447006859
Fe 2.048366228314916 8.311088349179183 7.328293540692149
Fe 8.064035432806588 5.735764772443217 3.0096015156910125
Fe 4.232114400828249 5.919519251403153 3.449839865382313
Fe 1.0869636546901995 7.139921199691994 5.536288620412382
Fe 9.749722706259263 8.301328058507428 5.895960051038484
Fe 6.583494447215064 9.996532446517731 7.663533836802369
Fe 6.0358652529450065 7.303588482296976 4.546033040797407
Fe 3.6580467899905784 7.456848920415482 5.620409728900331
Fe 5.99615967732419 4.978998505335021 1.648164124115278
Fe 5.048983716131171 3.2269418086195376 2.818722905696192
Fe 4.153072773211366 9.376163213111399 7.509085135310562
Fe 8.437605371230156 7.914523779267505 3.764293152629142
Fe 6.224145076990363 7.210064969537227 2.2924904848996466
Fe 7.52526926719922 9.112600177163847 5.633558603198198
Fe 2.225133579475247 7.428606430959988 3.606145974569652
Fe 5.151324168174719 9.627471512312248 5.338828046403527
Fe 2.563101486317576 9.354066879234598 5.1844320790026375
Fe 4.305108818416697 8.497261310640768 3.3238832258569913
Fe 6.6118156734731315 9.407916647098851 3.33730394892428
