52
Energy = -367.50476429 eV
Fe 7.480280632321892 7.815803944643563 2.657538792195316
Fe 5.6560571421350545 6.826421283385642 1.2012813808123082
Fe 5.263934293472907 8.957467304101142 2.38086254009393
Fe 5.147488694581982 4.528241109455076 1.9854837508105796
Fe 2.791370408271035 3.7204076156148744 2.27762656915079
Fe 7.074378183934957 2.9477403992283397 2.669022890752911
Fe 7.332026764350959 5.4914742219986605 2.301240837321825
Fe 4.698932295417106 2.4651619776912703 3.404363299979218
Fe 3.165055877417184 6.221598613824734 2.354324915814056
Fe 9.484385310086171 6.692075374561201 3.651746389184877
Fe 7.128437275889955 10.1383111782525 3.1343932076697825
Fe 3.3087009928950604 8.618420880546026 3.5503364975597593
Fe 2.707952317522852 2.588746859197491 4.793575304876975
Fe 9.027448037864337 4.358056492627105 3.4107370302075557
Fe 6.461965670735991 8.527086859637759 4.941834076456647
Fe 6.3001321516893505 1.4540286371615496 4.630906868693026
Fe 5.174890457338899 6.757404264500462 3.4978248498637483
Fe 4.959329690751848 10.332119326288414 4.473028216219413
Fe 1.5191512520356079 4.709708184944982 3.9416130744817757
Fe 8.744136778777852 8.971040062270704 4.513346475214776
Fe 3.937131145023062 4.658741631065712 4.067334796187683
Fe 6.228146858429899 4.434980214641996 4.167260468359587
Fe 7.885945911217313 3.1801193816718207 5.0898511959324475
Fe 4.988354013406324 3.374997844580677 5.964742738960631
Fe 2.7503379198283486 6.71126553485364 4.73260153894976
Fe 7.420819905716922 6.331127911327862 4.724754345424548
Fe 2.6935429606572123 4.716460427076009 6.085185783083082
Fe 7.186590465885935 11.021499383803791 5.355214253300073
Fe 4.190605801237255 8.30862278999473 5.849845992155552
Fe 9.426135763584565 5.093137233606856 5.677187627788626
Fe 5.606481353892222 9.751746148967435 6.949236116610634
Fe 7.941586278198972 9.391771030825481 6.897245563526781
Fe 4.353688977316453 1.1570475537606575 6.151248948597084
Fe 5.003471099867103 6.040907249776024 5.882917772135369
Fe 8.907028142900623 7.314303948111439 6.297731485557241
Fe 2.7687105139444137 2.704755604396499 7.2497596299586045
Fe 6.986919853858897 4.847037318797991 6.6940349314646355
Fe 6.8140929462237425 2.030641902672566 6.911751117460936
Fe 6.6882156708228795 7.409207242262669 7.147006621004352
Fe 4.438761822298565 4.728427112005274 7.917518320625933
Fe 1.8860933595985374 4.7437986376242804 8.413093652756602
Fe 2.730933389858778 6.734851134264068 7.276394750769363
Fe 8.899768881800536 3.49665884588353 7.369419585472265
Fe 4.610861021210836 7.568182465703743 8.229514750048471
Fe 8.555615775496051 5.754304638653286 8.18030215298826
Fe 3.216857769685596 0.7163538722763504 8.487250194462447
Fe 6.168071106632568 5.94322345634171 9.059152470801115
Fe 3.5084939667739414 5.841315375275383 9.7557372915662
Fe 4.98136018279785 2.3006766584282685 8.377261934059037
Fe 3.137934451447621 3.1393575157006826 9.601033292031492
Fe 6.921507587027877 3.687745376404253 8.739271816496027
Fe 5.124752503829442 4.130291597276074 10.312923522066177
