50
Energy = -351.4953818 eV
Fe 3.485786442447423 6.068832657577629 8.797137334021517
Fe 3.4507916357810497 3.9795001531026775 7.291197190065231
Fe 4.573231758826404 4.390936588326097 5.2423558505382974
Fe 4.07984120032008 7.922014053428483 7.273699818675594
Fe 4.292371203741515 5.567451385436359 1.5893286166662008
Fe 1.2953309811577762 6.484497808590725 4.491828770137101
Fe 4.833339631766785 4.1950440234618815 9.300042839481353
Fe 5.942750235979191 2.610028038614994 4.246043915817986
Fe 5.93961918399459 3.3914906299780085 7.273749590051522
Fe 5.40784685032762 3.3447623450285366 1.5517110765231252
Fe 3.6478989770853 8.360237320840872 9.616045061638788
Fe 6.014006926021014 7.353304790519286 2.8048792674714655
Fe 5.817896001586253 7.424156821945279 8.905681323298941
Fe 5.312433504318213 9.744179767114904 8.214284602618823
Fe 8.599247917067876 2.4150920488983667 4.063660051638023
Fe 7.4000401214868745 3.528164599589262 2.5902024230644374
Fe 7.068021089301028 4.3392442534745195 5.4243276538841485
Fe 5.840992980809388 5.101483978635792 3.3291573907859644
Fe 4.292634037627778 8.728775529736264 3.455261998223767
Fe 3.530355603128953 6.312283980108341 3.6546812177032337
Fe 8.752804079544065 8.258793939127255 6.04025149432644
Fe 11.005865229929858 8.600794728523015 6.013962592794818
Fe 9.449791556806913 3.8669415810050993 5.677127426099741
Fe 3.6667252655272033 3.7279131765101816 3.0773071782115395
Fe 8.771540142070151 4.981699797973085 3.6508357327712737
Fe 1.8855623703860709 5.082847842206553 2.5059337298839264
Fe 7.565767733524133 6.67427250328345 4.655525233125283
Fe 7.579897565526408 2.0191337212606064 6.1052473429848595
Fe 8.225024792860916 5.882010398523453 6.943368756908964
Fe 10.443666351601731 7.178675509975963 7.763977330729612
Fe 2.106964224367909 4.341075956627668 4.841286106908958
Fe 5.167983566886105 7.003505072921317 5.101566900869445
Fe 6.762636337672694 9.011210116565977 4.474045562213835
Fe 8.358032594182852 3.62406263492548 7.84547426860565
Fe 10.067920567183442 6.291120263800134 5.471857359807313
Fe 10.557159187247724 4.8242174463076335 7.530734502259241
Fe 7.313424062161882 10.104220957466017 6.803667626652791
Fe 6.55855699266119 7.917429944084715 6.7255351157036705
Fe 5.446842943856255 5.750430737703754 7.12895536792002
Fe 2.83543571773624 8.266136627231738 5.214654057477348
Fe 4.892036993624434 9.626268769548277 5.747255570087071
Fe 9.564816486999996 9.490429018126797 7.867473852300776
Fe 9.253250207909602 5.603531099370444 9.37220596777402
Fe 6.93075584694879 5.235696816108468 9.038397142697585
Fe 5.6452809673068165 8.695085816166454 10.8181386058818
Fe 3.0551756231224942 6.059300715097184 6.235677611237137
Fe 7.438074422626616 7.0232373850098275 10.732859326747919
Fe 8.25735400727566 7.579428870962402 8.594024656415932
Fe 7.441738761883071 9.471802316099343 9.287749790281191
Fe 5.067042965496517 6.2534974545876745 10.728715641223296
