54
Energy = -383.42758678 eV
Fe 8.49983496970213 7.908081350187168 5.4060385286597
Fe 6.031676720153487 6.197235103451108 3.2314654719420632
Fe 10.605338227445632 6.8787514397276865 5.041449927407153
Fe 8.4759118722398 6.554534283196027 3.484266727514045
Fe 9.75782158901126 8.732194769973468 3.45552046142941
Fe 3.806206866967793 6.58703484739844 4.71682877493874
Fe 7.295998123380473 8.660669202526517 3.238552285530091
Fe 4.702203057350059 8.392532853253751 3.3184298005872233
Fe 6.027416592282149 7.861762428830506 5.062938551599999
Fe 3.643288596532294 9.024223626152637 5.437117090403925
Fe 9.069830368017708 9.805023697077624 9.64771468324979
Fe 9.191818925847064 8.41061948056085 7.74004056202567
Fe 6.947477153272324 10.075241442717257 10.978549315806443
Fe 5.094884235250426 10.002781937589488 9.334368536782947
Fe 9.03144845188643 10.802445589920124 7.331463257028844
Fe 7.052605114691398 11.250390044956289 8.693048813035093
Fe 7.013220782966488 8.767517988965453 9.082915264301368
Fe 7.019166115417951 11.951197244699978 6.37073750929254
Fe 4.932044051519594 10.93456270882352 7.0661090425693445
Fe 4.933601316880913 8.540243322042144 7.303005372918525
Fe 2.9326026676756216 7.130639558188152 6.915544686486354
Fe 7.145812424775462 9.584431631510883 6.793409179436946
Fe 5.704875812302882 10.24852486368779 4.919402427637884
Fe 8.28567312867299 10.244012448105897 4.888706724057358
Fe 11.02916118042994 9.548161924513279 8.327228942795239
Fe 10.432230596289434 9.204990558777885 5.75324224208666
Fe 9.408421245261229 5.7102114780646085 11.196605691697258
Fe 8.285771308134498 4.190611610314134 9.588685520094643
Fe 8.166326245926633 6.610230378163383 9.168311760885276
Fe 7.092335258509304 4.946568864248488 7.668990993353668
Fe 8.260674319288833 7.876836406864907 11.150437608599422
Fe 7.126511446554554 2.5817641496744046 8.062197304402032
Fe 5.1143826469435245 3.7323564385170247 7.1353665665148265
Fe 5.247578059166871 4.5471244300590605 4.830639738730319
Fe 5.706943252017056 6.5369747953617985 8.987884523210766
Fe 3.1050930628750755 4.707911115919747 6.098927009752351
Fe 5.197846358352227 6.100526213547045 6.658150781295714
Fe 3.7106063107480742 5.28998812792962 8.389678200947715
Fe 4.4656877184636405 5.658067592518631 10.713857281444367
Fe 5.682096254954203 7.955493760531448 10.91669290695762
Fe 3.781212509636038 7.7380047605573985 9.233978139754655
Fe 6.943206968926979 5.733070993364916 11.000638450966703
Fe 5.738575190521877 4.0135547862714125 9.541973568778449
Fe 7.075252026404451 7.306054365227895 7.187414335854538
Fe 7.2154488947425035 3.3786368216842444 5.733909381604422
Fe 9.086214986799792 6.1123716051892645 6.930864599483162
Fe 7.457155883044556 4.211400526314465 3.5101793058632977
Fe 11.246091054708232 7.15886007967607 7.316519776689405
Fe 9.160217122631822 3.7529232081728505 7.220238534267907
Fe 11.313399272022117 4.963651499640131 6.54861899128012
Fe 10.287632824771737 7.506421941335702 9.740457623092393
Fe 10.297492209072926 5.296851816382956 8.814882439280112
Fe 7.212419761885284 5.769275217602627 5.457701507421595
Fe 9.328655088710049 4.691848785932252 5.033499712565283
