5
Energy = -24.58099904 eV
Fe 7.743388675049785 5.302573967079969 5.53898162193708
Fe 8.160664686407198 7.600482130177589 5.7451839835487695
Fe 5.499589585522981 5.782667859126655 5.64106429483972
Fe 9.717492517621821 5.051706903652755 5.223398423604915
Fe 4.375153725912257 5.987743549144896 7.483559737730597
