52
Energy = -363.82600278 eV
Fe 4.128564345682221 8.710979959884366 3.144153348331749
Fe 6.411776407089922 8.022824583931142 2.3284419613927607
Fe 8.31062919267428 7.007258045223871 1.3813551552403667
Fe 4.384102354317733 6.597102758064204 2.144735885888782
Fe 3.161225072358985 6.424719425996237 4.236091146175957
Fe 6.527262290590099 5.482243491309131 1.9163438548999367
Fe 8.459627409616115 8.505802007360074 3.5506769036281383
Fe 1.7079259424684732 7.96103139921664 6.146619049061452
Fe 3.7749376157843084 8.437589193185083 5.412169126606125
Fe 10.120990411287533 6.641037309930644 2.754236921696834
Fe 5.134108036762019 4.841202842092747 3.7920792754452375
Fe 5.674184806143806 7.069507894109692 4.318416480131317
Fe 6.060604606768204 9.373834414104351 4.535300756583043
Fe 7.8885975645578945 6.21548823996632 3.777371380088386
Fe 8.818683397350421 4.664623286429675 2.1332282118372192
Fe 4.631686288049537 5.857693187093044 6.148411816352954
Fe 3.431621046858839 9.293271932742062 7.796211484091088
Fe 3.343989236570394 3.914519203687083 5.155866828678262
Fe 1.8727613403283758 5.59039226752914 6.087771736725684
Fe 10.092342738038655 7.147693199780361 4.982567239003292
Fe 7.2702351155690055 3.645111200859791 3.651182423415902
Fe 4.811985681616215 10.494997886460746 6.339920322969
Fe 9.466719314364175 9.499829931731558 5.759496008732554
Fe 1.9440279779536016 3.0408477825929676 6.805754838412155
Fe 5.585709974669408 2.9809053253986035 5.397612469829814
Fe 7.768474216671747 7.7653474223713745 5.726670076686758
Fe 3.3099380465520265 4.595245619625208 7.722962502346369
Fe 9.508081853072916 4.701292764880426 4.506702748157268
Fe 6.917412043396023 5.142731270797037 5.610911526183497
Fe 5.576975990291348 8.172572440178957 6.782207832064327
Fe 4.101681248920491 2.2168357722812524 7.133852772832964
Fe 3.2339216977904 7.0098922976545675 7.683075015433115
Fe 9.150057323010268 10.072403082330966 8.043594676396593
Fe 8.081828460662438 3.177044315461319 5.9582523968463095
Fe 5.800750829701198 4.064878541212087 7.478538804983626
Fe 5.789492160130786 9.945001918157216 8.488704766671104
Fe 9.925152148165944 7.9130082184673025 7.389191343495729
Fe 3.8580501099658964 5.773578031336469 9.776379277796071
Fe 6.659450304905109 1.908365172871465 7.441157987822191
Fe 8.931714118809976 5.818339323751825 6.595368889420903
Fe 7.261645707837146 10.062590753449442 6.558204585427181
Fe 6.741868658310121 6.3085808358127275 7.64249370355455
Fe 4.476335936377999 3.3973701897544633 9.317056009625249
Fe 8.12023870290894 4.123745635130822 8.1879421070232
Fe 5.142928789556314 1.122461893347756 9.146355541378284
Fe 5.135096203872737 7.641006381029601 9.06342967372386
Fe 6.171549487657288 5.27625809937917 9.623281811378448
Fe 7.641454535268874 8.387557988797735 8.25917615715075
Fe 6.80445689364622 2.8899565075049027 9.669579219756987
Fe 8.865325610669402 6.332768945123025 9.05232573136527
Fe 7.112435370756276 7.358795555322991 10.311084557616313
Fe 8.147271068564589 4.762017471056674 10.597295521616235
