51
Energy = -360.46993425 eV
Fe 4.356145038023582 4.879696731252891 0.6163662564877905
Fe 7.03416412249414 3.8951890189592397 1.89042607808715
Fe 6.461826124084528 6.344944128477949 1.368149909654006
Fe 2.6836653642911314 3.3590587879878173 1.5874167710440963
Fe 8.75768389686085 5.509672831783691 1.8621087121366118
Fe 2.3290912712766114 5.513395357475472 2.3698855226740214
Fe 1.8905388274507329 7.792571341437323 3.1473044980163163
Fe 4.7937975364779675 2.6307079630326355 2.154726037115731
Fe 4.962424176453613 5.12690705536347 2.740425492740063
Fe 3.9405374056883145 7.18810975316219 1.7293193517493735
Fe 6.904208497113149 1.6111437204483428 3.128470531248241
Fe 5.914725089534569 8.77370472992297 1.711029597124615
Fe 8.627130673148429 3.6790039888255803 4.241102447459697
Fe 3.470120584661047 3.9127175449038054 4.080396543125506
Fe 3.44973883386386 6.54052361836566 4.248004182241674
Fe 7.993973819435255 7.738837241362647 2.736412667349561
Fe 9.53527193073446 6.114829634287698 4.030677478900456
Fe 6.044052725389982 3.4511141765041486 4.045951504301491
Fe 1.1708449615005034 3.5091163480371588 3.641999996806219
Fe 1.2600363192404365 5.836082605913769 4.725333191856372
Fe 5.674765867973652 7.2814945507229165 3.517542439878604
Fe 2.621861441263979 1.6400174299624553 3.3780405520146197
Fe 7.274920617580373 5.492617364317793 3.772237782680803
Fe 3.999247024384893 8.980537573470153 3.536958565803881
Fe 4.711764864644167 1.4723167054334552 4.429237847883382
Fe 6.5287573409306505 9.458192184450649 4.0043083681322855
Fe 2.7186308530034857 0.255414360613278 5.330402334731938
Fe 5.123140552032598 8.298027548127758 5.635675532449352
Fe 2.6272680541693845 2.6007966908905717 5.843645018722384
Fe 5.292418459166224 5.696221083292554 5.347228714416287
Fe 3.1047097956464857 4.957631703105464 6.230323693643822
Fe 0.7030895400392405 1.6043446982738874 5.1846960354236105
Fe 8.753796302366972 3.1504423007341598 6.689510208962479
Fe 2.475291308084799 7.910580596674476 5.7982493067021466
Fe 0.5185264666839713 3.9693163174112414 5.939699883316759
Fe 4.595498430183992 1.0723571779745846 6.82302265884631
Fe 7.0102724727331385 4.3789147013906975 6.048354126559844
Fe 8.854731542850452 5.658755544492488 6.2397384546445265
Fe 7.520883487208153 7.47216007954559 5.168240381161876
Fe 3.897236987480719 6.913397247942625 7.1763828346020935
Fe 7.008963393784021 1.8548274856149618 5.641434430324723
Fe 6.517230315937962 6.720364361739827 7.228231713453437
Fe 1.3084717070739362 6.052911639326154 7.226609284778461
Fe 2.08722635443893 1.1259648382453207 7.578537048520869
Fe 4.875568924481733 3.306099379605694 6.055257672302471
Fe 1.545788382206751 3.60691979894615 7.973979114463672
Fe 7.574355816468971 4.758632090910737 8.306024035295
Fe 6.38826410975315 2.6110435858137393 7.830499749672478
Fe 2.944444331806116 5.290342554482935 8.757070182814193
Fe 5.193247291925889 4.858223018337189 7.846453086366692
Fe 3.7536424293226256 2.9278004739945107 8.190893834661997
