52
Energy = -366.92574328 eV
Fe 5.24419561501481 10.850123212644649 5.638810163758709
Fe 4.212955609573082 8.78767930716744 4.368269742387125
Fe 6.558155039398613 9.099589773847793 4.539576474181426
Fe 5.6569132349497915 7.408664814373346 2.71875736350172
Fe 1.7535027679612434 7.911275959296144 4.95874037417394
Fe 1.1189921224134254 9.119035436469124 6.875870695311306
Fe 3.2356221145553596 9.799648060761118 6.256039459942888
Fe 5.0190895618297935 10.359026892763204 8.069237962557839
Fe 3.4921890396750297 6.555179516202935 3.8435095888267075
Fe 7.354008814752662 10.47128335135647 6.5916141874150185
Fe 7.998599148182469 7.799325191557656 3.6634498463206127
Fe 5.5417424035590965 8.615528178948177 6.71604312769214
Fe 1.2564376123377778 6.939814920361284 7.422380190590632
Fe 7.418281739145878 5.5613716102343655 2.9823947310893484
Fe 5.897848519542278 6.743857665710299 4.920398838528036
Fe 3.6685334723333978 7.250631552495666 6.239955289896313
Fe 8.862020256342593 9.667248085551748 4.896155153045319
Fe 1.995356386197249 5.488332471267536 5.707218936179501
Fe 5.151482480450189 4.989626447931697 3.2413243100791256
Fe 7.241092968839295 9.290107651131407 8.595361739067975
Fe 3.0448563665810466 8.578922920286624 8.258917634966423
Fe 5.15371256574812 7.749133049335903 8.973018059446467
Fe 2.746548447346134 4.322491727052188 3.6552494546264875
Fe 7.832557497924074 7.790162348257034 6.571905924072624
Fe 4.296198936675357 4.833445985677217 5.645612716797883
Fe 10.109795545374238 7.644395886052016 5.08215270150566
Fe 8.353762464269835 5.8752573828744294 5.162722861550702
Fe 2.6743674533962736 3.0396058574278104 5.669172923940989
Fe 5.808599464829946 5.988313170464953 7.141673101234739
Fe 3.3574185264054224 6.022223048801226 8.14937295265353
Fe 9.80352428118837 6.085699395641784 3.225860720785592
Fe 4.631753906619216 2.8044143490920552 3.931668237528335
Fe 9.319544991046486 8.178276586506982 9.082528084965329
Fe 6.637515550739899 4.175449257788316 5.295806111305159
Fe 3.793652146456002 3.7469672508611156 7.730321033238038
Fe 8.867284636749162 3.818696722035238 3.6053520013237663
Fe 7.348871706557455 6.846814688420386 8.859872364571354
Fe 9.605177765165399 9.32707902783117 7.070543700226095
Fe 9.838459222616986 6.65318494211023 7.239717101638508
Fe 5.247597773850474 5.302118324866499 9.361686364935341
Fe 8.027759035001349 4.992858106795021 7.3962992259266205
Fe 4.9683065234672545 2.2720260133668027 6.094314404240057
Fe 10.579030112225535 5.090000547654074 5.295131494510157
Fe 7.02829261523487 2.1962598768473547 4.226523843219326
Fe 9.544297372924612 5.811797349470758 9.476922231969146
Fe 6.2275271622994826 3.6432115900284416 7.77723083244862
Fe 8.92995864425776 3.378722144437827 5.854710339842275
Fe 7.526317072506635 4.570139958937705 9.735351960855647
Fe 10.503326949024922 4.295046204515651 7.659630670884888
Fe 7.24478678357406 1.812133459714994 6.489365868758615
Fe 8.414906898555445 2.9058275014649837 8.186881345173726
Fe 9.862541081659959 3.5841656801290593 9.813054234350936
