54
Energy = -381.86418248 eV
Fe 5.257900301013599 10.058654411870362 5.925671365150311
Fe 8.813119071807801 5.197407195524818 3.0089668526308833
Fe 3.1080660956918953 9.407496310721152 4.848306757523091
Fe 5.330666131579111 8.606255264446498 3.905516564600616
Fe 7.588922701086245 6.6998773579135715 7.665672074006723
Fe 3.3438712331465887 8.14605604784886 2.7173845088939403
Fe 8.632410447182789 6.334223502156531 5.305156748247379
Fe 3.4143972225643027 9.604868208967796 7.338391974280664
Fe 5.738726388456004 8.434833017752693 7.574653034923264
Fe 7.364683447580711 8.800140551176105 5.566375796313206
Fe 8.971695695702602 4.973472641826604 7.27687806755888
Fe 7.097747084703369 7.182034266586921 3.197728388701718
Fe 6.597720244394711 5.092436759774392 1.631548274987949
Fe 2.348929174677465 6.8635864759002345 4.46326080803667
Fe 6.836532005047852 5.03087955791721 4.062710974158653
Fe 4.564485596137487 6.224126700481069 4.003416529141957
Fe 5.113228209173712 6.901025227766063 1.7731512578754753
Fe 6.992042160703113 4.60854981928971 6.390520338270416
Fe 7.061942199752551 4.75757447534363 8.758450569426069
Fe 1.842682055859982 7.912838514688452 6.60705915978008
Fe 8.70553366019706 3.7879940576851023 4.952887653542295
Fe 2.878963334617884 5.679055253170622 2.1862049400423116
Fe 3.485895329492779 7.441885867802383 8.390665516045011
Fe 4.118282830307316 7.644984229249069 5.921039156011528
Fe 5.634298167423413 6.79997127791575 9.428546556594803
Fe 5.200414961719334 5.969478573110542 7.375028219271065
Fe 6.333924295963938 6.88864647614114 5.511080564581052
Fe 2.5971183052839555 0.9330064642716194 6.033071555311846
Fe 5.837278072494574 1.2974188190091893 3.159907573609533
Fe 1.8870113116214209 1.1618978504991115 3.5568306784349475
Fe 3.690285409849992 0.8343997760912906 2.0642961583778914
Fe 4.906610523310671 1.5607381697801035 6.465594411462405
Fe 1.4044199378621187 1.7805357620750195 1.2095575522790838
Fe 6.44820557746733 0.256036532996537 5.36836513046286
Fe 1.2918557282330156 2.8232081238542643 5.115828459803731
Fe 3.0328670249697347 3.2712704325611988 6.687834326660132
Fe 3.8009465816928865 2.3512237788753207 4.393058816886683
Fe 7.442840534144802 2.2545857836727365 6.826272324087629
Fe 4.0706489687097545 9.266652617004623E-4 4.397078906581498
Fe 5.445579329379884 2.6124972221458402 1.1688379988378665
Fe 1.01401382312906 3.814986921441383 2.848963889439876
Fe 7.487246291501841 3.0689797071525473 2.7658443330561964
Fe 3.062902181574345 3.075970497459031 2.0580340144261884
Fe 4.340576197512136 4.7156154601805484 0.6319654973405268
Fe 6.265871307641179 2.8022878934585087 4.913750582337745
Fe 5.330462738340268 3.548377705275949 7.6377148038611455
Fe 0.9473669190099548 5.308725694651793 5.499761510896039
Fe 8.147103347766311 1.419706295944362 4.397336297320535
Fe 1.8553031647739429 4.231081542287909 0.5808243174982355
Fe 2.8615598357301804 5.662376803799931 6.60161310769837
Fe 2.749606353215347 4.535133771306325 4.25984965112185
Fe 3.8192447129363156 5.009718367243564 8.86173358150836
Fe 4.739329351474686 4.47733641620092 5.5228611960455405
Fe 5.002758774646461 3.9996978497323816 3.043033024312855
