54
Energy = -382.18354442 eV
Fe 4.155080306728526 5.471503692657871 0.44154789395852645
Fe 6.60753740839914 5.1540163246961805 1.0591695037775966
Fe 5.275235995399534 3.246995959050062 0.040066644404873134
Fe 1.5946310251143212 5.405829459974378 0.6226149241110825
Fe 2.948517003466643 3.1974486658269217 0.8923292807028199
Fe 4.64008133700266 1.597423838164778 1.8944110999076997
Fe 2.8075422647908437 7.365275315921403 1.7444443771203615
Fe 7.614459309311537 6.794558665903073 2.381698187707055
Fe 6.989876045340521 2.890424713051307 1.9388870657323525
Fe 5.526534438343056 2.3966939574327157 4.057036871926047
Fe 2.8926074743905503 5.057337893750802 2.502116871691765
Fe 4.948074597453657 3.9850261955881794 2.268060792755806
Fe 5.040496751458468 6.5038342451556925 2.6840941763047184
Fe 0.938361432475854 3.5165014613351016 2.357518451683855
Fe 2.0040474395735 1.311799575127249 2.1831948021367236
Fe 3.1554653183871006 2.79725000870177 3.419238900975899
Fe 0.7416201200591976 6.113115661339474 2.8690802788561416
Fe 6.4859047556283596 7.940832653806275 4.224560068943236
Fe 4.078308966431479 8.608313705287978 3.7243269655655133
Fe 7.991636351964916 2.569387712307371 4.056295019241325
Fe 8.704502910763342 4.643773955254931 2.7114247653864676
Fe 6.690726779150052 4.8987170745059085 3.793935628677266
Fe 2.7921667246789514 6.658102795459105 4.202617900906524
Fe 1.5552781412087358 8.394352771698005 3.5399793348511053
Fe 8.534914269951004 6.689237468716468 4.6068548255021975
Fe 1.6043726534115803 4.443303054483337 4.522529739318936
Fe 4.389533914601159 4.750726008709643 4.493524122945018
Fe 1.341661624822167 2.045483747523499 4.7656069776878915
Fe 8.778169433023221 4.480900675345053 5.355102797817275
Fe 3.67267157767724 0.9408725433577695 4.8094274931621515
Fe 8.806419369231447 2.2060375556583605 6.228713767160823
Fe 4.825540281956097 6.848494147827612 5.363288354533029
Fe 6.646256900162038 0.935570320014799 5.515163360655522
Fe 2.7162212256529688 5.523122521786059 6.37592130618981
Fe 6.753626627701148 5.804446231692265 6.0866290939595595
Fe 3.4309348209702897 3.1764883157029353 5.817755710779497
Fe 4.968123490392483 9.195699832812535 5.933757544731171
Fe 6.4968362563520765 3.409136072149749 5.967318734988285
Fe 2.8545053417607256 8.016629331437523 6.19349734686094
Fe 0.8245734178288371 6.613969779774752 5.444182864221767
Fe 6.983019570694277 8.028671389412649 6.6497318164591634
Fe 1.206943962780091 3.6826008865417243 6.800069586495957
Fe 8.839762681778364 6.329135410008035 7.085176721423142
Fe 4.823703188794208 4.828057084746982 7.101757740298654
Fe 2.3106112356573685 1.5091911178544763 6.985165767000677
Fe 8.076332527136012 4.066341805734902 7.716908619629992
Fe 4.85916013349854 1.8322205789513009 6.996194725885192
Fe 7.174115757602497 1.681532978465152 7.784837027684492
Fe 4.8478805366834345 7.233932842803103 7.677838692138781
Fe 2.8334707028710273 6.139322168493784 8.50534594758241
Fe 6.794656897955801 6.029768673745311 8.51736417626165
Fe 3.2036890945977485 3.619452079657533 8.280071951542938
Fe 5.878428963933286 3.4670775591002254 8.663153866437701
Fe 4.757164756055778 5.366055628549061 9.560453626372425
