55
Energy = -385.74631984 eV
Fe 8.330776572250684 6.373396321344948 2.600818288751115
Fe 10.574931499311853 6.003225347720016 2.3523189611712656
Fe 7.2301043222424335 6.808577860658778 4.5981857010907445
Fe 7.9285408178053185 8.73893919395795 3.0070599833865637
Fe 7.260664846174814 11.064014773417373 3.862416767439591
Fe 5.356702131404676 5.087927022264705 4.601034987688192
Fe 9.772762543318851 5.925988651843822 4.527468583773188
Fe 6.483964787406615 9.129719894100498 4.734518063765886
Fe 10.192776103602075 8.042225676337788 3.254228890473498
Fe 9.451430579331138 10.428719234694203 4.157094689651083
Fe 7.715619175167332 4.5642937788535045 4.71524940829813
Fe 5.1566710224116035 7.361936280467313 3.8232394823106586
Fe 8.645875756794593 6.090171675831778 6.564293344216324
Fe 3.5425453050046536 6.366125658619613 5.501820828048373
Fe 9.06982090832903 8.451519906091066 5.246391363584494
Fe 5.9697682648937995 5.99847124507554 6.871640310101892
Fe 7.981684181508004 10.595309736737967 5.9704877921047865
Fe 7.2632633981168535 8.066924243547756 6.610623566414575
Fe 4.829814224324146 8.180249316465954 6.110144787275643
Fe 11.024262373167062 7.499472279524307 5.990655839049799
Fe 10.218890601923201 10.050398292861301 6.645174994968433
Fe 3.9143558523564743 4.360203881123497 6.495607136147549
Fe 6.234436871987885 3.6503847475202376 6.534790308712278
Fe 10.872748328743999 5.083547426033661 6.541943876820729
Fe 3.855846871409338 6.628121938096653 7.94688376354814
Fe 11.930660423324355 8.9125459606122 7.905177586458606
Fe 8.962842590900193 11.640342617467443 8.067754207002226
Fe 5.744128410144286 10.247799180499463 6.940019583571923
Fe 3.7742157855244733 9.17250573045879 8.054912482003175
Fe 7.676140200980424 9.817379451565275 8.222174744028246
Fe 11.093326167528886 6.633775154054515 8.382253620051259
Fe 5.8062404785091095 8.164074200045182 8.307805207313141
Fe 8.794653553045825 3.758669718812861 6.724428105361623
Fe 9.430809109593472 5.016455454209856 8.718078564628717
Fe 7.710428468940799 6.74722997296359 8.591866880871564
Fe 5.706642862984891 6.182982661194258 9.580527766747203
Fe 9.43394923020003 8.126740107445238 7.72502359305135
Fe 5.626360198269375 10.195972594977604 9.53294507962962
Fe 4.727688036202925 4.381332343438678 8.620856324511676
Fe 4.331224668503641 8.014955485386881 10.200758579756272
Fe 9.920802122011354 9.831563869951886 9.172572926873128
Fe 9.467035710970325 7.414342871774172 10.08189206474614
Fe 7.1488676361582995 4.399388396287319 8.580798959399559
Fe 5.7823488652621755 6.7954090942814815 11.832174230408386
Fe 7.268460390759281 8.40788021296085 10.257053800828462
Fe 7.98387731653657 10.754382744761848 10.340701334428646
Fe 10.120867109557276 5.578024367107656 10.995843182454113
Fe 7.704479421114749 5.7174314861651805 10.709156264469188
Fe 6.180511423925452 11.473067726518401 11.589897391331307
Fe 11.541262132166935 8.319205279614877 10.086555303666671
Fe 5.7257116621024835 9.194086390248748 11.79181379508567
Fe 9.646545475149358 9.292044388347204 11.424749721379692
Fe 8.11209724660081 7.525796916218962 12.24955835344732
Fe 6.383401952153013 8.134689401127279 13.725947554793951
Fe 7.715712602114826 9.929610428537032 12.65215966313199
