54
Energy = -382.73792936 eV
Fe 10.821286718919993 8.950285059360148 5.015298302278642
Fe 10.58966843455665 7.054647575730011 6.570873759737203
Fe 10.118476728065774 9.148081695435058 7.622587959082447
Fe 10.040563511783066 7.197758978092382 9.163524233186132
Fe 9.66257804972668 5.11675827044363 8.060133826614834
Fe 9.746588082761434 10.862267194451515 5.952025542735128
Fe 9.696140198389855 6.897734551841203 4.180094054716179
Fe 8.941009301230352 5.346899235631148 5.671489542748745
Fe 8.709306147751256 3.274659189109147 6.672869839818072
Fe 8.890809547042322 10.037991481886158 3.800454141261282
Fe 8.5843692090732 8.63080924419403 5.588616053105082
Fe 8.226104015308632 3.382678877025512 4.037437323712009
Fe 8.372210662373963 7.161789254945442 7.436511324651598
Fe 8.01970488700339 3.7375323269461407 9.074866138007431
Fe 8.084898099803677 10.406997385602546 7.701373405627156
Fe 8.033908074212555 8.603619568220838 9.261533741838893
Fe 7.86070284965687 6.10324668162651 9.81481145767009
Fe 7.187389888812597 1.779577054335012 5.413265606556136
Fe 7.89768923505232 7.951913247141579 3.0705020580755673
Fe 7.65935411505291 5.603911569083697 3.5217109122313706
Fe 7.2098165782786845 5.167217180644148 7.54780055609304
Fe 7.32874998962888 10.889715486394502 5.534094009472195
Fe 6.936478378559196 6.795517441477979 5.403555562687019
Fe 6.371148018951748 2.82400632740061 7.434569124527838
Fe 6.734050054052692 4.345563633407993 5.49026806231633
Fe 6.540497191375192 8.005108686055099 10.981255841566895
Fe 6.461819846930539 8.852149259089606 6.8618283756832525
Fe 6.376697183829192 9.154814954554691 4.288784243260302
Fe 4.738997829221389 7.685357131657406 5.405198183496807
Fe 4.937903717103281 5.342597590874622 4.335564452134848
Fe 6.0767554310237335 4.5090172446564925 2.383600971566363
Fe 4.060021065597127 2.2646452654517115 8.04139429906705
Fe 5.321689984045768 4.452554334277615 8.689857819834671
Fe 5.4781630551097145 5.970931252947488 10.574585137924043
Fe 6.061499905392676 7.116727583071987 8.565579726141035
Fe 5.590807483881545 2.881872140639156 4.052917367032535
Fe 4.602958815456969 3.588854778468992 6.050684672675038
Fe 5.845065807173694 9.638277935400579 9.05271447210421
Fe 4.054612968634535 9.081421468796261 3.5487207278321105
Fe 4.702144064599854 1.275212116628649 6.034973182480084
Fe 3.0134630597714946 4.426789556036603 7.534939190335519
Fe 5.607574598854403 7.15708035482046 3.0044988351942035
Fe 4.686768779386076 10.12295264523675 5.811066361009898
Fe 4.342094280271249 8.242914891810742 10.139263036337512
Fe 5.078877540030377 5.767315859817494 6.76031852150824
Fe 3.5310304245922723 4.244769549567545 2.9547501912262506
Fe 3.672146603108415 6.349011835392068 8.872733492487134
Fe 2.356526462826558 2.438328214802946 6.380097307406158
Fe 3.332839303706915 2.226615802696741 4.275922885350804
Fe 4.077257303617133 8.390381247764248 7.613811078484877
Fe 2.5380286887285113 4.518529905960579 5.078077610101205
Fe 2.624415723010507 8.842910341471606 5.512335329622861
Fe 3.0948612132854936 6.7808489940225565 3.9737935950186034
Fe 2.7246392572323037 6.585148845929485 6.479823394789427
