54
Energy = -382.9374983 eV
Fe 9.968797587138162 7.444083025834887 2.982821268458319
Fe 10.492486032413533 7.882889570763647 5.351146338005202
Fe 11.875075802132306 5.964594483513701 6.062818759533753
Fe 8.307343818376944 7.451212338556222 4.447482355141106
Fe 10.701329512090947 6.479207980722755 8.000327711824557
Fe 9.34102001254056 8.660243940127778 7.598467679268468
Fe 8.887334607065707 9.753973316783135 5.539220281869557
Fe 10.120102656099762 5.678811914777333 4.502514258335558
Fe 8.374021654180321 6.830851642584529 8.84708260111269
Fe 10.192476701058046 4.455090998257719 6.849127033430539
Fe 7.951152681343933 9.465648603417545 3.404769280488446
Fe 8.98545245777961 6.461618082252711 6.375622898939094
Fe 7.434257164318888 10.575195169561255 7.344259690293143
Fe 9.000558999001 4.334128604473745 9.058147017281616
Fe 7.18720794590765 8.998181753760539 9.011886901401539
Fe 6.479331431123665 10.00833537960051 5.2849981891791655
Fe 6.679951843198365 5.820688462185203 5.354615042491621
Fe 6.655061073496529 7.322456976810783 10.666176432470905
Fe 8.049631495373374 5.492687328443493 3.1241702085105802
Fe 7.366073816519458 7.5397586647522274 2.1237065297491795
Fe 5.979929984191563 6.997182817889962 8.257658693668178
Fe 7.47979707516949 5.029229644447231 7.464420979585164
Fe 5.632853216306673 10.76654091237472 8.953130590421498
Fe 7.236595661883651 8.087964137718085 6.563093932636523
Fe 8.38335140640994 4.134285902271089 5.190531795973355
Fe 6.679368856719956 5.103589977047743 9.781798264544385
Fe 8.45672600712902 2.717017298520138 7.194387904867539
Fe 4.799406368238733 8.64985449659429 9.743336719052783
Fe 7.4771008574816955 1.9705684699078123 4.9770611671085465
Fe 6.387219596216504 3.7180110331487857 3.7454827557815533
Fe 5.046710267031287 9.250784475060643 7.288335641234426
Fe 6.640025985399346 3.013734308975852 8.739679930778397
Fe 5.71325258465555 5.987281826335836 3.0792222827160827
Fe 4.897324514142337 4.96380769006868 7.5865967362797555
Fe 4.815637748240144 7.161238184286483 6.050333480688038
Fe 5.962147287861434 8.052307688508737 4.085365579949907
Fe 4.143354515342267 9.444105680528512 4.717464366717031
Fe 4.463850708608821 4.818081413230673 5.0082844827109225
Fe 6.15589196099351 3.3765476307458644 6.2981268079047
Fe 4.482936996602495 6.082814256411254 10.018511280484146
Fe 3.506736221154296 7.240946176056163 8.203511823757383
Fe 4.566807332983803 3.679409299531512 9.783078227584342
Fe 4.8020934552032495 2.2196571615034504 4.791518568483091
Fe 4.037366173723242 4.235756723020407 2.791544185422539
Fe 4.506413909230193 2.3988560026719834 7.758116154567823
Fe 3.4721073686730937 6.962780187766068 4.0126404567176355
Fe 2.0427796766057558 8.820045011270516 3.834572745666301
Fe 2.6893555273449197 8.465988764070085 6.244330229216939
Fe 2.785999488550322 4.684736823647802 8.524275926782293
Fe 2.6823815473934514 5.91681922380089 6.378933710837511
Fe 3.036419788507821 3.497306085011853 6.318227063712273
Fe 2.7124360349424985 2.8210112833128855 4.051737547809573
Fe 2.02484077633711 5.025598169038743 4.219474853537839
Fe 1.107145492349884 7.142087626024702 5.057071546720343
