5
Energy = -26.54686469 eV
Fe 8.863986997115727 9.579365390911248 8.060350444797823
Fe 8.532411226836393 7.7981305831164 5.847022727250962
Fe 8.316857890032317 6.555815611956755 7.749176381733559
Fe 6.987253307438756 8.130722934856234 9.411581877546936
Fe 8.74540229041715 9.061933831860792 10.377918053548216
