54
Energy = -382.00493586 eV
Fe 7.675684989330588 2.657785226327222 3.3088724092427424
Fe 6.096412213899693 1.4104710449692597 5.1723551703771475
Fe 5.0857338908585366 2.5354887678416116 3.099260107448105
Fe 8.187205103595714 2.6731377609927174 6.04769822747049
Fe 6.2978471127076885 4.431941475632879 2.4064186666456973
Fe 7.032769960288953 1.2346385005601501 7.679000220267411
Fe 8.545623260196317 4.896881234531649 2.2872191576920873
Fe 8.894816810053557 4.506126030183569 4.560384603300404
Fe 4.510193353709227 1.326015586812819 7.0615276987493285
Fe 9.620279736503958 4.616689601821445 7.044681805250995
Fe 10.850513868956451 5.742057157469023 5.241342331627142
Fe 6.353913588566557 3.7397508964710253 4.715555268338438
Fe 4.194063769078785 2.7913282145467155 5.313652271271513
Fe 7.9283803767808365 3.277411459055323 8.53365625535046
Fe 5.957831989404351 3.095700807010527 6.990362419311103
Fe 4.951479537675306 6.516129618889053 2.35299383705157
Fe 4.299547685721432 4.7848313315215325 3.8016487961522376
Fe 5.603288787675298 2.8257069812440654 9.309659007188037
Fe 9.488432130873859 6.700891597420405 3.3772507509043384
Fe 7.342222040328076 7.092444560075023 2.132204902101475
Fe 10.17454250522586 7.004051103777365 7.499182183888141
Fe 7.409884024094631 5.007180047482563 6.525838609870361
Fe 6.88401286498974 6.038349350274032 4.162693074498833
Fe 8.802001149419597 6.712467360189495 5.723912620951528
Fe 8.676623724770943 5.339038400259672 9.246040760362227
Fe 3.6640675319388603 8.484300548869529 2.8827488639057908
Fe 10.537398179902436 8.251428106518226 5.1602500057071135
Fe 6.151370965155942 5.1235038252748195 8.494049634971955
Fe 3.7949551275523956 3.6455318705150863 7.783707941905017
Fe 4.964531664984454 5.186783723816099 6.248908465663161
Fe 8.171323650982885 8.528371660665544 4.186903708641145
Fe 2.507634292642073 6.5258643096727935 3.71940324825169
Fe 7.721695450884512 7.042070147637336 8.032199390217174
Fe 4.531770538251843 6.978341330100912 4.7832635761426285
Fe 6.7495337034066 4.52102825769702 10.569376400377445
Fe 2.7129601096652385 4.720818444795576 5.6954257519255655
Fe 5.840466660021442 8.567172727805747 3.6614446521468373
Fe 6.588478982705187 7.57535668141374 5.979779121344291
Fe 4.259786769415581 5.137144309129636 9.808603675258777
Fe 8.680130069686518 8.952247926180014 6.673968662651864
Fe 4.841143605918738 7.165841327434699 7.774469036272196
Fe 6.029273278690881 7.2517619294791515 9.773617866788362
Fe 2.567773947567329 8.84523145387177 4.978317795528606
Fe 2.806134415266752 6.958462839806641 6.233216625556098
Fe 2.8221415982558233 5.775802722970337 8.207537161293638
Fe 4.61262769431871 8.939837014414737 6.2083913905528565
Fe 6.761694459016272 10.038734773068299 5.5624048467989
Fe 4.532601327386862 10.542349148192478 4.5696806851450145
Fe 6.568998818998956 9.153268890661032 7.950675078353886
Fe 3.575808874155819 7.515630609362128 9.802731749158864
Fe 2.478178998882685 8.571939804582419 7.839678461352943
Fe 4.3778536566160655 9.551791896454786 8.752166785543807
Fe 3.02361864914244 10.6179885228052 6.615106829720215
Fe 5.291601296845432 11.13156617998904 7.09863746495662
