55
Energy = -386.39846966 eV
Fe 8.872487314909 8.934605747372485 8.57941824901036
Fe 4.485600895798747 5.168194209682809 7.61072998760285
Fe 8.064608224779153 4.834821148538999 10.846356908308026
Fe 4.9247285858244805 8.710691240184293 9.689260787244773
Fe 8.49173778352168 7.627251571815811 6.501077170761206
Fe 9.143570416647199 7.51050361636289 10.629743798427867
Fe 8.707784524016562 11.765435206003941 8.77254675525084
Fe 8.593628591970933 10.483078939492474 6.813020205043107
Fe 10.67394860025474 11.654227370006188 10.15207129267004
Fe 8.866453401022408 6.178111615545359 8.646542610977765
Fe 8.57463682666887 4.859289519696652 6.693906090423409
Fe 7.107023759772361 8.869765851586983 10.54627197696771
Fe 4.6046638928566095 6.431691385011721 9.665025270655505
Fe 10.428126061116387 9.005855712076702 6.2475227229763055
Fe 5.78310908559248 7.758694785752628 12.000539128689672
Fe 8.491974417144217 3.5906245270983455 8.728780982197696
Fe 10.437443202601052 6.360033086989975 6.232335389635428
Fe 11.21728455943952 6.433458754913695 10.294926057337841
Fe 6.858831451770376 7.6569088544911095 8.33170609179852
Fe 4.389198645948774 8.867909852647642 5.463607207170386
Fe 10.209784576388309 4.198487785561647 10.258948984250328
Fe 6.806975489027631 10.20132917003202 8.783919096805999
Fe 4.199421460048866 6.495900944443318 5.502522566463652
Fe 8.972710999949783 10.186996065821068 10.597227522571337
Fe 6.640123401649898 5.112804354486903 8.667669670327744
Fe 6.441728914112698 7.770985032010459 4.718426177549542
Fe 10.973513814924544 9.142191711695038 10.38556085083823
Fe 10.79048828320502 7.666169679752428 8.269217150209757
Fe 10.262115954993835 7.691161732433982 4.30395989247914
Fe 4.741903394268142 7.675311801361858 3.215618385888098
Fe 10.682162840165038 10.418382929055381 8.211073214350906
Fe 7.408866152700788 11.551256173024685 5.159843392923839
Fe 6.00157404163396 9.97187539327786 4.158843637721095
Fe 10.809747735362432 4.999832424798445 8.1979803970798
Fe 4.914625948498012 11.298103962866636 5.730669678518923
Fe 5.704813165084837 5.529732958947043 3.9169928045539835
Fe 6.514788175395581 9.32170381346533 6.493703911758087
Fe 7.246496785374065 4.057166530090592 4.876560411847083
Fe 6.530899253533145 8.851601695529588 2.2882638312630363
Fe 6.507263443274588 11.901000313697262 7.293116778202764
Fe 4.794107095049385 4.100828576400229 5.57785201670033
Fe 7.0523949985159655 6.599900628381511 2.3872661179013197
Fe 6.493908125385722 5.978370846133509 6.3589341290508425
Fe 8.370125237844894 9.249824539045429 4.653905134413279
Fe 8.705164393939118 8.181586485564551 2.6052113104370456
Fe 6.5039692558408335 3.454771247742108 7.0808485556785445
Fe 8.33312271791979 6.296082544499974 4.477590742276275
Fe 10.387959189643865 7.9372175517712025 12.49849743039801
Fe 4.743620982862838 7.648726901583703 7.506126796856132
Fe 6.783675885522999 6.612687644633609 10.416651762521228
Fe 10.364196593505097 10.329175329172543 12.33054078143519
Fe 4.599114768539055 10.120538031408348 7.747614390698413
Fe 8.260195894592878 8.984504771156358 12.562637077633523
Fe 10.05692564427212 5.609332227728177 12.211941115901041
Fe 7.971845874692854 6.65047593653249 12.60604632872086
