55
Energy = -388.93348954 eV
Fe 6.535331465124592 7.695221972812348 4.387840236350128
Fe 8.840305160679774 7.090338081956895 4.441911724603212
Fe 8.091889072511737 9.642273520450836 4.801178978985597
Fe 10.299050163790278 10.633129822616402 5.134605218583403
Fe 10.064790201605451 8.46394481198842 5.952307041751389
Fe 7.132446956026149 5.446498423772297 5.22328671693092
Fe 5.5840812251004115 6.846785344770887 6.583004465948728
Fe 7.863680252288672 7.521263843011433 6.520559392413981
Fe 9.669207860279391 6.169400426026702 7.145317051775492
Fe 8.576406261213792 12.29102813761351 5.4682857553154935
Fe 11.431471643603336 6.585456295212221 5.612105200111122
Fe 6.051661941131534 9.224536363850682 6.1973151834581195
Fe 12.405472640309101 8.807011282539165 5.86816514535638
Fe 5.409172846426 4.41041832575505 6.840883101500197
Fe 6.49736422534339 11.505930920092649 5.961118784233921
Fe 6.856330113264258 8.525827977388191 8.419376150209326
Fe 5.899827304034522 10.682423114532911 8.154152737406086
Fe 11.088304786541729 10.03436822541992 7.491230580714226
Fe 8.403418349197139 10.183710967830025 7.062939345237315
Fe 10.26311640536026 12.20845066660077 7.0069487170251366
Fe 8.553931686934568 14.167024808483252 7.075711679657527
Fe 9.546084391236729 4.296809696694295 8.689158363363259
Fe 11.731067774390143 7.642461578431974 7.777344595622573
Fe 11.840312306356877 5.36937238312139 8.298955664835141
Fe 13.10972717450509 9.128115121003324 8.928216713672576
Fe 9.397084790353745 8.440198455494313 8.250423888222373
Fe 5.64632818768125 6.133783618649212 8.86360984108527
Fe 4.586489819438439 8.430748269709936 8.62132009101691
Fe 8.111673898278095 6.602705483642624 8.962065717617529
Fe 7.611987667368457 14.190465547194748 9.426667873616049
Fe 7.812245385134925 12.239859490868069 8.126145707435033
Fe 7.45618048778962 5.052217571686384 7.479403589697008
Fe 7.317218162690916 2.9477456707344007 8.222249963163458
Fe 12.561732913766656 7.151622337451827 10.197868798783666
Fe 6.492155902337762 7.6513614260576714 10.621322670809885
Fe 9.968812361169165 11.040471291096436 9.132374008126781
Fe 6.159755833148146 12.204141639327798 10.031562711556203
Fe 10.97627671723947 9.133697578566704 9.804813060403584
Fe 12.349769859304425 9.1027095472611 11.55407730903907
Fe 9.863305358689239 13.598749035923188 8.936976606315374
Fe 10.37001728484733 6.530777512755005 9.606343880842969
Fe 5.564201841454994 9.794651803077182 10.553005904797352
Fe 10.568732936896426 7.635313137429048 11.895665717746839
Fe 4.236620024354966 7.208529088248857 10.592281671230372
Fe 8.827549362764598 8.279920777359225 10.492672233037839
Fe 7.69494057682276 4.524690986511872 10.065711316969429
Fe 5.438551564423228 3.8571900350559147 9.227396441033859
Fe 5.83622964560803 5.420571308201887 11.220443049018275
Fe 7.8323754494089295 10.265376396907365 9.763847510347416
Fe 9.65684514375599 10.256303279992677 11.59741570275297
Fe 7.082915744339655 11.215161678236553 12.009584476735903
Fe 8.318510350439324 6.245329746843396 11.60967276146805
Fe 10.084871117111872 4.744489166090105 10.982914337267554
Fe 8.611576695822457 12.39149182366753 10.652953876679357
Fe 7.6572760380317355 8.974607511713788 12.29397406584904
