52
Energy = -366.88938567 eV
Fe 4.322745081936316 5.065964199786505 9.500637786063468
Fe 5.889380340890667 2.757486603391473 4.245261835673643
Fe 7.052215073266642 4.8357928969432775 4.904272950012531
Fe 5.983235185423516 6.750390108358548 9.637597163999503
Fe 8.378910629951417 1.6066466786464382 7.166976837512952
Fe 6.601077430077892 4.4136943586023945 9.099959783784703
Fe 8.229157983859652 6.423975094044443 3.3099431006180615
Fe 2.527713641731383 2.9778020111898442 6.595504522577682
Fe 3.654508691208093 7.898429292842076 3.6487816886667526
Fe 3.8595081375019333 7.271844798576973 8.527441576135631
Fe 1.9086023660181284 9.353241356167723 3.525457396071683
Fe 9.467604622699252 4.314047329294631 3.670668450200032
Fe 5.084106263212357 2.7221890060477367 9.964583618811549
Fe 1.6665921401521706 7.222578311436888 4.706298517921769
Fe 3.072627206610377 8.840853293407507 1.5128549334274823
Fe 3.1570827576977187 3.107457004722594 4.223080027306987
Fe 8.365473419966163 5.983058320760243 9.33765709857991
Fe 6.594378755331932 6.587544680710239 1.617730864674646
Fe 3.10139204821888 5.176098199474557 7.537092555165081
Fe 4.560507810508016 4.429314462402906 5.548439946903576
Fe 1.9085610111198834 7.126456175224652 7.10033194917477
Fe 1.7219884987142562 6.827049991234984 2.3994014502066627
Fe 7.3974987250263995 7.861776924104028 8.13117767867328
Fe 4.066433976402657 6.850993260878041 5.828456193457229
Fe 7.313077418176458 2.1781048439421737 9.24923054081055
Fe 4.897424603175889 4.399375871083768 2.873144187664124
Fe 9.428115308974066 5.840610958047544 5.269337593087439
Fe 9.244958024864285 3.6859399417938916 6.018172903001585
Fe 5.658525330962715 5.768198657627765 7.358970340737372
Fe 5.595285004257287 6.458867128842268 3.8032011894259066
Fe 7.186616921878353 4.338573364489674 2.584631938361159
Fe 8.879863398800756 3.6280743506917723 8.443394133554145
Fe 7.384665483759789 8.529958972159001 3.4352207854914467
Fe 3.243767002348656 9.043736528224956 5.773102741863809
Fe 3.0659066023431656 5.601764242283814 3.779082256822558
Fe 4.126512989119553 6.569536252419062 1.6974488382824573
Fe 6.740921815056917 0.9087120091597226 5.645880168557729
Fe 5.4030438578897 8.693468932572731 2.1730183457058496
Fe 9.26764969445605 8.25096963102196 4.884452503956185
Fe 8.236636413249599 2.502547452099461 4.440774770574794
Fe 9.366084516095198 7.495738808748731 7.095205977409255
Fe 8.057639584019189 5.429325953260562 7.166313428299186
Fe 4.0585459100274965 10.309238299201386 3.451409454143316
Fe 4.483429502916585 1.8521420118583527 5.8793281534218105
Fe 5.489983626786521 8.900393074964974 4.77154301763951
Fe 5.3738130142086575 8.420636636051533 7.16595451566506
Fe 4.518752903607434 3.341284732659693 7.864829878954965
Fe 1.8211302404782443 4.990454934672344 5.623601679211559
Fe 7.562704643274743 9.36598862927719 6.151864043977397
Fe 5.737600383629417 1.234718268812959 7.823836629668044
Fe 6.701460119876719 3.257711190919824 6.7582685458679945
Fe 7.141525489970826 7.156185566593246 5.6361151139546495
