53
Energy = -373.52276379 eV
Fe 6.789939842815016 1.1027273052968385 6.06389435298083
Fe 4.669255325933439 1.4262266830955719 5.192911362401373
Fe 4.836162211288532 1.0569329711390505 7.552058420738979
Fe 6.554330105896617 3.1747941909394637 4.608001109657604
Fe 8.250846024423579 2.8554178759127145 6.615531337772808
Fe 6.821291320391082 2.162329418515251 8.485549904752647
Fe 8.529543823467279 4.210410630318789 8.693207873216691
Fe 5.676744330157347 3.27057010161536 6.755451412400167
Fe 9.797433566698333 4.829087495865703 6.711445268087617
Fe 7.581426002775128 3.487595767884438 2.5289060057123356
Fe 9.00985528612716 3.9529075912096396 4.5758576532796384
Fe 3.9815128453303967 3.640945390699548 4.814855886099344
Fe 3.2243749595675824 2.733197907069368 6.876587928258246
Fe 10.398852747915972 5.669943336653552 8.953824909136893
Fe 7.2465358808743545 5.671134193297368 1.5935577401677061
Fe 7.4707106676964745 5.506233410290123 3.8831417334828626
Fe 9.12174497284919 6.792679410725769 5.308101662224832
Fe 4.537462058377901 3.0655161460567504 8.910630870541311
Fe 10.902262560517638 6.944273453304165 6.999637104004495
Fe 7.292309793998823 5.080964065653755 6.27506225848013
Fe 6.334900376384427 4.892389822918751 8.679845505879998
Fe 5.374819496989977 4.4170653699415805 2.772705925220461
Fe 8.148605000113484 6.224031303630371 9.98733926045932
Fe 8.342015879552793 6.713755571988548 7.659009727173394
Fe 3.399250616339716 5.852847413276025 3.548733805829639
Fe 2.30141866241206 5.075881522098331 5.681142054385483
Fe 4.207428937990998 5.348988261496237 9.631027998922736
Fe 5.227964123618945 5.57534921969617 5.110352719269048
Fe 9.878600481610475 7.925325029764742 9.231942329351272
Fe 5.675632638351645 6.841984644691669 2.966214769893188
Fe 6.777523417121936 7.450268724184221 5.2450882535645205
Fe 4.100230410752149 5.028055782018233 7.292217527637667
Fe 5.719123607735945 7.102079930898501 9.94781864398641
Fe 7.449987355978251 8.48782021344409 9.1583816369808
Fe 9.497296446554184 8.822972405041407 7.041031257651772
Fe 5.758539847787224 6.983129364467572 7.454199963135658
Fe 8.099459573279212 7.594245288619385 2.9807088583680734
Fe 1.8218056020674345 7.25817906527975 4.536951208104139
Fe 7.162775825200093 9.160558613387195 6.97879511015047
Fe 3.5210200842372705 7.300496692141383 8.4076184667171
Fe 3.9628971580742043 8.24781014030213 3.897180415111703
Fe 3.5791120967794456 7.104376663957255 5.972657347514618
Fe 8.343049697736994 9.254426210261819 4.874114787743323
Fe 5.094017211674816 8.965187494337197 5.817651011862762
Fe 8.936744847649887 10.289004539064788 8.935869787224759
Fe 5.095343953594013 9.135824224451254 8.534591325001749
Fe 6.264941403438829 9.095245803024136 3.6015220756163506
Fe 3.0421258820988246 9.110631649885862 6.9579190105988395
Fe 6.43609991580001 10.747701321848036 5.326047539635856
Fe 6.682334500922115 10.979187096690415 8.772043223278038
Fe 8.491188429211485 11.10984115265585 6.802150238219378
Fe 4.795050957416635 10.98256260907882 7.126000138442697
Fe 6.59359702469267 12.464006513164122 7.019372814123841
