54
Energy = -380.15427169 eV
Fe 3.4898791598581753 0.4011760221897949 4.7664360872404625
Fe 2.824095418925371 8.052540058740517 7.093576319315524
Fe 3.3306769685159288 3.9161922615328097 6.718442721509159
Fe 0.8483386085507515 4.312939256851802 6.716775836254047
Fe 8.013578176349045 7.70706971700086 4.75051280780421
Fe 4.874650881587236 1.9022400116023082 6.485360615214366
Fe 7.2286874493515905 0.7978487762184105 6.3202473380996045
Fe 0.07555756075672057 5.744855787605041 4.697724011971012
Fe 6.936020241708309 2.5995114543637716 4.839156418676004
Fe 7.430447233629487 6.268504115636721 2.9151991506657833
Fe 7.88711656723037 8.49885306670201 2.4853473509245503
Fe 2.2773492498726804 6.077945228534929 5.99801730129639
Fe 5.540261885446493 8.329386261138572 6.422084600670213
Fe 5.101372877716116 3.976741959914533 8.370073715199263
Fe 4.038708483243941 1.1126817104178524 2.4719728287866545
Fe 0.7791516288579325 4.551411020665275 2.4623105204279705
Fe 2.511612895913567 5.5538120002260625 8.242235456238445
Fe 5.272852034353295 8.49885306670201 6.633059606457086
Fe 6.1163774767621835 7.4189123977118685 1.2321376192310833
Fe 6.14360063555912 4.78437869043729 1.386929903185931
Fe 4.049093466352417 5.233973093978072 4.789233993605163
Fe 2.088184061559995 6.184169943571081 1.3128287236092873
Fe 2.990044857149503 8.242817160091185 2.75270430144794
Fe 2.279207339355002 3.8700883499039715 0.597628480101869
Fe 5.850117829746828 8.475417413473041 3.5725808110200337
Fe 3.3052788970130575 2.221704166707999 8.324632100265067
Fe 3.617489562645902 4.229945902232959 2.462071912967437
Fe 7.977402383464315 4.889876064577031 5.082411299115413
Fe 2.1114212475162675 2.4367431224450864 2.748799767551953
Fe 8.070866374217454 3.7158945051927366 2.8229655515292733
Fe 5.721957490370277 1.4491218760056253 8.503006218276877
Fe 3.062575802713778 0.18668014751838938 7.13574855240618
Fe 1.3670515253150912 8.123454944870057 4.84275938069553
Fe 5.771930266552287 2.5648793067205173 2.6001804716575214
Fe 7.824576380375701 1.3023991903742573 2.968934151035373
Fe 0.36746407500401035 7.250727772760605 2.846857461322191
Fe 4.574564330313522 6.238406284620742 7.097218600393669
Fe 5.728355883919744 4.248590810670578 6.112363990498141
Fe 2.293513851645685 6.1983960326310745 3.577459436344908
Fe 4.218963487739565 5.5856564521859235 0.3844346188569264
Fe 7.239927487899857 2.69987527556122 0.7563021479747793
Fe 2.143724254621465 2.022309319942636 5.883528690760169
Fe 1.9057576749269693 3.990687104659805 4.5568368412146185
Fe 4.681957727208165 3.0066419300935268 0.5967965223018931
Fe 7.16959411006693 2.954380074952086 7.370297322463975
Fe 5.792992823981938 0.5802551447739238 4.270101317732324
Fe 5.960282775133298 4.5499254873715 3.7083491791330343
Fe 6.167121351472894 0.6482828054895563 1.413548822849466
Fe 4.695976765208514 6.517819342532616 2.74440735294982
Fe 4.153559033608753 2.76996476665213 4.401082571681254
Fe 6.963973747917981 5.967266353671444 7.13476589123949
Fe 6.051410266702745 6.5514858881177975 5.035595683713156
Fe 3.841252684733759 7.7169677675021635 4.939767299853163
Fe 0.3533166780180186 6.889937209316735 6.757442252924739
