55
Energy = -387.90767514 eV
Fe 9.361312397914677 10.69713275148974 3.2592597618846297
Fe 6.895586222836529 10.702053542424792 4.767056078829651
Fe 8.507755063123675 9.069475088752636 4.4106479599488555
Fe 10.443745030934467 5.486324646364013 4.801744955017175
Fe 9.287259654763039 11.09542233685423 5.693076491985403
Fe 7.426156886292622 9.577071495171635 6.7126497708218125
Fe 10.459833984761332 7.679700696452165 4.075517736243149
Fe 6.347776001772008 5.536329313239773 5.945311576870827
Fe 6.469729603248159 8.111141201636453 4.892345446389297
Fe 8.402203543667989 6.657151842191034 5.070521409268548
Fe 5.18621532012323 9.837304633789426 6.4826918701810845
Fe 11.11652472564517 9.726817617500533 4.795389049638581
Fe 11.5475411352147 10.006111386647996 7.1119025933275575
Fe 8.77742494023204 4.392872867620813 6.236836568465375
Fe 11.701868257272544 7.433584119520833 6.251235721399124
Fe 7.278909191469327 11.958499341882348 6.931729914942725
Fe 9.547346249919807 8.561743604449621 6.387314074012843
Fe 5.7893843208949995 3.862476085283841 7.715264306629182
Fe 7.356716017863436 7.1954705529519565 7.121025534233376
Fe 5.937132852567776 8.580560115835782 8.557165294127348
Fe 11.412803311337548 4.77423426312503 6.690093471999463
Fe 4.903359200355378 7.425172179445014 6.488957323299899
Fe 7.833396579014111 3.0262650738650603 9.13519197184725
Fe 9.630546777238594 6.331920892402228 7.292126727037873
Fe 12.944776545527137 8.22965291781757 8.334384334195894
Fe 10.62939345266243 8.250047851997929 8.509210385714729
Fe 10.841359598744875 12.083836002811772 8.91574103353644
Fe 3.7280336116541224 8.317215866054386 8.443448419405735
Fe 11.474130374121486 9.988588884310857 9.740947211488704
Fe 9.896940415655356 4.208599120509857 8.63490574956771
Fe 7.655169128874885 5.039382445651344 8.15694562208406
Fe 7.325927429426302 6.820039200491796 9.617410389589967
Fe 6.977981158357523 10.736645038415126 8.957470711917114
Fe 8.380589753060013 8.64062488783565 8.739274119842689
Fe 4.628103729540667 10.720244445780036 8.62835149254206
Fe 11.861371836086272 6.072742619769511 8.6140445524133
Fe 5.2699647340299824 6.142139517704566 8.392502646670959
Fe 9.366211310577958 10.640693974768997 7.940866346850465
Fe 11.800179483975597 7.555722657067778 10.566858036392336
Fe 6.048700031550713 12.839966479762618 9.143846639171878
Fe 5.658915448645283 9.560846283982773 12.415555479280139
Fe 4.185849774039493 9.284543822483922 10.55706048872108
Fe 7.000558717058186 9.073855024859448 10.68110189766489
Fe 9.662771105818809 6.314830737490259 9.7398695220772
Fe 8.484835229674555 12.590699107350218 9.099120714975598
Fe 8.365374117940451 4.683986439758014 10.80545395082641
Fe 6.133017692524603 4.797313513764331 10.178566759330968
Fe 5.29706597677353 7.219954088529776 10.670231359901264
Fe 9.594357279628257 8.423451115695842 10.972015587728276
Fe 9.19952356573808 10.661161542221693 10.392983193062166
Fe 5.123738289560608 11.363457897417259 10.87299017817324
Fe 7.69988928630332 6.964415940703442 11.880996490640502
Fe 10.053157658254703 6.397880981032308 12.061732727916727
Fe 8.209341626717226 9.554442466401948 12.585853186972987
Fe 7.3554496934122024 11.571388803059829 11.398410487341177
