52
Energy = -364.74365488 eV
Fe 5.090818696492253 6.254264317510266 6.302668968677785
Fe 2.63835947229316 3.6979211195996213 7.1061665099614695
Fe 8.62208660693085 4.2835035460162825 8.174634443675314
Fe 7.90120889051259 5.242418368742481 10.340890059864297
Fe 4.111561070363617 2.621619647140127 3.406287331384866
Fe 6.57174811852197 3.584599214690865 9.345415118249935
Fe 9.255059199504089 5.81324596848219 6.524473723154261
Fe 7.2075414755251765 8.284302293980303 7.831934751490655
Fe 5.064339694000622 4.0043571391433 7.48821058947865
Fe 9.409341663834415 8.214336068818337 6.942713493412432
Fe 4.2922920535788185 4.346836717041809 5.009840571496659
Fe 5.284544166636511 5.448927785480744 9.932807917207473
Fe 3.6040001989791666 5.7597294080847945 8.199774126629277
Fe 2.0337586831036036 8.462011564392423 3.1278383497003013
Fe 4.281420077215322 8.936853409546684 2.4521426723865596
Fe 4.989496474581437 7.601593105475069 8.547351156436306
Fe 9.593507990072746 7.489078441137105 4.701477781089926
Fe 6.709199920296347 9.024079710764617 1.8161204755775708
Fe 1.4978746669951897 7.904952852118594 5.335131623354149
Fe 5.581859465150586 1.6109921420098883 8.448785638042276
Fe 1.7412503167994322 3.80953001940998 4.823108826343719
Fe 6.937125663835934 4.460558703836677 5.964597626657782
Fe 3.2824936863218315 7.903143082180066 6.7994159137806705
Fe 7.409854941377893 7.0774681443825775 5.678664343993526
Fe 5.491834184187249 8.516777969513173 6.268492488039937
Fe 3.5083243708529888 1.653886334176828 7.683544843553188
Fe 3.0063870883767883 1.9264308269877266 5.3582671477730495
Fe 2.573431548223631 4.55240633837005 2.793140274528833
Fe 3.6384287341507715 9.312922596899908 4.832693779184283
Fe 6.357818097315277 3.4157059509463195 3.8435836984332905
Fe 8.458155889689012 5.24339101505941 4.234707461617164
Fe 3.995212609503034 3.317387138262798 9.412915809247831
Fe 7.253194381475073 4.883677951868498 2.132083416049789
Fe 7.581775016642213 1.9115519060895052 5.077872266247486
Fe 3.1135198603760355 6.760577172719183 1.8353776119483085
Fe 6.035072488692131 8.51581825873438 4.047386786413663
Fe 8.673004770645386 3.123725837793918 3.354144333309698
Fe 7.704447101638972 9.49929415149971 5.773065611371683
Fe 6.820161613458528 5.84810904905934 7.984469627180064
Fe 5.3368355356172215 2.2335308675052556 5.811883561671306
Fe 8.35450884855669 9.28962621518057 3.593346036960896
Fe 7.876794895356548 7.1205295787709675 2.895376304655468
Fe 5.6061905074647065 6.950837090216593 1.9810859714268916
Fe 6.0960288303840855 5.904032928478463 4.133613526829183
Fe 8.979152254571906 6.744475736084949 8.828731172539518
Fe 7.342773173486462 2.489948453837516 7.283763425692125
Fe 3.8698181761759347 6.895146605952827 4.117299179992637
Fe 1.3064968461264688 6.205824660109568 3.7354230591626956
Fe 6.837271666013141 7.283649020648114 10.046351399520777
Fe 2.5502699602928476 5.794065996607527 5.8741643112145345
Fe 9.181154439346217 3.4943878279426905 5.807724079311912
Fe 4.83045812282437 4.765223955066834 2.4483050084443354
