51
Energy = -360.95975938 eV
Fe 10.224583274552394 5.003614801741336 5.096924464866534
Fe 10.687041129198255 7.692628779340363 5.388613475620974
Fe 10.209401320848723 5.779578101458659 7.3883043637771655
Fe 8.818766549910086 7.92543361883646 7.304068361974249
Fe 8.887901637518425 8.754769339615619 3.5797487203090768
Fe 8.686369807642016 6.532996715715462 9.187602269251096
Fe 10.153556365864045 6.7096170253189555 3.250259654391903
Fe 9.135299400246922 9.662970088347663 5.68383348446723
Fe 8.50191862724872 4.133686282744117 9.176905772101655
Fe 9.444705292971893 3.421493922049933 6.97617930319589
Fe 8.668842732820462 6.716142539240884 5.237110640089466
Fe 8.623102893647603 4.875125984841125 3.024554052293301
Fe 6.914938845396441 8.405502137562472 5.24454617490484
Fe 6.564305523167762 9.170114141787073 2.8259455817071606
Fe 7.196802457393893 9.727431392128384 7.224616772851726
Fe 7.000728153015282 8.309114592644322 9.33140396831355
Fe 6.568597237414359 7.161496832548779 7.448972534072577
Fe 6.922254754459212 10.573232629576784 4.690671409352647
Fe 6.4409444183029905 5.494988332833445 9.250297980769215
Fe 7.031538412411576 3.1973876796232092 7.562255251053851
Fe 7.49361383653455 6.956722695561927 3.072079568525756
Fe 7.950047878443225 5.313804168150631 7.06230356581801
Fe 8.005394989750645 3.9222835803844793 5.055121153446656
Fe 7.140426837466246 1.7111728004944007 5.7228329262418915
Fe 6.619285556977114 2.5647160295703286 3.422087423561191
Fe 6.070018601781094 4.805434201199283 3.1909786986114717
Fe 6.419547333537504 6.005813658364258 5.265303020070969
Fe 5.16787665270287 4.930881904127485 7.269248914221543
Fe 5.0157678349119035 9.071774440722452 8.204825404557191
Fe 5.163288254915974 7.130885819646097 3.523612884029031
Fe 5.707398884782159 3.645983522847993 5.428482025987979
Fe 4.624488692788782 9.302798257217887 4.239722610087993
Fe 4.82212070505981 2.2236277978509302 7.229515256959135
Fe 4.260376074468894 5.3996772582427734 4.809643233600979
Fe 4.955132494815028 10.189631342835183 6.288520882280753
Fe 4.71411805432801 7.571380881515147 5.989158443811318
Fe 5.375142190357268 3.311711026010931 9.306684210116126
Fe 4.800164615460371 1.5277090168994847 4.860693164212381
Fe 4.370381799561591 6.9148773935009284 8.445289784266865
Fe 3.381504894776267 5.664287745342593 2.796275848478538
Fe 3.9051704426331106 5.118112685107575 9.80607016062587
Fe 4.082477139430867 3.3464959243280172 3.446636864255158
Fe 3.0119196385379805 5.899627814182895 6.713006015023662
Fe 3.071009210300068 3.7353989340135665 8.235518798246941
Fe 2.748241909467455 7.393365559594078 4.614280740703413
Fe 3.2385061656705183 3.430653877349055 5.801205834825594
Fe 2.7944470663916823 8.296324629998905 6.970071424158377
Fe 1.835995534694765 5.086828763727758 4.609388471619127
Fe 1.9618477365140727 6.125197813394956 8.664703092090303
Fe 1.2027369763758207 4.469492618593662 6.928053859303116
Fe 0.8872024056763442 6.843948754240134 6.2757387948058225
