53
Energy = -375.25014077 eV
Fe 4.612767494353258 2.9134203388171787 3.3997019687873893
Fe 3.660574455817387 4.5591500043907764 1.7511943729171238
Fe 2.447510642266959 3.9698265968902144 3.868635316622411
Fe 6.064711313437098 4.552944469563751 2.3168280961689334
Fe 6.494611860206299 2.0831007792782095 6.143547161544009
Fe 6.319442119024264 4.063239653246604 4.740238269758198
Fe 4.286711623864514 3.4014254201270324 5.775403519503278
Fe 8.173975481207192 4.7592290547815 3.5659537618523935
Fe 8.493199287777035 3.5894168200833727 6.203934874532659
Fe 7.493276950927142 2.4596988584407447 8.321718235236451
Fe 4.355790052456866 5.190444951014036 4.049208174020079
Fe 4.95149595508014 6.7716108806399244 2.098417558680249
Fe 2.693835528759965 6.458612191014366 2.7690305312313783
Fe 4.951995894281367 2.1991718663416853 7.937734698669674
Fe 2.030252005554481 6.067492968835743 5.10058507835198
Fe 7.413466182753698 6.426115309319381 1.79064734664627
Fe 2.166952978885852 4.156964845422185 6.393987296097892
Fe 7.878842784903498 5.87540762939155 5.817976555726668
Fe 8.896216635380815 6.929052840260259 3.6097883162237494
Fe 6.369650327222778 6.570918418256206 4.114263357360241
Fe 7.975546408354981 5.083307721257966 8.388430673945201
Fe 6.187707877826728 4.226461878269665 7.0240986733606645
Fe 9.659745434035015 3.3235182816821003 8.27466588664919
Fe 4.335836995905173 5.808237523032532 6.334166700917862
Fe 10.14937677807397 5.158245223425376 4.924967687563061
Fe 3.9750377877869214 4.27782859061185 8.079905493078385
Fe 9.924766902552063 5.465280311366964 7.22065633662351
Fe 6.7358254115477045 8.505409556183285 2.7460930267001236
Fe 1.829448172878884 8.3298088687925 4.007165458323246
Fe 2.317787867129498 6.01864087523738 7.753341549734144
Fe 5.9057767901158895 3.8624992690336972 9.482415887493412
Fe 9.98954010330396 7.412245020123498 5.828108678496178
Fe 4.085031212865443 7.495107938762671 4.513729263362175
Fe 7.912294410927492 8.479851438693919 5.067787035366488
Fe 5.873120874244524 7.63550406181065 6.306199152091615
Fe 4.128721121021969 8.954711780976469 2.7013712847034506
Fe 8.227712679605816 3.893693855465567 10.33540934649971
Fe 10.102516428507805 5.482084666739089 9.54393078921332
Fe 4.216837508732557 5.865083510968919 9.726302044633474
Fe 5.988076069725955 6.201700842766685 8.268246658015443
Fe 8.046831453160884 7.5664900133819755 7.40325336500826
Fe 2.6701104383000587 7.986682625316706 6.350078678458483
Fe 10.24389645273378 7.748120696210206 8.260933642490158
Fe 3.445180124001365 9.83689321845294 4.86761758702596
Fe 5.741010502218361 9.373973530645946 4.720224507387778
Fe 9.419092570118737 9.582098166892463 6.654843400423401
Fe 7.029367919549662 9.87056122652662 6.897141429187727
Fe 4.053806261868943 7.590104758764459 8.18357030949417
Fe 6.637495158069778 5.773543295529153 10.552457136684463
Fe 8.332830751062374 7.104077124011358 9.668521304899357
Fe 4.603914325891907 9.556741085117734 6.997589913720738
Fe 6.245432431227279 8.504387461257442 8.852928238579882
Fe 8.494409140713014 9.445728251993234 8.893060776918952
