51
Energy = -359.10278587 eV
Fe 10.646390389691806 7.499931338775988 3.4645589957100555
Fe 10.856914932610676 7.354173466807557 5.798744829297577
Fe 10.153549123103113 9.496394882635293 4.962215170485196
Fe 10.225078453455112 4.043871180914403 6.583220418914329
Fe 9.734265643907504 5.4516504733035855 4.749565452344249
Fe 8.647063161542 3.2494933528729724 4.6350867263515765
Fe 8.802192937078091 9.015371254092228 2.949516438407452
Fe 9.234128511983876 8.56544724434678 7.213048089037433
Fe 8.876076447161687 6.192784861684824 2.6746399004106336
Fe 8.4972431198509 7.76740615282957 4.862166832416364
Fe 9.028514144749789 6.170147180531834 6.933958991809093
Fe 8.778652042400838 2.205456416818475 6.8279894628323925
Fe 8.932943971064226 4.326005938879737 8.567320252981546
Fe 7.841005859405417 9.883767036396888 5.761491148285648
Fe 6.218242165416293 3.6232733825307104 4.197641972295447
Fe 6.4955570917147005 9.545484393233583 3.8038260950675324
Fe 6.771041846977154 5.381456090059701 8.490005013948489
Fe 7.547464918834913 4.2625472362723125 6.4228670540735395
Fe 7.300245971454595 5.745808485712913 4.558391232957892
Fe 8.230548763341965 7.168131913429028 9.01440676299446
Fe 6.9109153770722 7.396919209630742 2.8258909552055482
Fe 6.437204613148112 2.150533932120601 6.011428650646691
Fe 7.030719949967806 7.479749204199614 6.8285993824613564
Fe 6.139230981961066 5.270676455385124 2.1528081039815983
Fe 7.149799393532428 2.7565169890292984 8.45675995035848
Fe 5.518782518210045 5.589757770239764 6.246676182980327
Fe 7.119283579786069 9.508797517948375 8.083222889012339
Fe 4.870809499025133 5.6907851355492 3.9675533771043505
Fe 4.694378361426285 7.866689272967898 2.4289655222936934
Fe 5.924435604361859 7.8863288084393215 9.262738190010207
Fe 5.149659234320183 3.5774695631398608 7.476839590585003
Fe 5.476072628550876 3.803753192413212 9.995334640496072
Fe 5.5523941210848955 9.670167111281323 6.293920986115567
Fe 4.1024231720054445 3.7144484752593585 2.743471865343789
Fe 4.136204696167692 3.650429936053858 5.335091171353199
Fe 5.3458369758838495 7.82463219931136 4.816897315016071
Fe 5.937999516315563 6.063513006620496 10.661245958379892
Fe 4.7213281160025415 7.589036408255157 7.28623218263247
Fe 4.326589468761175 5.6229675195335895 8.49346650752086
Fe 3.5916909417914606 5.833451143902341 2.0799800403151285
Fe 3.2779250198861423 6.245829031701144 5.7803261045509275
Fe 4.039113971628853 9.438489856899126 8.352145225126307
Fe 2.563299124341347 4.460305468237026 7.096394056922728
Fe 2.86278229234677 7.443402645784092 3.829268138709884
Fe 3.366601213756563 3.3672701584171136 9.09641820537149
Fe 2.5197245142161773 4.872643391892368 3.877275459028896
Fe 3.286971576180116 8.772182867318461 5.83904851338224
Fe 3.6858424783559665 5.1845085045391555 10.86786591148007
Fe 3.608568568909741 7.4122086200460915 9.846369572574421
Fe 2.3283626620172524 7.233717196710757 7.7092036306547085
Fe 1.9779072761485834 5.44775291722292 9.258849704388679
