54
Energy = -380.03933073 eV
Fe 3.1416823032838734 8.888211676213034 7.560975405711534
Fe 2.7881065774329046 6.57987506913708 8.623763728227749
Fe 1.7316072771714017 8.480238724895447 5.769149828588022
Fe 5.548005439526487 9.417726611083792 6.8644792972739035
Fe 4.7576221349256755 5.291254514055497 4.691921439881892
Fe 3.056517041322081 8.655096480228897 9.976264124729976
Fe 1.5881352290618216 6.294258418101805 6.549944107606304
Fe 4.810483260552808 7.4672099295075 3.6497452912219326
Fe 5.856281998271475 1.697314128071988 4.1511215461377
Fe 4.754236814695804 3.1221743144927414 5.711298634380322
Fe 6.756560725499868 1.7709577560541008 6.374130928054348
Fe 6.8408458089186635 9.36446340384616 8.921000619412641
Fe 7.94124258476184 9.197564295961424 6.602437547455202
Fe 5.6764067939486855 3.958172076323057 3.002028692449245
Fe 5.062232960317385 5.569973601798852 8.785153085197482
Fe 5.65827734992923 3.2537446338570817 8.027652107890962
Fe 4.147759043070737 6.698618736986183 10.708600092810093
Fe 5.3185457254754995 6.009580837268165 1.8312806474019192
Fe 6.220199396056263 7.379358260032291 5.692303278959989
Fe 7.219648643704979 3.670740547002053 5.056534965787653
Fe 5.362088421941488 8.940753061033032 10.860263109982448
Fe 8.134107165337667 3.520534946292696 7.371564052189659
Fe 3.5639034379471464 4.6255982514370135 7.2278572250493385
Fe 9.826118542133068 3.981542502628194 5.848437228758502
Fe 8.0821099290716 8.676052234898854 10.72344394434604
Fe 6.52867185245192 6.9548464821315745 10.228149214597119
Fe 7.35249690283023 4.974272830492521 9.129547474809156
Fe 4.91584872784093 7.884048051846725 8.511166786856103
Fe 6.138744358188284 5.145021615930268 6.754549872372466
Fe 11.315100594962066 5.701955512877347 6.828622877969408
Fe 6.965294619047134 5.907009530998991 3.8439488107330813
Fe 10.99012300958604 7.272164838970944 8.661474402850109
Fe 7.6647686473835455 2.793569266044119 2.878858473495809
Fe 9.375192988337922 5.48874871146595 7.924932383645703
Fe 9.082457944338454 6.6762562352650345 9.981928786633338
Fe 3.9511757726205974 6.868998905856636 6.372487401523308
Fe 8.979124833181556 4.648227413598402 3.6979320908030164
Fe 3.7026342883665264 2.8950528935376005 3.6027333162100437
Fe 2.4805712995389686 4.554126319833957 5.100022012040474
Fe 8.327651195737662 5.855166519986901 5.800920386142266
Fe 9.312484173468926 8.920388006521438 8.689050655006719
Fe 5.459497318848558 2.1435612307893863 1.7003706441726483
Fe 7.401063093702994 7.196004160544882 7.9004670621671576
Fe 10.29112124346907 6.294081960651748 4.684175726096495
Fe 4.530668052302291 10.267975884511314 9.110549260676736
Fe 9.800221891864414 7.662315856347655 6.642299962690303
Fe 2.581609104660909 6.9140012013476575 4.274224195166845
Fe 3.2984613381512022 5.139202319569845 2.7936300437759525
Fe 7.518902494099216 5.065023569782909 1.6728651910969599
Fe 8.379791810409046 7.7990702036462025 4.581473139605008
Fe 9.058107145762607 6.658530743975605 2.5780374338325056
Fe 3.94068187421027 9.028369568530096 5.118699078420088
Fe 6.929274334877743 7.743526818701842 2.406799135350791
Fe 6.3813699754885 9.322324216706296 4.457793448413678
