50
Energy = -354.66711069 eV
Fe 4.83632265060535 4.981215332460569 0.06117190816789668
Fe 7.770740411291418 2.635673626237692 2.0616881071149167
Fe 2.874612146721484 3.927863057300524 0.9817177072731293
Fe 3.2720371143630262 6.309324579644235 1.656634591507712
Fe 5.3665945513786735 2.8239180377277218 0.9018180310002349
Fe 5.787681840966772 6.791881495383386 1.5932364010215543
Fe 7.060973344760535 4.722663932179542 1.3566286146003348
Fe 1.1517556818835695 5.520241822215759 2.513323486594674
Fe 0.9583732715133467 3.1400870854222585 2.3555506836103937
Fe 5.7811959519149045 0.6108314207617506 2.3920705246124765
Fe 3.6054584114279606 2.065326860518329 2.3776808372473877
Fe 4.8509569879183605 4.652383263989388 2.431309707763262
Fe 2.0196173701479836 8.006213037197453 3.3703370857801276
Fe 4.3018961607072725 8.32080881519143 2.658527400710875
Fe 8.121444937650775 2.0886705239615226 4.336196208067836
Fe 6.655791950207942 8.510817977548427 3.651900657677295
Fe 9.097016629730172 4.39855734218803 3.1857195202006023
Fe 7.989472121156077 6.545775044225092 2.5950776955562302
Fe 2.7599269778219506 3.864663839614565 3.4879114994227245
Fe 3.232068696689198 6.2054309154887495 4.010359754518827
Fe 5.729553424511251 2.5191538425001037 3.3343835389316063
Fe 5.690735965975517 6.5050217512898865 3.9782545628115207
Fe 6.975557260348386 4.432102633985072 3.80597129474166
Fe 0.7219375689248312 6.460182580551468 4.7319643817400525
Fe 1.5991624650298453 2.1929695359892465 4.7179192098402485
Fe 8.21742753117055 6.38783868121466 4.866172968866885
Fe 4.672026657585184 4.368938387546286 4.74149474454347
Fe 0.3568561829388582 4.164749226763844 4.604861433915077
Fe 6.251357030657457 2.9533554802084883 5.646925824305039
Fe 4.064140191192237 2.089174925374322 4.884517320305055
Fe 7.805495815738115 1.641373250636637 6.796154536017763
Fe 6.171844288188582 0.7090983471609984 5.074825663474368
Fe 2.319133475097215 7.275549250212619 6.188217950794774
Fe 2.486674564129867 4.537457731486243 5.904716761710917
Fe 6.301577974576646 7.700700178391351 6.060494268159254
Fe 6.640583604163515 5.261570861668045 6.181413262942549
Fe 4.197005062310435 8.388456198145292 4.979389389241771
Fe 8.567233211996335 3.8777506767041037 5.817328269316847
Fe 0.5549354979788218 3.1699547957582053 6.8279790043669415
Fe 4.435423569858732 6.180554898842122 6.1640912103784835
Fe 4.522212865919609 3.85552019613605 7.120284517731632
Fe 0.7777765044388658 5.517182226528347 7.112697291813186
Fe 5.29954996430848 1.5588063309786262 7.247902977638662
Fe 2.692334122066469 2.1273366927800486 6.883474597982358
Fe 3.147519288140536 5.878915773902973 8.1837429854592
Fe 4.313134659103719 8.038011991802334 7.546156438137104
Fe 6.8361079911310645 3.6321150503329407 7.97871829338797
Fe 2.293835118889147 3.772318061303893 8.471479510697483
Fe 5.676075227480421 5.986092128637722 8.282172861035704
Fe 4.669741336949107 4.176285933568462 9.368320136921858
