50
Energy = -352.34305836 eV
Fe 4.880555236686802 4.554537811414141 9.94592739991802
Fe 4.855420193572107 6.90224748805609 0.6102189555425156
Fe 8.245706750766566 2.0787629566182084 1.1784263678652456
Fe 7.414491512352154 4.374697818063676 1.0813098513395236
Fe 5.65280427728266 2.440337982780117 0.7868347176993767
Fe 1.2230395604713884 3.9619265497273473 2.4772707547270665
Fe 2.8295447095504644 5.388403277571516 1.0481114826560494
Fe 5.547346660141999 8.410037477807128 3.0138149475789247
Fe 8.377680966390695 1.3411581260199805 3.572367108037912
Fe 3.5469669446654453 3.2012392448679625 1.8191850555357696
Fe 1.2099935177054453 6.29248357597764 3.2595815700132453
Fe 6.793146226122864 6.7456184211810015 1.9387424166700238
Fe 5.223263650677674 4.915247675079456 2.08095802848586
Fe 8.90742701779189 6.057233798661929 2.836537646049985
Fe 6.510795482523671 0.5201685470016086 2.156522260301353
Fe 9.030541369340352 3.643058747442755 3.0262590425800484
Fe 3.5400235536049047 7.175319579489495 2.4890785423986106
Fe 6.698599201820317 2.7603075777467665 2.823351849961076
Fe 0.3114180927067906 4.213492436901402 4.754050986393884
Fe 2.50593010515346 2.7619257814616383 4.181086643155713
Fe 3.1259091947594144 4.976035664548433 3.5288629550178663
Fe 4.394489660325372 1.3274864812055045 3.04717282785002
Fe 7.066496010970812 4.919687796818167 3.6217900779922187
Fe 2.7726863847150525 7.457360147068058 4.816952691385544
Fe 4.956565790474813 6.248912269888856 4.193827905329264
Fe 4.991508631232727 3.4303945263997284 4.1502650322227845
Fe 6.150063529061561 1.1877093263964016 4.717236203947482
Fe 5.325998199309055 8.21015535471878 5.512088919090964
Fe 0.2062273483993887 6.618417062335345 5.495234395998444
Fe 7.649911732024801 3.1486460901302324 5.197322786364284
Fe 7.1267032622564725 7.112576657674054 4.412394230304473
Fe 2.1364376380628585 5.379899634587591 5.6139025780852805
Fe 3.968496130312149 1.6083012382700135 5.6835981522494645
Fe 8.671236945519727 5.43537764684008 5.250121139036459
Fe 6.172554060328371 4.99459964192672 5.794150954443934
Fe 3.955606259699196 4.046832749024894 6.019253619596476
Fe 1.6978162591248454 3.071028367656589 6.539247372714378
Fe 4.2913906527098336 6.437301290456831 6.593380423099076
Fe 5.853965135483035 2.6800835270116905 6.769939239506851
Fe 0.3095996935548579 4.984445909346245 7.36842053341693
Fe 1.8862212862997847 7.133304053537338 7.349644293245994
Fe 7.684713360858015 4.4721924391537655 7.352462339048728
Fe 2.8098784246218793 4.8776125117634574 7.829721342911442
Fe 6.794534420650915 6.845098161926637 6.9109204363502785
Fe 3.704476542313782 2.6381616984437835 7.981550899808548
Fe 5.298921852994241 4.683986261922648 8.106370225462504
Fe 1.3229655444719555 3.4212852122605324 8.984195646781044
Fe 3.77565491019486 6.666265662380083 8.890395773965428
Fe 1.272083891285438 5.888223292635087 9.37824139441349
Fe 3.36766018215915 4.405882413305188 9.94592739991802
