52
Energy = -365.23154356 eV
Fe 8.087282057985583 9.275361438515196 9.409614880370226
Fe 9.50213179470317 8.534258242162513 7.459605255452391
Fe 6.511276338395885 11.019173668789868 8.956007297502817
Fe 7.214965503158853 10.20511316802401 11.26163974885042
Fe 6.689660552907621 10.578080756738728 4.47376564249835
Fe 6.001892403188295 11.442390835114656 6.49108529107077
Fe 9.716921023222582 6.056336578874864 7.201797572968179
Fe 10.41904974817264 7.653769245140388 5.50779553340716
Fe 7.436044164430565 9.712803331471143 7.253009764245999
Fe 8.451427930379655 9.069439451052043 5.217347798547075
Fe 8.568964776656964 7.0436188248342 8.990440520228262
Fe 8.688049857092055 6.731344966666141 4.243445358920675
Fe 10.470830501925263 5.194317074030045 5.091634338382537
Fe 6.299982226841756 7.68515116121932 8.421323917541763
Fe 10.600163531882686 3.7944125274486886 7.094305268103901
Fe 7.636398361457821 7.157805544413233 6.472902192603932
Fe 6.9157489168546125 8.234423469397692 3.494701262899116
Fe 5.158273546027617 9.650944217980589 2.784265929822468
Fe 5.504805736019514 9.07459802791797 10.180489415811156
Fe 7.3964484018493035 7.814101288481667 11.090371940473691
Fe 5.030502817823697 9.699576432532366 7.8018809797906385
Fe 4.353564923266531 10.390108140284438 5.116026633794702
Fe 9.459454102380759 4.750920995352286 9.158052720482734
Fe 9.244208498025039 4.529025729928551 3.178575770408042
Fe 5.925272504628096 8.743950970229296 5.733141165842103
Fe 8.204182660705603 4.880404797598905 5.779271828218822
Fe 3.3030979151354947 8.586994730307346 6.568254324273612
Fe 7.843932012582195 3.2448804511607108 9.952127853602432
Fe 7.044225870144929 5.240531977697611 8.31010727900523
Fe 4.272438966081235 8.03325539503076 4.2559924276542604
Fe 7.761422771075607 5.414509581331707 10.711720172829734
Fe 9.17866500324557 2.9441561921527812 5.08448715102476
Fe 7.494417667471686 6.029573841288457 2.2621569332161378
Fe 6.211978717951173 6.297738692001485 4.4970691873801005
Fe 5.557698360136223 6.419700603482045 10.289933621598303
Fe 5.908448841834148 4.6200917183391255 6.245010559190939
Fe 3.9394081882651135 7.608020096879971 8.798870597762766
Fe 4.800010560191671 6.747983905925214 6.505997113488508
Fe 5.302406658975421 7.148571034775161 2.209304341621618
Fe 8.532168764408606 3.2895536085386445 7.485979235221947
Fe 6.237966789629627 2.9491330496603285 8.18892750563751
Fe 2.4149104916974213 6.899427248164768 5.278632269182661
Fe 7.093606570996952 4.059355897941268 3.8693335035161462
Fe 4.576592283745496 5.108607673087362 8.380774185595897
Fe 2.459837506934093 6.298293464346334 7.566843641503125
Fe 5.640110634180197 3.993814822182054 10.247988279797214
Fe 4.019338175918259 5.611826961481574 3.921475486987026
Fe 6.770480553437044 2.4975704945655828 5.75276730325174
Fe 5.496326526701461 4.789084878199673 2.2757409436646
Fe 4.758896360534191 3.558540844006761 4.376438676064149
Fe 3.4229556256012845 4.763446480445477 6.073926658459181
Fe 4.380549116587989 2.8092678301239604 6.851161209882558
