53
Energy = -372.60464364 eV
Fe 5.022673958096116 8.920470820231818 2.6535668456649493
Fe 6.815113372407351 4.598722906465043 1.843398883535358
Fe 5.671039352035247 6.66303936320393 2.0524543254413303
Fe 4.18900766612616 4.68231308176392 2.4067081117695452
Fe 9.24808161810013 4.4924835015230595 1.9982771388431315
Fe 3.5057892204925634 7.075451467471906 2.8132169829503613
Fe 8.176658776566274 6.5784250712272545 2.3767761452387424
Fe 3.411284872011597 9.094875664150418 4.282618317129999
Fe 6.641723504904825 7.800407973698368 3.8747995037902
Fe 2.187611399774334 5.016829340754316 3.4395034264829136
Fe 10.245643325650045 5.719327093377917 3.6702172588782056
Fe 3.4421217192955345 2.603878699962147 3.586091480286863
Fe 8.038619674820701 2.728302292738434 2.816684365186571
Fe 5.787010222428461 3.439125753096102 3.619119854468478
Fe 3.6331749695975923 4.255254603264238 5.243799801071497
Fe 7.7645285280302 5.005413239943809 4.166415499270591
Fe 1.4071310910725017 3.103903162970751 4.720149738455181
Fe 5.318605779098288 5.929464061426386 4.2363288001642125
Fe 8.880130038720853 7.449772898241098 4.596408065337339
Fe 3.1782108325389546 6.742875898687422 5.01165198065862
Fe 5.8072870803726975 10.124416480603905 4.445338599549158
Fe 9.634149723187477 3.57582107724617 4.465321660613204
Fe 2.8492654809503875 1.8965567903859148 6.036936157653707
Fe 7.432418668236747 8.869309177588514 5.944234549425726
Fe 4.691654681361221 5.965545741542628 6.819562559738985
Fe 4.043421666390454 10.525993115225251 6.000981345018673
Fe 9.642872882162528 5.702881671747252 5.98094035918493
Fe 1.2012720882710468 5.282105443803955 5.5706472858469525
Fe 8.269433103629845 3.9629382822848473 6.66503930552894
Fe 2.0786514782117833 3.79391841346 7.193676542962192
Fe 5.071362079885833 1.9486101428800613 5.4299702004767685
Fe 6.048644410966895 4.201542490109468 5.818959622929517
Fe 7.489373422422651 2.3696850934947444 5.078277993756983
Fe 7.191502861739368 6.360953500263467 6.128641240274386
Fe 5.152315066944851 8.052662233539433 5.688869631650117
Fe 8.876974840720276 7.729724405090786 7.357825781417649
Fe 6.326978906000895 10.711556084806313 6.770983698859905
Fe 7.4727197952983 9.371372570746962 8.420241993484954
Fe 8.952230919710681 5.488450458011214 8.346182230597934
Fe 4.842428510810734 9.503230579347683 8.121111502186837
Fe 6.523026309906385 4.936423549996292 8.150146262594006
Fe 3.0461878433692293 8.49149348446918 6.770850651109893
Fe 2.4552772121515636 6.231477542043141 7.329952068734221
Fe 6.618762492588091 2.3690241631548896 7.457116694380071
Fe 8.199118916530312 3.2216763251565217 9.092125493781763
Fe 4.431703490289563 3.3139035675326354 7.40921818368743
Fe 6.107943887346095 7.57940193998709 7.917374880838113
Fe 7.71150440524469 7.074706346523323 9.46565491628352
Fe 3.7983853336646196 7.431174022798969 8.866011923543724
Fe 7.619002880286971 4.775004701624964 10.457970973889266
Fe 5.63633220372932 3.3589259082207357 9.57585875831029
Fe 3.7837750239797647 4.8866367299355815 8.998763080021195
Fe 5.534071160314093 6.096749820622884 9.921236075487842
