53
Energy = -376.08437432 eV
Fe 10.955495705041189 6.052032346764167 3.6739140394441523
Fe 11.185664162617467 8.051625743340912 4.9018945080071905
Fe 11.091034582319566 5.973198597802902 6.232217430751912
Fe 10.113581227773038 4.190442779593435 4.7484243460142075
Fe 9.440868514847393 6.371135556367915 8.026676526934446
Fe 10.200173862983855 8.4110467789929 7.053740367421007
Fe 9.396070044770873 7.705996400356487 3.0441991536823494
Fe 8.676860354234561 4.664658501406191 6.41040250295485
Fe 9.085924860628078 6.793048351149184 5.41615972108784
Fe 8.48104679282745 5.477253774706324 3.5224844194715286
Fe 9.236313488855348 9.391884480921465 4.961947819269707
Fe 7.832340916732148 2.447243359492196 7.006416964157179
Fe 5.962964558475882 1.8338966860922947 3.58729686368361
Fe 7.837112645965778 4.369134114763092 8.659687437711778
Fe 7.550209314290316 3.312187137303918 4.701746394182413
Fe 7.19538691169324 6.313830518880714 7.360953446668211
Fe 8.334245242373647 8.475461227149546 8.916450016270653
Fe 7.4949912201230955 6.575818284232535 9.885278196598149
Fe 6.614448990820379 4.172120248441564 2.6193642696793353
Fe 5.650575586018348 1.9039942142373107 5.9776659984451985
Fe 7.79581949304654 8.48235830975282 6.65171024592268
Fe 7.388988356475166 8.031678619915636 4.179541908309529
Fe 5.573189296882884 2.7899804720945824 8.39649489009104
Fe 6.785972914742143 6.660868975437265 2.2511784498237173
Fe 6.279096383399909 4.147311179870084 6.780730502817317
Fe 6.5084791839561635 5.876520455213145 4.860257269191642
Fe 6.413536207700294 9.055898516027348 10.285251930704268
Fe 5.619537740155579 5.225519496678881 9.218936647100476
Fe 3.6252400462488086 2.0769592834517345 4.550686141793989
Fe 4.329009808017652 3.139964072565675 2.3774478703883593
Fe 5.712617651778819 7.778348013847151 8.375187876056978
Fe 5.1514301650748235 3.9840325878101157 4.584243899106873
Fe 6.467239480964462 9.986745910848374 7.983338218999369
Fe 5.271239524927128 7.0687015218178475 10.773845068302554
Fe 4.765922544022607 5.817505177967246 7.156144256699865
Fe 3.80335892557651 3.602733833607445 6.492704460328024
Fe 5.038322499657105 7.780911463482384 3.5558806735620685
Fe 5.509024016028102 7.842386149656613 5.980137149738105
Fe 6.146057253840104 9.869578228824638 5.256770413148474
Fe 3.568026218032562 4.190033187049279 8.70220399473639
Fe 4.655929832169071 5.604701491870267 2.8174496677501724
Fe 1.699441599021939 3.258688929864371 5.727721229458275
Fe 2.862518717431661 4.3102305184220135 3.8453814641506376
Fe 3.5256519644152777 6.663168057010286 9.213996072545239
Fe 3.7873549682327647 6.181473185951961 5.15091384325588
Fe 4.118029267218904 9.061619254516723 9.399771292067868
Fe 3.3852070554303584 7.77393844783482 7.163045602507292
Fe 4.349586034679877 9.85125585877504 7.057777400819592
Fe 2.3414685166120046 5.546226364816413 6.98320465253099
Fe 3.5280209381987397 8.774316687259414 4.990400731841811
Fe 2.572232650879047 6.961196878650001 3.2734699070036655
Fe 1.1736080682899026 5.419175371485437 4.840364560300687
Fe 1.617090415572817 7.542444887693183 5.458666957439065
