55
Energy = -392.51609563 eV
Fe 6.1048135333992 6.10481349703544 10.131913753965957
Fe 6.1048135333992 2.008468314733634 8.264972445980513
Fe 7.292007538731794 3.9963142440920616 9.135949849973075
Fe 4.917618528066306 3.9963142440920616 9.135949849973075
Fe 8.640222515862892 6.10481349703544 9.414910742439753
Fe 9.728957018963573 3.89890772926371 8.83491822831889
Fe 9.728957018963573 8.310719264807169 8.83491822831889
Fe 8.24401456687658 2.4980381402903604 7.299185244971052
Fe 10.500929954492044 6.10481349703544 7.7948411707647205
Fe 7.292007538731794 8.213312749978817 9.135949849973075
Fe 3.569404550935356 6.10481349703544 9.414910742439757
Fe 2.480670047834525 3.89890772926371 8.83491822831889
Fe 10.400630493884004 4.077887863930439 6.483289348574462
Fe 8.293584443244589 4.923878573978297 7.242308269505124
Fe 4.917618528066306 8.213312749978817 9.135949849973075
Fe 6.1048135333992 6.10481349703544 7.905754860765726
Fe 3.9656124999215177 2.4980381402903604 7.299185244971052
Fe 6.1048135333992 4.046651482857884 6.765644960248762
Fe 8.293584443244589 7.2857484200925855 7.242308269505124
Fe 2.480670047834525 8.310719264807169 8.83491822831889
Fe 6.1048135333992 2.008060265687247 5.614375274876459
Fe 3.916042623553663 4.923878573978297 7.242308269505124
Fe 10.400630493884004 8.131739130140435 6.483289348574462
Fe 6.1048135333992 10.20115767933725 8.264972445980513
Fe 8.24401456687658 9.711587853780372 7.299185244971052
Fe 8.301086791732727 3.6571689786823804 5.234782110785144
Fe 1.7086971123060561 6.10481349703544 7.7948411707647205
Fe 9.603713764007678 6.10481349703544 5.283864970950196
Fe 3.916042623553663 7.2857484200925855 7.242308269505124
Fe 6.1048135333992 8.16297651121314 6.765644960248762
Fe 1.8089955729139524 4.077887863930439 6.483289348574462
Fe 7.2624492945672605 6.10481349703544 5.371439851952075
Fe 3.9656124999215177 9.711587853780372 7.299185244971052
Fe 3.9085402750653677 3.6571689786823804 5.234782110785144
Fe 8.301086791732727 8.552458015388495 5.234782110785144
Fe 4.947176772230836 6.10481349703544 5.371439851952075
Fe 6.1048135333992 4.132259287632177 4.392725857631959
Fe 7.321180935747244 2.4105607980380017 3.313735601708299
Fe 1.8089955729139524 8.131739130140435 6.483289348574462
Fe 6.1048135333992 10.201566728383632 5.614375274876459
Fe 2.605913302790431 6.10481349703544 5.283864970950196
Fe 4.88844613105116 2.4105607980380017 3.313735601708299
Fe 8.227458769678307 4.873334696658767 3.158764766445186
Fe 3.9085402750653677 8.552458015388495 5.234782110785144
Fe 6.1048135333992 8.0773677064387 4.392725857631959
Fe 8.227458769678307 7.3362932974121104 3.158764766445186
Fe 6.1048135333992 6.10481349703544 3.136700726916295
Fe 3.9821692971197837 4.873334696658767 3.158764766445186
Fe 6.1048135333992 4.039484706979077 1.872969634207117
Fe 7.321180935747244 9.799066196032877 3.313735601708299
Fe 3.9821692971197837 7.3362932974121104 3.158764766445186
Fe 4.88844613105116 9.799066196032877 3.313735601708299
Fe 7.371814429867023 6.10481349703544 1.1135747480368383
Fe 6.1048135333992 8.170142287091798 1.872969634207117
Fe 4.837813636931365 6.10481349703544 1.1135747480368383
