55
Energy = -389.21974236 eV
Fe 9.00303317856393 7.595929255475343 3.1866516367757223
Fe 9.419229185980516 9.54520856471307 4.423800690062661
Fe 11.071824640141095 7.642336962505891 4.865400906655992
Fe 7.193281635406759 10.944105704421453 4.5191256351673905
Fe 7.026131990999429 8.532746464048737 4.229208133639998
Fe 4.739949508635686 7.538485751990661 4.96519026469916
Fe 12.551805931500866 8.922128274242654 6.417487395893342
Fe 9.664262588734259 5.618852079326659 4.294195675081968
Fe 7.051412730297053 6.27743416199281 4.020619577014999
Fe 10.285645819671364 9.679033004380194 6.70148282578098
Fe 4.7461257890217405 6.811418156713561 7.512678256888095
Fe 9.006922074844956 11.684206581651324 6.031474415898484
Fe 7.8408341676612014 5.0008957896828345 5.854038998731191
Fe 6.641867094601045 11.507495468613765 6.82581600115287
Fe 9.034363293442695 7.318609164231277 5.760015252394731
Fe 10.292813997011045 5.1576507039398685 6.670178382597997
Fe 4.353309333260262 11.012941712138712 7.552092514744784
Fe 5.401659952296338 9.541500867795401 5.919108736340685
Fe 3.578167490658431 8.73099346939766 7.1786987910991416
Fe 10.98609895619607 7.500581327842491 7.411552192510898
Fe 8.358189270617077 3.4784532972407507 7.585965266762184
Fe 11.884557460179362 9.96579411720061 8.442904020439109
Fe 6.746598109175634 7.232139292970596 6.473137408555598
Fe 5.426281337903353 5.37576281617269 5.5067955369088635
Fe 7.853823808180286 9.463280422678977 6.266213300971769
Fe 8.492590829267002 5.950798501739072 7.872260304287022
Fe 8.193500679578884 12.821899425032584 8.238382916721132
Fe 5.209237827876068 5.540215723530907 9.963393506267
Fe 10.474359299690404 11.945106474520276 7.878226270193917
Fe 6.207066353910512 9.223402495172012 8.188040175405284
Fe 6.3343390693951145 4.916944590010745 7.6715548056969585
Fe 4.179264150843155 9.693562217736106 9.43716105299937
Fe 10.084225467891105 3.9297327445376515 8.944745209369742
Fe 10.30765262152228 6.180243973257625 9.224530025706132
Fe 8.45110335899131 10.599182789135659 8.286233196307055
Fe 12.355598548864428 7.560031381677083 9.368339941767847
Fe 6.110281607617194 11.372129052897165 9.194516142829663
Fe 8.572054119348046 8.208936127441218 8.119534668551067
Fe 6.660073977283562 6.979186424156629 9.03066971873244
Fe 7.69899170622696 4.706939642162193 9.723101174310848
Fe 3.597073799089562 7.494897176281852 9.391167981957654
Fe 11.997961718066607 5.357528864048858 10.406547360064446
Fe 7.719231362367093 9.438542857395795 10.230884990552912
Fe 10.275612037353511 8.7458504837021 9.59084350631543
Fe 10.076281930313623 10.89258848047554 10.018968741051243
Fe 10.958958822010764 7.2442769396194215 11.428525970867657
Fe 7.8568556361321855 11.786893417572816 10.529173097003225
Fe 5.818544584390409 10.2920728283215 11.337105837882987
Fe 9.554419123275014 5.071727856526454 11.25681672147146
Fe 7.060875963382176 8.440719930006665 12.381495231730645
Fe 5.523614197604335 7.982973733991361 10.688694417438253
Fe 8.522048060903384 7.13705699776291 10.4901172300124
Fe 6.903081102785762 5.973348147505291 11.612283497486601
Fe 9.384782771806192 9.18978688067892 11.843416715647008
Fe 9.002271637218842 6.98558214172337 12.779579484591192
