51
Energy = -358.86744673 eV
Fe 8.505614218746283 2.3927468695776266 5.304648982861797
Fe 9.558130497227866 4.4351866625499365 4.648724513317857
Fe 8.253709221812318 1.8354087439793052 7.732053205637499
Fe 9.524904400736293 3.9732203088670968 6.9702338994864155
Fe 6.993251320583566 3.77161888208768 3.856656140950943
Fe 5.08897774909761 2.2323159959080994 3.9106861566090627
Fe 6.294184898319792 2.417080528866365 6.040745087292336
Fe 6.579484382687575 5.618146819465203 2.105275841090805
Fe 9.239348963225499 6.505469145753 5.981328041262084
Fe 5.809312040477932 1.7105189837405959 8.332883432002085
Fe 9.251247952006624 3.5685189189012654 9.314207082896385
Fe 7.416726972635071 4.7010145678767685 6.009888430489464
Fe 7.307255818667697 2.4974987648857403 10.143522871842837
Fe 8.05667498932685 6.0610558002984405 3.8800736141586154
Fe 4.6735823925582185 4.462815167031992 2.958573284093
Fe 7.099211628051734 3.788010908100998 8.139228114857696
Fe 8.459696205372099 5.726382941982061 8.322945461000186
Fe 4.927615170980459 4.247176077971012 5.352759282879533
Fe 3.852736709383326 2.193968365729839 6.108344008331939
Fe 2.895019881727134 3.503677929581963 4.267934176255061
Fe 4.588344403454029 6.917202729451364 2.666966693039979
Fe 9.387624529314929 7.91066744695278 3.866902520526113
Fe 6.76520299943679 8.05707685890995 3.040963579542726
Fe 5.896741699087734 6.177956327929794 4.552864421824634
Fe 5.308331982714817 3.743441385081099 10.009867611841415
Fe 4.7232759674416505 3.7810936870134584 7.671574696254826
Fe 3.268390442056356 6.0262823903999205 4.5909125696444235
Fe 7.454419262936493 5.006069690895186 10.364571377315176
Fe 9.139116184205418 7.895232371739966 7.951507090113382
Fe 8.278964123511948 9.935261200863497 3.6432804671367003
Fe 7.217719996982403 8.432179133439298 5.318033551125622
Fe 4.677353233034126 9.280739309209283 2.4030913785711476
Fe 4.666970545181575 8.110902001837129 5.116455007545963
Fe 2.735282998449139 8.330246844852729 3.249407253975422
Fe 7.052306241654534 7.610978290155351 9.268439041513762
Fe 2.7014235289996478 4.551092029128343 6.507343108795658
Fe 6.9453567334226705 6.791276187911145 6.8797087418031975
Fe 9.38905144863856 9.11849704563627 5.94588267073121
Fe 5.78506971283263 5.763258950731822 8.829149706869805
Fe 5.915181350723003 10.182091410915454 4.106461196465761
Fe 4.675300122507328 6.2160845963953735 6.701605170675357
Fe 3.3240040870223795 5.2172008906541585 8.913115021790464
Fe 1.9933180051514265 7.983089285844989 5.366300689142951
Fe 7.4378079727370645 9.491348411936078 7.594673523362039
Fe 5.414332857507048 10.337703304640108 6.325340419757765
Fe 3.467054513048452 10.10055235799104 4.666800197037943
Fe 7.716152078468493 10.906812565134274 5.732243091785843
Fe 5.4217533983419175 8.340030023618217 7.418313460246673
Fe 2.4908303285406985 6.803515853025721 7.322822731421321
Fe 4.113157172689234 7.492353169320789 9.012069657535037
Fe 3.2344565696419814 9.172090333061073 6.905213003653713
