55
Energy = -387.42289571 eV
Fe 6.392616775433315 10.043376416320545 9.310578542660553
Fe 7.415025169809067 9.773864804315737 7.230853854232632
Fe 8.343632631709527 8.569137108011928 9.098755909743621
Fe 8.455853552675439 6.873101127177966 10.806666256610754
Fe 6.346795203228494 7.812110405787476 10.502231660830276
Fe 9.876027347979875 9.648479089304876 7.487913729351538
Fe 10.386353982453974 7.400791851116686 9.019889517656983
Fe 4.608377679699154 8.76319995172366 8.72148582704423
Fe 4.900472202629331 10.646834640621401 7.232655662104122
Fe 6.250894076989451 10.753742074595356 5.205545443217932
Fe 5.615629964285608 8.654290733074792 6.198082917771365
Fe 8.898157772167762 10.600056942413422 5.597507778730856
Fe 6.689109406544595 5.360575246621648 10.256051464676142
Fe 11.356330559694797 7.833596011611459 6.970585747227237
Fe 6.6240747560802005 7.47225965141437 8.086219255538847
Fe 3.051618721475214 8.756805306500539 6.685222188430815
Fe 2.5476229591755284 7.225508098050092 8.54554252477605
Fe 8.343795172123993 6.033254592801129 8.663966126244432
Fe 4.604326681032564 6.349403021889525 9.546540945898792
Fe 10.173626449631938 8.645086914961468 5.10901286672497
Fe 8.719800914793502 7.570152141292087 6.854085763488118
Fe 3.906622571520933 9.990398873512 4.949700173497694
Fe 10.45871333312055 5.506879336518471 7.64733880806477
Fe 7.628175314086997 8.671551753305899 4.943135366186299
Fe 4.472830249576702 6.8755246880210805 7.236174437647453
Fe 4.445615953254594 7.262342346941142 4.70969491705804
Fe 5.503575127621715 9.040598082058196 3.533236372283709
Fe 2.273448427011592 7.824137914341387 4.381825048678274
Fe 4.681508645396467 3.910461846871709 9.57418628500876
Fe 3.1867094881519473 4.8961981436899835 8.019261879484098
Fe 2.3264277093610035 6.414971739651185 6.084281009008432
Fe 6.081724936187019 5.023418276573464 7.886705311457778
Fe 6.54913714486097 6.411259252344645 5.723406731858555
Fe 4.374096127690264 5.0016532185847735 5.939519498649043
Fe 10.747123974661555 6.125422830517607 5.451398051064619
Fe 8.811611408480958 6.733850130488742 4.385840705246726
Fe 8.518254308343973 5.2227741373741186 6.260121642152079
Fe 4.304407080001069 2.949669181877058 7.117830443320516
Fe 8.306922691217569 3.6443527721930757 7.941126857238139
Fe 6.281052702191361 2.5079080687827324 8.273432486685865
Fe 2.9721220701708204 5.29256763265267 3.960251756808238
Fe 6.704703289998681 6.995249442301439 3.3497708771362067
Fe 4.380537800488088 6.690645285152108 2.412487934798989
Fe 5.480932008888647 5.001214297410828 3.9157400805057057
Fe 2.416968133442809 3.7374326223340217 5.75241743924739
Fe 6.527619988618386 3.7019254888994855 5.937320962303571
Fe 7.783278303907307 4.639423095386737 3.8100645911945854
Fe 7.853108095678459 1.6316073077230302 6.652780004833247
Fe 5.584049892375108 1.3585471477881843 5.929668462764298
Fe 9.074223039974296 3.2157806298951943 5.381014274406575
Fe 6.307357540958204 5.408436274492183 1.6419382988910425
Fe 3.990193596726635 4.255052163064984 2.1098123562613513
Fe 4.396454530686865 2.9511904464347274 4.393665666602739
Fe 6.04580109949065 3.1472627469679124 2.3462237955363068
Fe 7.070444009692705 2.2205592696899545 4.265126064605704
