54
Energy = -380.21288732 eV
Fe 9.935519092868892 5.78991249342489 7.640875811659383
Fe 8.639585432969922 7.548687772758437 6.4375164582768845
Fe 8.567237748050283 7.18478883958607 11.480529997498891
Fe 3.45145350973659 7.936391085833078 5.9047763593920655
Fe 9.788759326764136 9.159228659384702 10.36122426958345
Fe 10.054518962551736 5.547156929845452 10.103149616248395
Fe 7.234635372205797 9.108330541830385 7.8363096464198945
Fe 7.649958620119466 5.405320902713921 10.044004885171594
Fe 6.042664059560859 10.61204007020432 9.350466421881071
Fe 11.15153249708874 7.749791611421682 6.6414378053860705
Fe 4.174277862341762 6.231814569056822 9.874403383182651
Fe 5.662855050732177 4.6164044805058655 8.627292098154106
Fe 4.880774241799711 8.89998799572711 7.6124611379175
Fe 7.646895140371207 8.369730958453026 4.393283904567401
Fe 11.226924337467688 9.957051448016243 6.052013479164057
Fe 4.7529196834657705 6.181091530284399 4.697141385511554
Fe 7.48899577758987 5.753036238976122 4.8375609991411315
Fe 5.19049859426745 8.488260591086558 4.144798817023981
Fe 8.629174268775763 7.282527726442534 8.851595834429757
Fe 10.07794829563041 8.339587278008326 4.600973914157019
Fe 6.41403585706012 6.745159790619214 2.9479434108107427
Fe 6.167611751364353 7.415570409615408 6.144948581622852
Fe 4.8074959878791805 8.606489869751236 10.307090569220371
Fe 3.0444572860001418 7.873568346878842 8.522480339821117
Fe 8.786866378820381 4.130702519292306 6.329420431532975
Fe 9.599069589301935 9.256837914065752 7.967898455498014
Fe 11.118916088364236 7.496296122123407 9.009140779231354
Fe 8.474363429634684 10.96329229793163 9.398945560180183
Fe 4.448328486942451 6.21256670738655 7.321867945282951
Fe 10.051010635192476 11.448662270089045 7.537934716416013
Fe 3.677192692605106 10.295409659232996 9.232773209739351
Fe 8.711624586688389 9.931067158352466 5.828946300975331
Fe 11.737546390874106 9.750286586471951 8.407283367664192
Fe 7.353252668493369 8.81026593117887 10.25767005435466
Fe 4.1443030633188505 10.120255093036013 5.39270788946892
Fe 8.933042656582177 6.594470657074562 3.153692866967311
Fe 6.123323309609028 6.85464855929658 11.235866143245362
Fe 7.523404909156194 11.416227188229966 7.348855059366969
Fe 8.798184975356648 3.843821699381186 8.713640218504242
Fe 5.822682511866083 4.5269200801535465 6.103688282930989
Fe 9.98731905352163 5.946544066708998 5.280541601397913
Fe 6.458154600538737 9.835260978648117 5.72863103690858
Fe 4.999469457336609 11.241995925866256 7.332000313038696
Fe 6.232951120057587 7.1715047953749345 8.783549538814299
Fe 7.482800256507834 5.653286076644413 7.436116520668621
Fe 9.188727132062144 4.063153797848799 3.9528425567331706
Fe 5.62962718649899 4.528315874100162 11.019334641159244
Fe 5.736550110796338 4.3124004172990915 3.651341063537464
Fe 7.381543724377993 3.0573248809576192 4.789652915418372
Fe 6.896386234225901 2.961888343431696 9.84905487360468
Fe 7.044461310044214 2.938030313568512 7.377203120595359
Fe 7.560572055781913 4.802166496584127 2.396432818800802
Fe 2.6045692834176637 9.989468407423699 7.15235729118353
Fe 10.874727057780214 7.337186115648787 11.31732946180336
