54
Energy = -366.93423178 eV
Fe 7.361928296602765 5.516132365914833 6.548740808287597
Fe 7.197395872960798 6.333107572305452 4.303719307365604
Fe 6.741547961772803 8.990038753566836 4.976154935352472
Fe 9.557039503285049 5.988726817450651 3.2050965186227747
Fe 5.158915894294136 10.313279888989019 6.18367199842596
Fe 4.234007351922656 3.456412131610067 10.685230760431143
Fe 10.690904443987407 10.201249923296043 9.083041763913814
Fe 5.848171255540329 5.338132544460728 10.838191894270402
Fe 10.408224702650331 7.019541013484822 11.449765173614477
Fe 4.4363720594203375 2.699933896273634 5.887705782427352
Fe 6.603248431251994 12.110187800929689 6.980881812634705
Fe 8.22445114837531 6.380642646287634 10.52322775312159
Fe 5.966326434511109 10.670576208644942 8.645433760523314
Fe 6.4394182401499185 7.5797491980654454 6.97027830886712
Fe 10.229848417024527 5.748958502120665 9.372954261147282
Fe 6.37578970703323 3.9857093989290378 5.072160669990226
Fe 9.42339881856821 9.264284870909803 7.479657555262871
Fe 4.280569443341756 8.804820111088606 7.767064499397829
Fe 8.480487587995762 6.920071990738108 8.034373732212904
Fe 5.54524118423458 4.249041625787449 7.377875260894963
Fe 0.897643248631494 8.62724809538625 5.363994408238745
Fe 11.656522391792041 5.071612789089219 7.320703650354011
Fe 8.281217187707869 10.210749828176297 9.947621029557913
Fe 8.278122912031705 2.9116413919750177 6.567895182279808
Fe 10.670407846530322 7.351178803153495 7.363187035837532
Fe 5.7598476990033225 0.24790807566288595 5.744431219165002
Fe 9.631969258041503 8.213278976364242 9.762685103955494
Fe 3.9280183979311047 5.208371925691647 9.313505995509193
Fe 7.718341722148186 6.731329190959776 2.0065693585382753
Fe 3.9034501881760986 9.763775957872056 9.776903194656546
Fe 7.457531122454374 9.65724750309863 7.223495179608558
Fe 2.616670512720731 7.610770473090264 6.654713782006219
Fe 6.368492396482816 6.101761927679749 8.766337736188849
Fe 8.691952668165712 4.312006918424272 4.822094265733737
Fe 4.423926831080378 6.536562184543517 7.421378423245958
Fe 10.174032535126166 7.95044257827763 2.1720086831092082
Fe 8.317278343080796 8.437927510282506 3.402742467724859
Fe 7.715588204900695 4.3023520975043645 9.082723025594682
Fe 5.70908096795962 7.7315353809840275 3.115793144861863
Fe 8.61746327464063 7.778248596642482 5.788213048343098
Fe 4.700031853627569 7.63236955485774 5.285480971508196
Fe 3.1604868110981763 9.564195538512267 5.486943786104668
Fe 4.770140739853071 7.54047327312219 9.847494784409202
Fe 8.811219628312035 11.49827596702209 8.175232718259268
Fe 3.2158418081637783 4.708964702388564 6.862056950699194
Fe 10.555404376024761 8.02995470944918 4.49256214477286
Fe 4.489322623138357 12.427985927675943 6.079609225186053
Fe 9.3719871417892 4.751737892376756 7.469582386537783
Fe 10.135189878673344 5.969854439819407 5.495537376434394
Fe 10.713759142239642 3.6429873888198134 5.716289402814674
Fe 4.991433636720448 9.986103636031956 3.9044016133797954
Fe 3.8852896354097872 2.9362702410075143 8.39282633883514
Fe 6.960238649962682 8.372986209047493 9.382090489534237
Fe 6.253117749259873 2.156131188635045 7.119136415016678
