52
Energy = -367.66862253 eV
Fe 6.007726838690165 6.051438370815156 0.7633487881544768
Fe 4.305327304356654 4.5106601709029395 1.6072164423676092
Fe 4.023581426369951 6.811697944517395 2.1996972642022
Fe 8.100146253210278 6.213763769349892 1.940689775871049
Fe 6.205205240386624 7.960261979528743 2.182724883411815
Fe 6.722172017472042 3.8430237953127993 1.6787574141962949
Fe 4.69598848961191 3.1538171543691482 3.4562520710521545
Fe 4.203350746138819 9.007122350039062 2.983450288629025
Fe 9.7532276558109 6.607603830657862 3.9884986757695815
Fe 6.039099041839239 5.474877615331401 3.1379728702591714
Fe 3.547650091669728 5.322073286478964 3.9848427923836462
Fe 2.8578490130683294 7.633388296762101 4.418236077207311
Fe 7.663150924275255 7.543910349635897 3.9663489093422557
Fe 8.2805639685018 4.698855965652107 3.8459397614323647
Fe 7.02196140737084 2.761950760278146 3.8640392370889565
Fe 6.051430622118803 9.528719895737968 4.277565257498162
Fe 5.631269650088017 4.590626466137126 5.268921681963654
Fe 5.432088265991963 2.2826320468844337 5.717720339543134
Fe 3.189205410998134 3.4754183946824657 5.471469976258954
Fe 5.277800959809454 7.128670217107323 4.605258093259392
Fe 1.6084946536465017 5.72818209447641 5.61798191283958
Fe 7.513440370091499 1.0522419037868813 5.511623154544559
Fe 3.5552512459186727 9.997303268017896 5.014337577653088
Fe 9.296523790558492 7.437413439532243 6.24997668106119
Fe 7.481579106521828 6.0298465347397565 5.718281016549183
Fe 9.861311467948047 5.033493417104786 5.726711060177813
Fe 4.497001082095588 8.432172321971755 6.3180952674824225
Fe 9.470412323617536 2.580917391271811 4.968358490450336
Fe 7.035614889545491 8.4935168861496 6.19678785232182
Fe 5.530285891879396 10.534654589056824 6.4432637743920225
Fe 3.823259939144531 5.752628676236502 6.509369193824527
Fe 2.1338473477875866 4.171322140254157 7.500590345076816
Fe 1.4504928046496586 9.433568340150195 5.744376320261903
Fe 7.816013407905581 3.473263019608846 6.2181596599129065
Fe 5.846190202359367 6.63683526847189 7.430656259981543
Fe 2.2424590224435414 7.655770257092823 6.683831572064736
Fe 6.105637982714548 4.272648220105387 7.568514404245776
Fe 6.450049655729941 1.7713719494333386 7.780774054611488
Fe 3.030037333197993 9.745492853797483 7.524297537440987
Fe 10.07111753573267 3.424222292892129 7.412147541343455
Fe 8.867700997844166 1.5080233240257024 7.34904751474936
Fe 8.495970459265264 5.356323599767924 7.746134127349075
Fe 4.14298978931335 3.02336277659355 7.71714900857321
Fe 1.9311194066439918 6.189913311260416 8.47122942476386
Fe 5.724405160924167 9.07829628531435 8.332206147808975
Fe 7.748476662701224 7.556513864075543 8.424954107465862
Fe 3.7949128144724313 7.544455482042641 8.441579774576184
Fe 8.021227957040137 3.3213297038415313 8.86914087543185
Fe 4.223382376490467 5.1839412159061915 8.937398361640076
Fe 5.620881818139649 3.225566057290218 9.661893888800194
Fe 6.847100901405245 5.386671700149029 9.55962807379169
Fe 5.639670781336756 7.253879662244461 9.878208925766058
