53
Energy = -375.65295442 eV
Fe 9.315376650620165 6.703511939653622 9.410030666307224
Fe 9.097141523992546 8.633881074505137 7.424037521181903
Fe 8.032903530009138 8.909980537285357 9.66946909756808
Fe 7.203682372345767 6.416394033809248 10.643118701878088
Fe 9.24496643531358 6.234198439638263 6.941344512352901
Fe 9.650145763558971 7.819018746486884 5.158324530241284
Fe 9.296148855083413 3.921448399040302 6.9471503463242374
Fe 8.109440858221927 10.81009436577255 7.768899634983664
Fe 7.892656562540122 4.573276962177901 8.815546919882099
Fe 7.207420123610655 7.567158296555166 5.705199015229281
Fe 10.52425879284683 5.218484401106526 5.093589678593859
Fe 6.084028206879593 10.448271579084023 9.476939207207522
Fe 7.413147760351856 7.016553965380544 8.237219051976545
Fe 5.597660799426154 7.996602292555516 9.683887696700195
Fe 6.152813704603488 4.204968704508505 10.646483641382233
Fe 4.646588774823584 6.177067976193249 10.926206809946576
Fe 6.894163455590892 2.9846852867277347 6.928808790201808
Fe 5.665430950305791 5.516566152959404 8.821920358684256
Fe 10.05083533424516 6.577843864937106 3.0593201130187277
Fe 8.30349717521323 5.555825252992023 4.574458294134755
Fe 8.355717560315874 3.1965137014378975 4.9698669673006295
Fe 6.9249973432101495 5.320174177962174 6.55514583216149
Fe 5.860541427826892 11.225997134385837 7.151848293661636
Fe 6.655647458313981 9.12907499793351 7.621045966334704
Fe 5.061052364618012 9.32763045060422 5.930001476192978
Fe 9.60522336816098 4.1390654660965795 3.062912985188359
Fe 8.077869040455168 7.862758525827278 3.3824190622333106
Fe 5.240979937586318 2.9579324488068863 8.665571930244296
Fe 6.485176612081316 1.7205914841131882 4.572904891761305
Fe 7.727077264583419 9.81887026879797 5.5223503564243455
Fe 8.035778981046091 5.668168626470951 2.005754733347081
Fe 4.2184190757172315 9.414195809241614 8.190194847413883
Fe 6.18929442212716 6.156530163189373 3.673120378012262
Fe 4.543150369768746 4.66982491775583 6.851628549459408
Fe 5.198882634475817 7.207646502129334 7.300190270098348
Fe 7.128795908067429 3.600059787411403 2.9463188178606563
Fe 3.591549055361951 4.507848140045358 9.473114704804066
Fe 3.4606638559975873 6.73314058827405 8.683935585686825
Fe 4.7607451093313164 2.1367821911166534 6.1887533935647685
Fe 5.787398859136794 4.096095446322154 4.846547626872839
Fe 5.846785799186908 8.609256541351938 3.856037068164532
Fe 6.288727779001611 7.324661433729787 1.7121052903211946
Fe 4.6322654098531535 6.925420176044762 5.206319192536226
Fe 2.93284490938494 3.1474649312456227 7.617866263776555
Fe 4.620261568884662 2.6943989713846963 3.4099451081926264
Fe 5.2537220243932 4.845373357547131 2.0887896757874698
Fe 3.0019859501457495 8.039016730867461 6.4874814985590445
Fe 2.5387631925420697 5.573806281549734 6.353499891186055
Fe 3.438281999213673 8.892090605211926 4.1788232801078875
Fe 2.961784835542912 3.263614493695847 5.198226335100143
Fe 4.0707292904372006 7.114107771710486 2.6804815232881007
Fe 3.730018460441458 5.073055468508619 4.064002985094493
Fe 2.2303334526489578 6.897965243700103 4.334362185983788
