55
Energy = -389.816797 eV
Fe 7.001112512519998 8.186413735493373 9.019746677799933
Fe 8.206067967706131 7.106352613807783 11.40568710383808
Fe 7.467878982535411 9.500705191724661 11.001551622766105
Fe 6.082671576297884 11.554870814372464 6.966950430050453
Fe 5.965875792158865 7.5089569500997575 11.617169367711352
Fe 6.345141325526992 10.81544580093211 9.405110602075172
Fe 8.99309088394781 8.056694815992389 7.524750068820854
Fe 8.57999207616345 4.672534409121225 10.921261705971267
Fe 8.201762765827256 4.185801204084578 8.553151424837038
Fe 3.597462744055876 4.777249690330525 7.063798416610082
Fe 9.417022892579919 8.819856215657058 9.854721075657805
Fe 9.917369230937686 5.915255348444777 7.096036640557834
Fe 5.485920157227613 10.049213027679052 4.977931249727216
Fe 6.212944089541378 7.004484795795698 5.093814764790815
Fe 4.096764032300509 8.362138839216186 5.785148953926909
Fe 5.1026328610254215 6.81335664424345 7.415545148105048
Fe 3.221562764939799 6.180475507443773 8.916140656019905
Fe 7.635537739029608 11.06571101719593 5.364264639653511
Fe 7.009785590328041 8.711192715076336 6.407864503450226
Fe 7.4773010764221235 9.007578727845237 3.9956350516819796
Fe 5.7922934580855845 4.294729867192007 8.098220122758471
Fe 10.474206815107886 4.598010703086008 8.935210790380472
Fe 8.06407931531844 10.333657223888357 7.877462473090852
Fe 11.162395294605925 7.8939746727313365 6.34245918322941
Fe 9.015524929404034 8.0980025560887 2.4581569266817165
Fe 4.653901054442665 5.562705001634002 10.877305406266577
Fe 7.435592945819271 6.088854336540282 7.143298851882822
Fe 5.281790854214652 9.445472204401918 7.785094380007352
Fe 8.767485002697278 7.167591699714164 5.162135433890811
Fe 6.435454355155124 3.6588822056652437 10.364974073421115
Fe 3.788418623041821 10.680845059586884 6.506770558864096
Fe 8.899038848461938 11.133999583724686 9.89326500824669
Fe 7.175640281872607 6.766050714992492 2.9180191561764173
Fe 10.678296162188573 8.043436150400787 3.9993155146833494
Fe 10.846191028015657 5.722017013124173 4.925132131522973
Fe 11.124338788006428 7.3932715400835045 8.681434448283472
Fe 9.609585608981766 3.828956845375242 6.449161196279268
Fe 9.414643232954115 5.875350229833958 3.118159288698948
Fe 3.0779729833268616 8.592413742599003 8.070881577458644
Fe 7.745936280016485 5.007289095387842 4.683678634689061
Fe 5.6343589515949395 4.7672042746436265 5.83757928548781
Fe 6.569250417234941 5.9414508913156165 9.655202107756624
Fe 10.474675152106363 9.83692973702741 7.954300437049384
Fe 9.363763859748346 10.267880095986055 3.567543768655181
Fe 4.105825364520726 3.7902070626678253 9.308686564592126
Fe 2.433977281643033 6.849656182254052 6.6464091523154885
Fe 4.896651117327926 7.829275013015812 3.453221756310736
Fe 3.866082102744032 6.052894853108629 4.907369367400622
Fe 9.351924680201849 9.510874970080609 5.660244140986257
Fe 4.679966454521551 7.918300164231629 9.698555990902653
Fe 9.416701750279266 3.6104013938431656 4.178226332167378
Fe 5.647376533148105 5.097569409634329 3.511004138672335
Fe 7.406333377505563 3.353638404262009 6.420291213339806
Fe 6.663646868210654 5.199221198808567 12.163759713739509
Fe 8.979664022334873 6.445578694425288 9.31207162597035
