51
Energy = -358.98379429 eV
Fe 3.8660517357667126 5.49207283548783 0.5537203561177002
Fe 6.2246992087940045 5.68264674798311 0.9593643699325092
Fe 5.246365229921717 3.2740485525578746 1.2076217434992031
Fe 2.771346403535809 6.822316623273656 2.2753088843994185
Fe 9.075918782472053 5.764735077764067 3.2514908505249505
Fe 7.451462736501241 4.05915421964969 2.1365502252617126
Fe 5.1302121077455025 7.453730136890918 1.8446651924304107
Fe 6.354970677127715 1.5081119302805825 2.3108030406022273
Fe 2.4156753693922184 4.110650658454503 2.2221325091093806
Fe 7.608528841609877 7.38900807544418 2.1788925464759434
Fe 2.722293451303733 5.427352836445387 4.229089070293773
Fe 4.618914234102116 4.96388025637659 2.667726376249821
Fe 3.981609659022321 1.6237693894145941 2.438466899307148
Fe 3.764780163616038 9.064582211506353 3.256943571036545
Fe 6.732835872555312 5.8655524756312865 3.701800049789608
Fe 5.99632749169654 3.169858780164758 3.808826684949853
Fe 2.1816379393926435 7.846670156227597 4.625307252764572
Fe 1.5782527060403013 1.9806463320466248 3.154141492292053
Fe 8.216580238236467 7.854723172950353 4.628476521647228
Fe 4.462414803065683 7.014020853662882 4.111763125817511
Fe 0.9893185588087646 4.009421454002222 4.41959998043071
Fe 3.4186534958874035 2.951143746219088 4.250211284955254
Fe 0.6903214968861425 6.248652254969929 3.493977129063639
Fe 5.197437216786018 1.0041271866017578 4.6221066218575295
Fe 6.16059009783758 8.59670314032863 3.886631483198345
Fe 8.450773321988487 3.763518644400604 4.299834161301572
Fe 5.095611367647364 2.914415321288343 6.168091392214003
Fe 1.337990123021846 1.97363720348881 5.6110284706579945
Fe 7.322153887831175 1.958420856996335 5.682918657207019
Fe 2.9122201605987312 0.4290766782580313 4.361329535690681
Fe 6.623439823916055 9.205734814843364 6.230035497214335
Fe 6.189131147012112 6.832990742816588 5.8964851227448465
Fe 8.678675801355974 5.853756612027407 5.7108803055150075
Fe 2.847526008220494 4.003914230859577 6.325737181925011
Fe 0.42855162544672626 3.9456998094603803 6.768730695848423
Fe 3.435130739490984 1.4139697397213042 6.4844790398586225
Fe 4.343347926574948 8.757422365190738 5.783636592596102
Fe 4.781299588793878 4.915032065811154 5.080972864305104
Fe 1.2008574321067107 6.042219542605503 6.022914814317496
Fe 6.852845177848428 4.4233192914288955 5.885365206889197
Fe 8.775342635311429 3.5745978971822963 6.871119253145245
Fe 8.09250253521016 7.706763302832822 7.209210839861648
Fe 5.712266382359155 0.9792682816321764 7.270113951810179
Fe 1.8837145332008436 2.5795027199378135 7.994678002078941
Fe 5.484523416236742 7.525674763680963 7.9101792989790285
Fe 7.346350587844679 5.60268136357247 7.945095898334171
Fe 2.405520687539467 5.117778863119056 8.245123057969654
Fe 4.154875859068111 2.9745470051461083 8.41982911401268
Fe 3.5111042763910523 6.563400793545239 6.418987315120559
Fe 4.999800188664381 5.043421753195217 7.537714767424553
Fe 6.673918138302736 3.1183281227099795 8.026563591057643
