51
Energy = -359.10523412 eV
Fe 8.730429573392234 6.926532972588591 10.379793316912133
Fe 6.224066443182688 2.881895790525172 10.245894252529322
Fe 7.512045894336963 4.847364485473839 10.183669115740953
Fe 4.890216665235187 4.9850343117366105 10.246465189236902
Fe 7.642116082145317 9.002284123987506 9.928724688494224
Fe 4.167397037778643 2.711201145947671 8.84603251495493
Fe 9.617484512236338 5.378757878336868 8.586044719499093
Fe 6.261644504855242 7.039646224458573 9.929806282153562
Fe 8.158191606602392 3.3706074019586696 8.369199055257358
Fe 9.1401685194957 7.817543465942058 8.239584049324327
Fe 6.542060126146349 10.712782865128322 8.816567819310526
Fe 3.6426906004026174 7.039589807251593 9.627747873074588
Fe 5.060590897702079 8.99982821313775 9.25682485626803
Fe 5.815309724526245 4.2398408168091954 8.237552018339855
Fe 6.400262129216403 1.7598963317769383 8.169105941714184
Fe 3.087645343133895 4.898182028526853 8.584823868186044
Fe 7.477674157814623 6.007133054133011 8.150397442429039
Fe 10.616857457916892 6.414457186495287 6.447821286260968
Fe 6.73873455493028 8.321309043837811 7.614023211424732
Fe 8.737835083491488 4.676012603935159 6.330135797447107
Fe 4.740804353303773 2.1899145298403138 6.552701220195484
Fe 5.003714216727164 6.522836167220822 7.894058301623895
Fe 8.61496217253853 10.131577604772094 7.922775805304283
Fe 6.772440469428113 3.305988361259507 6.261707755381661
Fe 4.332809415637666 8.644922030573829 6.9614637934176855
Fe 4.130248099903805 4.357656778475003 6.5849266245426215
Fe 9.894938052354187 5.450041097062353 4.264921940906849
Fe 10.376367430525164 8.83199012559501 6.545929492433893
Fe 8.390483858308922 7.025204954835743 6.063570597574943
Fe 4.33691196680659 10.799465092940522 7.642634342720194
Fe 2.783351873124206 6.736097798699063 7.049334741091711
Fe 2.4084494999994916 5.278970958649479 5.1956965584129895
Fe 6.060395520978697 7.985786066636618 5.391039174341797
Fe 6.3027559446189025 10.375142004430254 6.541092037088562
Fe 7.580772815845107 5.95304868864973 4.043883980560163
Fe 6.388558726220856 5.677990609606323 6.123586179698978
Fe 3.308005650281837 8.117956289745148 4.883180609813069
Fe 7.890817294413133 3.6131437028141007 4.1716750009957035
Fe 8.228896823242577 9.332745442671762 5.658108973586592
Fe 9.304903336771957 7.0207105788674795 2.2671666083074435
Fe 9.810278312233567 7.857352673419754 4.387891579098391
Fe 4.359659092364038 6.234331417425237 5.297035049687751
Fe 4.484827573623538 10.224911330906181 5.10876649468524
Fe 5.35245690363019 6.561816126046271 3.2654199607981864
Fe 5.125690908762519 8.997035214367633 3.2715530878129626
Fe 7.509647108945998 8.287723436310294 3.4338094451187575
Fe 5.44656592485393 4.2141875177082335 4.380415366013844
Fe 6.674775790595074 10.421480936908411 4.063558236083262
Fe 7.108997220785052 6.682336630196484 1.6278048944168722
Fe 6.423878420059272 4.5010388119296865 2.2633753189054096
Fe 8.792598068599254 4.760192582268411 2.2289990574158463
