50
Energy = -351.55522691 eV
Fe 6.74987789537417 7.979982166001405 0.8853173991710847
Fe 4.536443557018963 7.243088400626707 1.139017042467166
Fe 6.522782362957817 5.632256129017218 1.505065010458779
Fe 8.348507690640746 5.134346562386168 3.033113629305602
Fe 4.318765200511992 5.212716687172871 2.3977981743378805
Fe 7.361779934584556 9.473563206390482 2.5361991316846146
Fe 8.561418951289035 7.309983262922132 2.248682311705828
Fe 6.190123886645946 4.368040167460973 3.699395796250869
Fe 3.2826391809494417 7.388994293613652 3.148260638128857
Fe 4.974039868055936 9.175423924001432 2.5220937654698257
Fe 6.128392637383025 7.162777003623337 3.310132124037069
Fe 9.736414213003005 4.02953113372637 4.265947787692119
Fe 7.767954088856088 2.7739025884066897 3.3426215549310934
Fe 2.395395138026787 5.1174202117849505 3.9416446694830105
Fe 4.057537216865319 3.4450658783716297 4.344451118936143
Fe 8.153712474437446 8.1386641181735 4.396061802821345
Fe 7.604171757761366 5.821407488188917 5.013572254543464
Fe 4.516578036949503 5.9870835940694755 4.708382339809094
Fe 6.189241352295307 9.58730551172139 4.605399157724502
Fe 9.859273800092993 6.492580182908148 4.436106839166606
Fe 6.028677301910247 2.1546450669635995 5.027107819529174
Fe 4.318414338658284 8.397087334185938 5.074420938526148
Fe 7.851575613648067 3.510164986757079 5.6762362668946755
Fe 6.401571403980591 7.464749534806793 6.045148644030566
Fe 2.3460770401678115 6.950609569227152 5.483104480001512
Fe 3.126973880071182 4.679613611420938 6.325724740694399
Fe 9.500831973237148 5.076718149596647 6.419667815468608
Fe 8.974783584289709 7.404511972304847 6.562056885728168
Fe 4.2411652717672474 2.594172497172272 6.71654733666523
Fe 2.8985662387142552 8.723464521516437 6.994097544621439
Fe 7.692850172352654 9.4563024229895 6.4290853212141705
Fe 5.60602691835314 4.486918354666787 6.092997854283078
Fe 7.185309008686766 5.535024364213727 7.424531430887756
Fe 4.36406152652225 6.634089649254298 7.133083718610965
Fe 2.0847854318682093 6.388705448657165 7.808127027515493
Fe 6.5475349066248505 2.7390505656162025 7.554769100653861
Fe 2.7759436301651768 3.9102189936342713 8.351925160181263
Fe 8.575054427897026 3.8421093740726655 8.319094110904578
Fe 4.707959170686739 2.0592917025044155 9.00587588309971
Fe 5.354354266784194 8.968035310874912 7.490716301171228
Fe 9.374633639435862 6.152529542041155 8.587552982264501
Fe 5.113887125872355 4.544679768044868 8.498808835033287
Fe 7.610395828612964 7.941529355072995 8.35745058264166
Fe 3.580791128383869 8.15722343230026 9.130275317499782
Fe 6.506503673851418 3.3591995224861786 10.023413659526053
Fe 7.445562436988048 5.57167402099408 9.741902775766855
Fe 3.501368047466899 5.873523614222282 9.672396190347756
Fe 5.642732394522483 6.975927468099053 9.088888340770575
Fe 4.060225989804747 3.628888021409475 10.59634627583995
Fe 5.430514456770352 5.449389386121486 10.993564183297533
