53
Energy = -374.05463959 eV
Fe 2.898487352587757 4.713008301597068 10.236045798778495
Fe 2.8607091214184335 2.8906309119255513 8.32128628997356
Fe 1.4323324871392213 4.717274139716989 8.303145486273987
Fe 4.827137972049223 3.417358696066024 9.57134538809013
Fe 2.0075371314772448 7.0896113539127 8.593244624574504
Fe 5.541641720493783 5.666790590140272 10.272090331248194
Fe 2.7996944627616798 4.100872087859805 6.186897033582441
Fe 6.102290052538895 1.638487412302912 5.90390747100231
Fe 3.8616815599282943 5.312079356264179 8.265533593749428
Fe 4.870768815971741 3.209497233843832 7.082118723940737
Fe 1.640508407045415 6.069474055307597 6.376661457863304
Fe 3.784835113391562 7.040036523355653 10.1401937060046
Fe 7.049913013259613 2.531457373856128 7.96390138656998
Fe 2.136847784350847 9.058725135023444 7.102718615243529
Fe 6.357183205341034 4.833783477175091 8.237917065632065
Fe 8.504867832147205 2.2453017730919864 5.96395254215465
Fe 3.4793699579551207 7.272905424355444 6.737471106994933
Fe 6.76154561683893 2.558863204598932 3.8587574012546337
Fe 4.8405327937281095 3.6237743853915516 4.6256264104338225
Fe 3.55717790813525 5.9674165408912865 4.614893819855601
Fe 5.5293738383653235 7.355662825308121 8.049007822812746
Fe 7.085237937473317 4.049423928226801 5.962603979048784
Fe 5.073339655872225 5.4575209891246 6.25467889433595
Fe 6.120994150955594 8.091985317532076 10.163251557717686
Fe 8.651241869267636 4.431112854556595 7.734676091990737
Fe 7.788968627440195 6.380668222846369 9.257066674732316
Fe 3.7706656071318463 8.979242947353338 8.76180234337621
Fe 7.327187829746752 6.612423831622343 6.6539761328786975
Fe 6.436128454947976 5.4967067740852125 4.107520248239245
Fe 5.4474012701139465 7.564184675226017 5.3978073615586295
Fe 6.102111031160851 9.820453238803434 8.494778984974761
Fe 4.707154295594022 5.156777934717026 2.5885677977518533
Fe 8.081090918705907 8.432815346858995 8.296627278486318
Fe 9.696679449375488 6.522293177045278 7.503246102132777
Fe 6.848803135083323 4.212854604764478 2.094451379630834
Fe 10.201898105091706 4.1781761270005715 5.937321282535502
Fe 8.702625295189582 3.7568805505398006 3.940032170110475
Fe 4.934286776562568 7.576205643308901 3.1019999686549498
Fe 3.3613351640621274 8.596109585886232 4.819211493410762
Fe 4.634119117666381 9.576872759023823 6.62379052335821
Fe 8.839896529316901 5.834059463695727 5.135584882997157
Fe 7.060343828646903 9.14196493587876 6.2819573663276875
Fe 7.488094504178537 7.645664745640309 4.074813458189099
Fe 6.622730475427102 6.704479009361576 1.7790313625708511
Fe 9.258025898225252 8.236431778736948 5.886966340107792
Fe 5.803641113142906 9.666096312193563 4.2862172444878315
Fe 11.160979289570987 6.532867284252224 5.629794891211372
Fe 8.649155114750638 5.832184937233422 2.6393541625667414
Fe 10.716977778854265 5.12898949885926 3.660510893235265
Fe 6.614761194177042 9.139551916161983 2.1526909637892624
Fe 10.065807796431493 7.566837064616026 3.735001512443203
Fe 8.39156945831553 9.696893519735772 3.966442086619076
Fe 8.72453561568434 8.172222231152602 1.893368330697889
