55
Energy = -382.32893663 eV
Fe 5.827378936324779 7.855505476794818 4.370023547827711
Fe 8.14430232305588 7.15953069017442 4.14304412163455
Fe 9.367357531969231 11.338334699476844 5.1163838613990364
Fe 7.347705463348409 9.694781732165305 3.946513935262194
Fe 9.698582559572667 8.836952488289633 3.76986554226619
Fe 8.122962204082041 4.869898803276219 5.8328730604863575
Fe 6.02695679833991 5.094353984180775 7.191192189646829
Fe 7.1659034398155725 6.945744846790332 6.213707995138556
Fe 4.982768805673305 9.944890048757449 4.990660412067244
Fe 8.846897901197057 9.202526694279964 5.779319997669058
Fe 11.280748863942808 9.112055397320496 5.705533603304128
Fe 10.804039490408183 11.131347473044169 7.056395804444946
Fe 10.068230416776379 4.757463005311336 7.051074209007641
Fe 6.423722815435651 9.214263258261278 6.496472663694881
Fe 8.298909806002396 10.644291629633681 7.615009445972852
Fe 11.972664641206698 7.228934221376319 6.908879639715635
Fe 4.725086009395289 7.127112168581288 6.435344693649707
Fe 12.916158045793715 9.416852846237642 7.457385518752689
Fe 9.676056571168886 6.956353599064842 6.157545770167833
Fe 7.092833516249033 11.337654513950389 5.700586459028216
Fe 8.020095846064082 5.9250838167841335 8.29862130211696
Fe 6.0332492100652075 10.552772854578619 8.527899883803416
Fe 9.79377057451984 11.382335598213245 9.404409409000143
Fe 10.363506115814607 9.008643469247374 7.966213494888741
Fe 8.022565678077099 3.6910063166840845 8.11224172848654
Fe 9.027772816670605 12.695007506928665 7.316585974558793
Fe 3.899981208567687 5.031995306485912 8.1188165502885
Fe 4.23127019051531 9.230123704944727 7.555870190300299
Fe 10.392793264970416 6.618710993902347 8.495784943837998
Fe 6.169543958608073 7.73271250047053 8.479838764038908
Fe 8.301339215196078 8.178570497557066 7.898377684465863
Fe 11.925091582421095 10.458139266355035 9.202996641599983
Fe 7.577698245129299 12.047897604448636 9.574459786138691
Fe 13.33377224889562 11.945152962693218 10.182019993926257
Fe 10.219908300705903 9.23755781643376 10.602996564066983
Fe 12.11056255914016 7.9911312941614145 9.3378402906394
Fe 5.780303909490531 5.4935817329925785 9.485619858479824
Fe 8.997170997856944 7.201486378050948 10.330357230012202
Fe 7.865464793032299 5.148633684269218 10.618003342725721
Fe 2.7921641572065634 8.782758671901139 9.470256882771986
Fe 3.963875588636201 7.0845151095163255 8.702384484553606
Fe 7.801401333629752 9.437474713386532 9.781268918511032
Fe 6.521847724946214 10.626843603926169 11.25891372181009
Fe 9.816328928606739 4.5774390859456995 9.473544119674484
Fe 13.89476616457543 9.687645389730426 10.13472420489796
Fe 5.002101166547119 9.047309552130505 10.071099249352454
Fe 11.760944078276733 10.723591916910305 11.533463546804054
Fe 8.936657541312718 11.010544199781965 11.55214787343853
Fe 11.15655214533409 6.447025190134093 10.731373077366538
Fe 6.680153947299685 7.424583876808077 10.865444103444887
Fe 5.773223937899832 5.487187919559413 11.78904131999478
Fe 8.109911618149603 8.861554445475003 12.152183465851616
Fe 4.186532470887068 6.983547094652732 10.956915574746594
Fe 12.448865842094996 8.486941454257085 11.618797819180283
Fe 10.299044494160666 7.891144888778692 12.461173528151958
