50
Energy = -352.0618588 eV
Fe 2.525840757094656 6.870245020089862 3.3248960897042665
Fe 4.454338282182632 4.43967226334879 7.47707239131414
Fe 9.46498589744718 3.439915585541338 6.357803389511419
Fe 9.907112852510076 3.3758302936720908 3.8469734936580653
Fe 5.053055572001013 6.17861474229804 9.547905986238982
Fe 3.648125240074749 6.697489739358293 7.148497487942461
Fe 7.421577011438513 2.195760617533314 7.500610946823401
Fe 8.199922859312576 9.185700172569323 5.097828466998108
Fe 7.809476753517556 2.6327121817883308 4.8732771563741455
Fe 6.416318194811842 4.274385675712649 8.927924611155449
Fe 3.9251382751725536 3.167087350086815 4.159810699314551
Fe 9.156729932326094 5.786482940856137 6.950107766274327
Fe 3.5442801540153606 9.255681186596982 6.498046744727115
Fe 8.456375335424225 7.341882861277944 3.1061892132454116
Fe 6.191130595440737 3.679372898936874 3.5565914466055766
Fe 5.575432744391032 2.723313094823071 5.934699989723884
Fe 4.655711400451085 7.32966248792389 4.934016037384772
Fe 2.8557703067346907 5.484528201026077 9.15360530442877
Fe 10.866679720914101 5.0681881265071596 5.263471876975886
Fe 2.8443197619583196 8.869643009141905 1.8935954291824804
Fe 4.482493341720659 8.394201118742462 8.541081622098877
Fe 3.1912257167526326 9.120232468954407 4.111363238794321
Fe 1.8684968246647455 4.855268094755293 7.101146525624769
Fe 7.772526306381517 6.327099819873613 8.986722368455254
Fe 8.45525881978669 8.051863011322407 7.2619720067097795
Fe 5.355732881865022 10.471571075647107 7.662631760802909
Fe 8.7202606191321 3.990354274377184 8.675421842899208
Fe 3.0995029951267816 5.225564692245871 5.18868745363785
Fe 4.258829578090117 5.254555024963402 3.021571668967969
Fe 4.468782495097276 3.7587494013462273 10.058653612441734
Fe 4.699373711586518 7.6115875500734695 2.3391655641450004
Fe 4.921096655444206 2.1817554021837355 8.225597519584255
Fe 6.102906277697239 8.760240400511043 6.461671597660685
Fe 6.346421678863532 8.640042301067576 3.78156858868159
Fe 9.748130448388393 7.2487916306210085 5.1015260872751105
Fe 6.763508456052166 2.2070884748792765 9.757185631147244
Fe 8.370803521562648 5.0522410301132235 4.648176994564211
Fe 5.539330525017501 5.112577655723066 5.2649756204116205
Fe 6.022974580277015 6.520802568487861 7.455820376841462
Fe 5.20379277194313 10.323523811760401 4.981034655485057
Fe 10.224587112683984 5.726605917497636 3.081854414021442
Fe 2.0712085305378007 7.432218091685747 5.564677645522033
Fe 2.6730100101157146 3.087765110397853 8.673986318697962
Fe 6.7697868845423335 8.600174925019042 8.821098399061986
Fe 4.804375601940857 10.084731930780935 2.606571755796691
Fe 7.213272728670797 4.503182907580018 6.741024121601299
Fe 6.446201281186474 6.183648942362271 3.263435826693309
Fe 3.061742219492598 2.839795405580248 6.332735846369362
Fe 7.260060645455212 6.948209528221047 5.390393315769352
Fe 8.194958837587881 4.572362689021448 2.428296797539084
