53
Energy = -372.56317579 eV
Fe 5.50043632450968 3.307069802921105 2.412766168271013
Fe 7.351354727922878 4.632829616299272 3.1011639994841143
Fe 9.193460041487052 6.212871644149883 3.6481662874600116
Fe 7.044789811584958 7.206233293998441 3.0813303207132403
Fe 8.778536611142009 4.435435696964634 5.28033605322168
Fe 7.395318019412085 2.7139361935241695 4.53396248181117
Fe 5.163794828164127 5.677177663188916 3.1350280318000996
Fe 4.697237739989192 8.117627546950253 2.729782357616342
Fe 3.3089735186237474 4.118522702814816 3.2330427122663763
Fe 10.681772022333927 7.914159578144891 4.608584211646901
Fe 8.67476337080111 2.1907170870907886 6.5164115005578145
Fe 2.8543819552985794 6.353049806266335 2.7237894096869817
Fe 8.678193740206726 8.882890067061547 3.7021490273019197
Fe 5.216587885140315 3.5564203650186283 4.6601739718513775
Fe 10.191246497710905 6.133309313999629 6.1168359847060625
Fe 6.599149501187469 5.442857125124165 5.237109657072081
Fe 1.744653818205145 5.43529913763651 4.674168425376627
Fe 6.385198480389915 9.67488917017304 3.191006682116195
Fe 5.692675387140829 7.704714632507533 4.988995395591114
Fe 9.475252338969073 4.1266166635752635 7.560516567714651
Fe 6.896476472706603 3.5749117960708108 6.836182927094841
Fe 11.174813691829526 8.191392492759421 6.948467596812328
Fe 2.955296130355549 3.337497254418465 5.495526099411329
Fe 3.0387500059322883 7.903003478105752 4.466559756884917
Fe 3.9884554725663084 5.799166692257281 5.277941714460295
Fe 8.235971333032314 7.339980841347803 5.47537375842296
Fe 4.589273602438362 9.840199677603385 4.745289587004068
Fe 4.686741849744226 4.090763942504258 6.895554963227564
Fe 7.908614176628492 5.873382848108504 7.433599438227205
Fe 1.7979113001752831 7.103630560726656 6.398683838230023
Fe 2.983431009405129 2.740950690545539 7.895680236104566
Fe 7.07342509044258 9.669474047173386 5.426220362421675
Fe 10.501435084536853 6.2562261595177535 8.424458979998043
Fe 7.80746608391656 2.883385449669277 8.91830717317093
Fe 2.4772953602606926 5.01341110204528 7.087307065586913
Fe 5.30370636650367 6.228287605577662 7.578580568017463
Fe 3.9921645538181285 8.07513693510302 6.655228340888101
Fe 8.552380805018043 5.130874782809027 9.628030355278531
Fe 9.511590911265815 9.629206163533643 5.916112160659879
Fe 5.334812093624906 2.528446475757499 8.500177947178956
Fe 3.0319890776875087 6.728784268462062 8.626581453330711
Fe 6.292875206939848 4.665788993459784 9.043510663779328
Fe 9.024783219677918 8.122418176881697 7.765027937401557
Fe 6.672098862081845 8.146976885250957 7.252601443839994
Fe 3.851395290147345 4.497994642032315 9.174165959230411
Fe 9.34043827977365 7.2614262864981844 10.145277307749017
Fe 5.301913390023194 10.09730595176351 7.089732685136503
Fe 5.040277264231948 6.314322173929181 10.21263595524737
Fe 4.696359477422097 8.305272724572598 8.91152634674804
Fe 7.86450861295178 10.425397041072841 7.549033365857563
Fe 7.038643565534347 7.248532652800992 9.445010961331752
Fe 8.568146163974596 9.399772071757017 9.625949499537413
Fe 6.33454142202192 9.775692856085817 9.296220401043078
