50
Energy = -352.17215746 eV
Fe 5.852516661313635 1.494981732129949 5.074847022655426
Fe 3.605555911766667 2.3616368944717574 4.459824287852002
Fe 7.565754470081526 2.641240913992164 3.9375104634329263
Fe 7.272212479872703 4.991477747879844 3.4588987500039305
Fe 3.0938051649846408 4.165747902447042 2.9354989012144794
Fe 5.573266443558265 1.8894052651472926 7.571201843712109
Fe 3.082328989984642 3.206627402884055 6.797353593990375
Fe 4.612118636743415 7.788996625009744 1.6639753475122623
Fe 5.492888699021568 5.895426394480921 4.677390852294369
Fe 6.80398536059097 7.1982149203347845 2.6249548199517756
Fe 5.105845890478542 8.183852088924718 4.044640091087395
Fe 10.955024481461763 8.034387822400307 6.844048911413839
Fe 7.775974488241518 2.5015890293896454 6.20698603267257
Fe 3.3820392573178966 4.84632556412152 5.142715191005888
Fe 9.05037757908768 4.417296320761101 7.346003779722922
Fe 9.249668573194738 4.329447466473938 4.769901828358957
Fe 6.785650731267507 3.8580477765065924 7.939951781117041
Fe 5.244292396325068 3.5313295281378143 6.025605094816546
Fe 2.6203070059175317 5.5639331685083055 7.3820533336263345
Fe 7.211146348268377 4.823467115553977 5.842961508126223
Fe 5.36352918737273 3.638762965854572 3.7257245631609224
Fe 8.432990956675544 5.016488741204445 9.552673658502943
Fe 6.099657769009641 5.177617278623695 9.630272369681627
Fe 9.346108844391173 6.37079475366078 3.395155166813366
Fe 3.6894276605764356 6.024245511325503 9.57006665398987
Fe 4.423337373924945 3.872735008780264 8.592496168273296
Fe 5.329664862393053 6.8823361690097755 11.259341733358259
Fe 7.635030152737508 7.017411256089754 4.909945381103263
Fe 7.441078064974611 6.318943284492179 7.723726485449608
Fe 7.613281704874423 7.0938790971456385 10.33988524795114
Fe 3.358463899100685 6.580683782440923 3.342084304128742
Fe 5.021074731038493 5.675938825906276 7.200825331181664
Fe 9.448231287904616 7.016340793843179 8.512478667809017
Fe 5.576590161791303 7.335866429381937 8.91893736209947
Fe 9.540754521920745 6.3067467184520485 6.062745716455244
Fe 5.063436877545416 5.441379599685499 2.227862698721043
Fe 6.0005263480209665 7.929420035616056 6.535497936409468
Fe 3.5898265661861233 7.888170189667694 7.82494476717521
Fe 3.770695186896365 8.525182002930158 10.133673113286989
Fe 9.832715020681716 8.28602140499689 4.680677943026356
Fe 3.5632546936063054 7.250360896401311 5.62856584105924
Fe 8.54505112949591 8.560997618830154 6.646946577001174
Fe 6.036088125508116 9.100429677803483 10.621275834931614
Fe 7.43841663189229 8.828824480039048 8.652790594506673
Fe 6.090194393914195 9.521094463043573 2.4584099241366273
Fe 4.59876488948636 9.625057421078044 5.881537024192865
Fe 5.101337597585171 9.728270884005028 8.371783322442328
Fe 8.565691729670117 8.696859879229203 2.771639988349906
Fe 6.827780375099622 10.338952871977188 6.796834636924155
Fe 7.22574076358615 9.318312849771615 4.633628742104205
