5
Energy = -27.69345459 eV
Fe 7.003294113883345 6.370151116550217 7.841852035130176
Fe 4.87493083386601 6.226834183149928 7.165415355772181
Fe 6.5961316430652515 5.298423698745468 5.650408996489471
Fe 8.19879545631233 7.119009861868269 6.10066065628395
Fe 6.048146396757371 7.7068795835700845 5.962961400208416
