54
Energy = -379.59775985 eV
Fe 4.38343051356346 4.177140724612614 0.2157938038433433
Fe 5.508900355532527 6.342759875802445 0.5673227432261503
Fe 3.0506493775504913 6.119250000909836 0.9684665786505435
Fe 6.287521172634272 3.1246841974525954 1.3618708271149635
Fe 7.423461787595421 5.396363862956744 1.8049627016505638
Fe 2.7093458055086312 3.791099174546809 1.9485273339118738
Fe 4.206118976380615 1.885047596005912 1.106581998647224
Fe 4.388244691208706 7.5154041408224295 2.597776015023654
Fe 6.753075437823928 7.780404037879417 2.107761979209723
Fe 1.9269930455826287 7.664885116623868 2.5883769033074904
Fe 4.900879171613195 5.0705806521675125 2.3955462161712267
Fe 8.616907960883427 3.3021871875559805 2.4368483352431936
Fe 0.9332835187785632 5.375800917555168 2.099468559798814
Fe 6.963572449247907 1.5873217605226593 3.4031371452391657
Fe 6.313042559595025 6.349036489484372 3.910424001398702
Fe 6.631272489716477 3.9847619192045203 3.604945723769073
Fe 0.6985350671577242 3.1899129165259135 3.2910098278070024
Fe 2.945936421172452 5.697499640114386 3.4796235785835914
Fe 2.501522527319142 1.4349440415699901 2.836921261280641
Fe 4.830089820016959 0.48059390842941074 2.96774415130864
Fe 8.666853548043544 5.295083375451796 3.9384917549791867
Fe 5.868860611607805 8.850721852418408 4.188685064774076
Fe 2.714800595099505 3.537832443306383 4.370911720311589
Fe 3.383670776090536 9.05355496158974 4.183026275775995
Fe 4.602416095453143 2.8078919248139425 3.2860153808665933
Fe 0.6898275307371605 5.295241742096111 4.426887831603878
Fe 8.083771628621214 7.757049917174326 4.319192195029106
Fe 1.3651601800150956 1.539435306414975 5.006229980726282
Fe 5.81177733248338 2.684909318792811 5.447945944685785
Fe 3.6711493521664678 1.3062278920321346 5.095348513504659
Fe 8.37347364790864 3.032306815719569 4.939418205731074
Fe 5.89264728342214 0.2892095160517489 5.2052682472175364
Fe 1.80093157055993 7.477541635356816 4.928160863606089
Fe 2.71327877665764 5.38051250197947 5.778197306005972
Fe 1.3443294966482462 3.587706709312336 6.312440826992331
Fe 6.77733607276443 4.907622108614418 5.78749392617119
Fe 8.572720388662562 6.243261436451138 6.224336059139418
Fe 4.634845272344825 8.961187540047959 6.284714069232619
Fe 4.284544934570426 6.948305215705582 5.01376893008851
Fe 7.350020768092472 1.6135051637633715 6.738229355080917
Fe 4.815747885994893 5.563665057415627 6.8132507760423
Fe 6.4206149715266205 7.423597637906399 6.223906748532092
Fe 3.7917352419663084 3.4203334141928208 6.423450597229898
Fe 0.9214111094965435 5.990058546298194 6.893216287580535
Fe 2.4808668381593106 1.6218646588083265 7.241403481074972
Fe 4.916287949492118 1.2486359541502068 7.283246185685846
Fe 8.210394578426014 3.824588022239316 7.253671229132205
Fe 3.134712201152119 7.226892834716715 7.129568145793932
Fe 2.784552496553008 4.836847829171798 8.133997544157907
Fe 6.998170273251959 5.830158866394688 8.157281300835361
Fe 5.86979723091382 3.5471897921245192 7.799159258405592
Fe 5.2517603830864745 7.439254273482559 8.304966050790396
Fe 4.869294565753528 5.235690242123518 9.229409836951637
Fe 3.8505143498549415 2.843496419598444 8.836659507537094
