53
Energy = -375.04474559 eV
Fe 8.66052187750058 8.289281560819225 9.94930222426977
Fe 6.542357109355916 7.12716604805872 10.260627694656305
Fe 8.847112288335742 5.907448750766885 9.247567506326812
Fe 9.32264579408728 3.545368448559959 8.811580137160412
Fe 4.507528936537527 5.844590472422467 10.375174426124358
Fe 6.554074611815303 9.443628081749592 8.964067651861454
Fe 7.088705943452056 4.768190231382798 10.31446945388144
Fe 4.7177617704444 7.973177952930775 8.676827264779828
Fe 8.67564367934306 9.71169536790989 8.017769847183038
Fe 7.459246654691049 7.310564168176324 8.070828947527021
Fe 7.479944778245108 4.4560257255248175 7.860602790305106
Fe 6.673391130430739 10.533981650427137 6.82282972218287
Fe 7.420155915623683 2.4071683890090236 9.603037015494053
Fe 5.53396699420748 5.800285312264431 8.366478521908828
Fe 2.813683977522935 6.697069360157598 8.576182663980921
Fe 4.459780617381659 10.062895453541127 7.542712738363282
Fe 3.29568727678398 4.459875674421923 8.546195409245867
Fe 3.283219044123605 8.249257357010366 6.422916061625631
Fe 5.8587843847308525 8.120612413824029 6.524758319421767
Fe 8.533165925721688 8.328795517854994 6.204751958930133
Fe 8.974833941122974 5.88400150297442 6.52772229276766
Fe 5.316416297846367 3.4497921759534194 9.284083239150181
Fe 8.80801688033735 10.810628078717317 5.885555546507717
Fe 4.044332302808076 6.081901703742606 6.603754206678393
Fe 9.33703111696169 3.5301564325263137 6.34709649325034
Fe 5.580436597214991 1.295834425457867 8.203115114450446
Fe 2.899784358322503 8.744214876254386 4.096926058630325
Fe 9.284804919408687 9.280385197613688 4.205167339926442
Fe 6.527086378203689 5.802391213381569 5.99803321946584
Fe 7.619305498201372 2.0939587732523375 7.264056584312981
Fe 6.974911427529539 9.535479592188679 4.631218960024947
Fe 9.803138238663252 6.985354368225443 4.340736383978442
Fe 5.179441405223115 3.7186556162860893 6.946445668882032
Fe 4.681054507125165 9.907020765275705 5.172198095720895
Fe 5.016558201987774 7.2305385159551205 4.409323056691162
Fe 7.484308819663289 7.245299177415653 4.275671100899432
Fe 2.7844578161836306 6.404882428303878 4.485504523738204
Fe 8.651584718914515 4.890304277923604 4.377792672352408
Fe 3.4857571202310216 2.168981805484761 7.533480293608654
Fe 9.876133882024703 8.199362278701827 2.165885293842571
Fe 4.562630511273241 4.595032145857969 4.793064124016433
Fe 2.6455213466925716 4.165536578296857 6.247493325504993
Fe 5.608053072132508 1.5231414818260394 5.845471680792938
Fe 6.996340764438528 3.4897442252003796 5.336408469146839
Fe 3.6095573425151004 7.522218232136971 2.2051051288321073
Fe 7.776287082190874 8.736814382842244 2.314756622275228
Fe 5.260792573910986 9.100687794695649 2.923089272306261
Fe 8.353296167181274 6.257776044306182 2.3185909424267943
Fe 3.555222555700193 2.3241551026192027 5.127175770214624
Fe 4.141201134355878 5.345744889501957 2.6607059964023003
Fe 6.469512742618808 5.1197888223933825 3.4196426311079877
Fe 5.99719927688425 6.973727232658441 2.048981900208667
Fe 5.41835790807231 2.878556617356694 3.578642679709227
