5
Energy = -28.96563065
Fe 7.914032661368563 7.686987919458985 8.743394171957172
Fe 6.286038216667469 7.6587226374211514 8.05191072475337
Fe 7.4676207182341665 6.9001123528629185 7.204142933293481
Fe 9.11641953947783 8.014352667255023 7.552419298433562
Fe 7.467620718234165 8.550010569019353 7.258321017580324
