54
Energy = -366.06275758 eV
Fe 6.1044864841714 2.7560325435475814 9.242709004427967
Fe 8.415934611234944 11.477464967931128 10.459809818069237
Fe 3.4964328947695495 7.90486632116821 5.087622231152487
Fe 4.147421507253416 7.819312104498992 7.572659921070415
Fe 8.447654694130293 3.3877962358940703 4.8956151625075695
Fe 3.1798518369217637 9.682226803518585 6.683420104223495
Fe 10.799463018155402 5.070288370255764 5.050805276699908
Fe 7.856423799179503 11.869521582584937 6.1786766630042855
Fe 10.14741993113513 11.26248705287423 6.186875607774931
Fe 4.407412299786988 10.355960981875024 8.624037820709344
Fe 11.43533218057195 7.608988171473898 4.585868728139719
Fe 9.255332737569905 6.813798619566976 4.3175827091449905
Fe 6.068791210668324 8.88171138149752 8.141152451063318
Fe 8.49632158032105 7.377008831750051 11.174968949236039
Fe 4.812906458764889 7.149205202977185 13.426607040605369
Fe 4.665477814840888 6.438194111873682 11.20671221075587
Fe 10.552602879582464 9.096245652419816 7.813558395265918
Fe 6.893436988463925 6.677086268257143 7.406947740659986
Fe 9.226799330274213 11.069196646518801 8.227581307660147
Fe 8.516732162758284 11.598027074027739 12.814976698269632
Fe 5.359147493649464 7.956080737166766 3.6623543407415258
Fe 9.874712139106396 6.883877642256688 9.304446776480685
Fe 8.227987799117484 2.960298940014317 9.434590350289891
Fe 4.708599982214569 5.758444807119281 3.7768304335271394
Fe 7.013944578231898 9.569943056700973 10.269371342851404
Fe 8.349522226078335 8.40176704333273 8.481126326566061
Fe 11.941039735356922 6.394491017638826 8.667672773090125
Fe 6.3465022378887515 4.489191726663284 5.256189475346679
Fe 5.627479111133655 8.9721112478355 5.822007707224745
Fe 6.674780676325497 7.074282301555927 9.65274001682453
Fe 9.962772661939962 9.083462294385043 5.4734213467206425
Fe 9.694803062328578 9.398449889487923 10.134955912822463
Fe 6.945765529846637 6.784460092358447 4.876321207358959
Fe 12.320895886811437 6.455990049459525 6.382550660441578
Fe 4.645531434093892 8.495166709781273 10.152245792273018
Fe 5.672170704855067 4.303757033728538 7.443661080609682
Fe 2.6732897833309726 8.51145611885085 9.01300356080731
Fe 7.963898912692988 9.63781528187001 6.5844608932844855
Fe 11.041538969441051 6.799045286764028 11.148384072428014
Fe 4.930667910245249 6.021390943373637 8.684853937730244
Fe 9.106134388358049 13.31023556040515 7.76620716499187
Fe 9.890589420447881 7.036218484561236 6.835710234843117
Fe 11.152168743885818 13.081942284080197 7.152845698038795
Fe 7.818046404058909 3.2686835820364935 7.238938025801285
Fe 12.883662006967787 4.520325792319678 7.503139485452164
Fe 10.420290082962365 4.601121433422952 7.438527751500634
Fe 7.761732370758778 9.049925858158996 4.282665687821844
Fe 8.367770574217705 9.494534917450354 12.180356238811319
Fe 6.816712416224585 11.119477405662101 8.291171122253127
Fe 4.813186740504358 6.30106519061987 5.982655955341222
Fe 9.934196317200675 8.786445409196668 3.1763821409828874
Fe 7.581773524544166 5.015190981474088 8.96851351809779
Fe 8.42538602451438 5.214031416938944 6.16803709778014
Fe 6.320132453432028 7.838295675863266 11.958128627025006
