53
Energy = -376.76075835 eV
Fe 5.052035429603203 5.096787624366006 1.6921031645385776
Fe 6.624616014537783 6.661069398181753 1.9463499748102384
Fe 2.6469082445161374 5.666775740614764 2.1125730013252007
Fe 6.352882656516327 3.347107504732782 0.49692445528883955
Fe 3.401912373468224 3.2318095954984463 1.2126184222623662
Fe 4.978869482691416 1.174302832804527 1.1297404280677232
Fe 6.0531131175184845 8.657836518061433 3.0049299811495422
Fe 4.152134345570989 7.574897221741315 1.8200174172275678
Fe 7.574817336169067 4.368151591346551 2.341697011735998
Fe 1.4150077180105578 3.3902444660429074 3.1252035945776893
Fe 6.055013963333217 4.628320651868666 4.135427363963329
Fe 7.45124556021461 1.6198458807700409 2.037168306755549
Fe 3.709380528586443 4.120245747801522 3.422715118290806
Fe 3.3521625476251056 1.57971897159701 2.983567883987552
Fe 7.279825947867207 6.7202798943491135 4.19117708089807
Fe 2.1380800211208904 7.463981647137449 3.6115841961004147
Fe 5.5266014622896416 2.8746634185021063 2.494230952946743
Fe 5.666388284812273 10.467692165507998 4.725547970871049
Fe 5.825027331864969 0.5660591217318526 3.458345314386008
Fe 4.558250516882039 6.481259373594061 3.8490533470901034
Fe 8.034305475944725 0.4545668919103844 4.490184098846073
Fe 7.793999782190345 9.024599233964972 4.745449928938812
Fe 3.820772164509326 9.023695111602677 4.02011220205535
Fe 1.2600417416191632 1.2365787335997946 4.275675635793313
Fe 7.413722410468574 2.6461521381703625 4.189158373713988
Fe 2.6451265114922107 2.8398395325100734 5.1682420190110205
Fe 5.6704092159944635 8.113610091911514 5.331877282580213
Fe 4.938685430622744 2.4077865530861047 4.713491605015503
Fe 3.59987171610882 0.4915083207006612 5.229199799261688
Fe 2.0573633353896916 5.334976954597819 4.6469158655053855
Fe 1.9166111998691957 8.792102065852282 5.7110299550065875
Fe 1.833464508191352 1.4348601568837227 6.739221342235565
Fe 8.202442958577928 4.803103427800403 5.400297040964745
Fe 0.5594008329472482 3.624315060954441 5.584700049202718
Fe 6.279327559316973 3.471168925571206 6.266569962209454
Fe 6.31520476100548 0.9624378725030941 6.005729745410849
Fe 4.052611415275613 9.68622980425524 6.430848942885511
Fe 3.536341054576622 7.144797361519074 5.886459704978124
Fe 7.694974350215978 7.31773587173811 6.739457480744216
Fe 6.691574556204733 9.694841952093835 6.8006766998750905
Fe 5.919059420472598 5.932752752435143 6.347254762899053
Fe 1.6452799555737168 6.1050741004032645 6.819069084681517
Fe 4.077617130873815 4.618527327935857 5.870935846953029
Fe 8.412124608183234 2.4018952499977915 6.377502719595634
Fe 4.249596413771506 2.171678039549768 7.062939956422108
Fe 2.4128191639238072 3.882570590594225 7.403288277852284
Fe 2.777058177277295 8.205846538055688 7.943708637172041
Fe 7.709926385793377 4.6293969658099385 7.729200148604777
Fe 6.703535947449954 2.173640218414564 8.147498117367125
Fe 5.218116224650956 7.992838573359099 7.7021366334160195
Fe 3.8395257488777306 5.992125988332517 8.070983084541155
Fe 6.388363642515322 6.253976778866736 8.781345102472747
Fe 5.218515443308282 4.145783575160874 8.279927033906302
