50
Energy = -351.70780235 eV
Fe 10.336718829226124 4.8942804305710315 3.8907831650548315
Fe 8.545342663320776 4.200479970476884 2.4441665366536776
Fe 8.72616126871448 3.185104555801685 4.67190896073537
Fe 9.033364615947882 6.884667520020888 2.650750999955788
Fe 9.463041439383185 5.133649279664728 6.137499343574207
Fe 10.389965020546796 7.216688129227349 4.703559582586777
Fe 8.03345502625762 2.706736600638487 7.329323407605568
Fe 9.812509603593078 7.417754907239953 7.044466081678344
Fe 9.739343283038682 9.601814814517713 5.732030109702055
Fe 8.05864919881555 5.639907068211099 4.316517757075912
Fe 9.048136431273262 9.211883203801744 3.4632135777226893
Fe 8.376388686148873 4.85750816525837 8.281680859543833
Fe 7.046438864477518 4.22555781492054 6.051968952041509
Fe 6.710860036972291 5.937941174008001 2.267369197257116
Fe 6.507655615265015 3.8741227239275227 3.66021243909832
Fe 5.331647513500142 2.519838951542778 7.2453083935227545
Fe 6.471966968448311 2.060802491566915 5.132377535650549
Fe 6.4090239014203005 3.486818573291419 9.042305678900465
Fe 6.801328680536901 8.157839392753399 3.373645931605567
Fe 8.20882326009884 7.8032316344681005 5.128472971413589
Fe 7.478805356787692 6.527414578298649 6.891146851944912
Fe 8.156403802353028 7.528155375179289 9.084850253365794
Fe 7.388768619282115 10.13660804727611 5.06211553295631
Fe 5.672581813433753 5.203300407218158 7.618166037199733
Fe 7.917804123350929 9.052342569767838 7.1951888073926735
Fe 4.22946748356997 1.3701381006613427 5.427549237009257
Fe 4.56402117212463 4.03589344179608 5.52198145160399
Fe 4.60643187151712 2.4450344807738023 3.3997151740896623
Fe 5.881968421016329 7.819262441183841 8.041913692494878
Fe 4.660774366014633 7.173537635451429 2.8499184541912674
Fe 7.000821341376289 9.652142979256922 9.365906384201459
Fe 6.580205778271959 5.8917922489476995 9.634736030513167
Fe 5.846850457431862 8.390250657470537 5.7046886127089405
Fe 5.7294386446322285 6.138802481668129 4.78601892136618
Fe 4.474183197616339 4.785668762027414 2.858139641460634
Fe 5.792772175319694 10.238063458272748 7.351071454708131
Fe 5.830597603543374 7.938989082669939 10.473135895430268
Fe 3.684121378584719 4.114053400323797 8.04414663688933
Fe 2.67532720328967 2.506775746850748 6.623873309078752
Fe 2.66805830459899 3.320204910120076 4.325385351953718
Fe 3.8908880088944717 6.401051522989138 6.713852235054967
Fe 4.404237069725161 9.358204159510102 9.209969668878644
Fe 2.0242488971949983 4.7431936753762045 6.228351753930269
Fe 3.5879533282347578 8.092690613909031 4.7704420373403655
Fe 4.142494180830381 6.622297064820616 9.125592429418832
Fe 3.144470327825395 5.839195840268762 4.422036475901951
Fe 3.791794429986885 8.78689174365656 7.021404659662125
Fe 1.9002197385956656 5.65055480985551 8.337402660866122
Fe 1.751714705669297 7.190887726684841 6.202415548530689
Fe 2.2546007726572728 7.9065897249690735 8.467358641080098
