53
Energy = -374.49366082 eV
Fe 6.701168460914157 5.418300677020991 2.3869096312880735
Fe 6.991935194848877 3.2318404603240656 3.3486100678858053
Fe 9.057862198938453 4.624626749687315 2.72527515325346
Fe 4.684379607200218 3.714172801268126 2.6593903534614234
Fe 4.966717480719564 2.462804423646758 4.77601296813247
Fe 10.631631164525551 6.491442410896915 2.379997028971662
Fe 7.199491762613131 3.1539068371582415 5.720109830234353
Fe 4.513888866515744 6.156284528525808 2.2929634393524294
Fe 8.368040731178759 6.997691097296738 3.121286461162608
Fe 9.322785220846676 3.4021140569858916 4.662905950295507
Fe 7.743761879441373 5.23300794613593 4.663874076914339
Fe 3.2205664556381164 4.343798421491342 5.444102856650795
Fe 3.4300622245472034 6.4322997809495135 4.307963279077298
Fe 10.057234339341607 5.898609025165525 4.671616322003811
Fe 5.728630305866542 1.5060607236998451 6.99095946356877
Fe 4.21066639978599 8.445725781585562 2.9185546821377986
Fe 7.157422823479144 3.2178906317710014 8.085914739522226
Fe 5.352396958963429 4.864953365503263 4.511908299452433
Fe 9.285576476226057 5.061427680666685 6.838943112761183
Fe 6.433507637122168 8.13228106975147 2.1769397876655026
Fe 10.077439966299295 8.280235197942787 4.1314800530936715
Fe 3.4824611905521063 2.2416576887539725 6.768018364039854
Fe 7.012806721998645 5.542875639673614 6.886144828053261
Fe 5.2317488020461065 3.905451175338254 6.777681063810512
Fe 8.227136261402558 7.394993638469065 5.770306215087724
Fe 6.024504678191323 7.208684817353154 4.273334117326973
Fe 4.838184247631531 2.715838161693512 8.935007035044713
Fe 10.391814890426827 7.617040236504681 6.584158558120755
Fe 8.17655306907642 4.960293316410123 9.158309710365039
Fe 7.8030005258648885 9.163193988259753 4.1278380904384715
Fe 9.56391908091029 9.795756916302059 5.822014106804519
Fe 3.8931101532763166 8.500081337476113 5.292811599923838
Fe 5.613872519123961 9.966002877678896 4.222072242513509
Fe 4.8022049058039205 6.359213334780007 6.5503542525728164
Fe 3.220214935623024 4.629164244762451 7.843919516595215
Fe 5.659878945944538 5.076331005138175 8.99714863051766
Fe 6.138137790505707 8.622501296132526 6.226030185057609
Fe 8.888648393420103 7.021374801583191 8.379223843106201
Fe 2.5467301022303537 6.747375143273784 6.661467246566377
Fe 2.5301185947199594 2.6629576820050866 8.89824800233131
Fe 6.387356985448147 7.43485258020099 8.272470300384425
Fe 8.216278806033603 9.079614347545528 7.561448475461487
Fe 7.189608194482025 10.730884386796282 6.0967515224139195
Fe 7.112959023643352 6.713404859327405 10.43731251220325
Fe 3.5410869115175214 4.48292497006688 10.173755083911024
Fe 4.629664704110189 10.613203405944846 6.387128009939386
Fe 4.081168021013932 8.643981333442744 7.685214330254818
Fe 3.860232638007348 6.706079127161332 8.962438775501981
Fe 7.542021720013166 8.972408156718473 9.933014074902706
Fe 4.807057993244488 6.372447813767972 11.125820862867785
Fe 6.070304873241105 10.07424313959777 8.292792367718432
Fe 5.066067748839606 8.608236928884901 9.992786497656576
Fe 6.170066970990458 8.188110585969042 11.92406246046507
