53
Energy = -374.56959981 eV
Fe 5.218066412213525 4.930228893348751 2.051887593707683
Fe 7.225474941175833 3.9601276900902165 2.8431152327890725
Fe 5.055860864759105 2.7583529676090164 3.20398452827998
Fe 4.570225782730671 6.9739033040805545 2.964861162506397
Fe 3.3577998600973147 4.698467767459827 3.404474290497254
Fe 7.280275013010997 1.4043759395748157 3.257190996843779
Fe 6.9384693600045875 6.336017142894556 3.2850759939682095
Fe 9.172350447100646 2.7140954154347283 3.501466225515097
Fe 6.385403799826787 8.44864122829627 4.0046128995958306
Fe 9.21256108339266 5.348628581800896 3.6309715417095862
Fe 3.7617856813268227 9.03049085156518 4.20507202733911
Fe 5.862585218915335 10.761957122347212 4.153279047101703
Fe 8.723463110753425 7.642406357344542 4.876186019277674
Fe 5.550592806860894 4.732282073824953 4.588410533508354
Fe 2.551178846298586 6.789723994105101 4.4051722361420556
Fe 5.7922000790192945 1.4926655292731277 5.083580812871439
Fe 7.3490577250276345 3.177966031268536 4.999071073876621
Fe 3.622023050056136 2.996887422081454 5.121886033122666
Fe 7.6031745639818835 9.936656288475017 5.666434104728931
Fe 1.7412242897895636 4.5944676227738555 5.1349637043417875
Fe 5.060134549818363 7.0013095655777535 5.23465831588859
Fe 8.594335082883426 1.2523475063643148 5.387152221132014
Fe 7.642320575176773 5.535577787689918 5.324343750656562
Fe 9.562234483889025 3.747955473741325 5.591233756372455
Fe 10.265236423350448 5.970151268901884 5.705595192374583
Fe 4.060776452641283 11.634678727616437 5.170722557234803
Fe 2.6095265521302133 10.137387795109275 6.153413953949349
Fe 3.7884728051233036 5.28798926275322 6.0881558401822025
Fe 6.901841403948242 7.794634778079791 6.3688749612499125
Fe 5.044267113462847 9.414891683654485 6.085324983333014
Fe 6.257098814060703 11.686100225596379 6.387013595320681
Fe 2.9729453129067984 7.858417910389296 6.441247331092724
Fe 7.874760517288787 4.004425439392242 7.19958991020822
Fe 5.443005243893806 3.4321611979096027 6.550967661949758
Fe 4.340523243271819 11.4072250201986 7.57993092337048
Fe 8.675509131638027 8.836555314966734 7.538998845244395
Fe 6.220110156644639 5.596516341031049 7.3347509178605605
Fe 1.8969790426457427 5.921026151370624 7.205580617863474
Fe 8.70255816725945 6.415540970960781 7.338698132982608
Fe 4.88790745209193 7.403829726751698 7.72432592887124
Fe 9.61552950792798 2.1847258098544895 7.421039282258425
Fe 9.965211273804195 4.4816027578278295 8.095655777634944
Fe 7.228993120299036 1.7873014742676125 7.26455755386547
Fe 3.600258406654891 9.331842068957084 8.30321903529086
Fe 6.258272501638605 9.681442216166255 8.094341622675099
Fe 3.975856585552585 4.762324236635017 8.308284517616535
Fe 7.125947050936057 7.512097111916181 8.879563960303479
Fe 7.908397836900353 5.2772040645581075 9.408886567485702
Fe 3.134619259694069 6.93736835931342 9.12801727485293
Fe 6.169387255209318 3.595508173401997 8.916013471630844
Fe 8.371916241624138 2.875830808681465 9.354254086734233
Fe 5.490906900626325 5.8971262903442385 9.783019231305738
Fe 5.09842014366315 8.326593801372454 9.968903708484572
