50
Energy = -352.5189667 eV
Fe 4.268720737950173 4.376349478519576 0.8451435890997147
Fe 5.086390231721471 2.1629422200541497 1.1647953262479755
Fe 6.61783473784465 4.219452030064017 1.0473316822441832
Fe 5.545028590437624 5.992120973094511 2.3481267668115975
Fe 7.956522371863596 6.360937533072091 2.113351442662314
Fe 0.9702120543970949 3.626206601042336 2.802031688037831
Fe 2.9924282338853048 2.7576478222095373 2.2524696236543127
Fe 3.9054232537481064 7.6352090691348495 1.8492204365692892
Fe 4.931159256799288 3.625606420605908 3.126660007756395
Fe 3.150532018302777 5.480440701370979 2.7621472318605838
Fe 8.936700060094356 4.065176740043069 1.979936303271518
Fe 7.083322411755707 2.311373632851726 2.523923052760529
Fe 6.175060498469489 8.315466335638977 2.8137598593257986
Fe 2.1119667301512886 7.690999469983522 3.5472851292254637
Fe 0.24769927475745565 3.1708603910570927 4.959875309715881
Fe 7.083598033091915 4.517942324842445 3.41583359476449
Fe 9.3645568081166 5.535852568661152 3.973695366507234
Fe 2.662592692871084 3.8433914382350323 4.550147216230335
Fe 4.695704010114528 1.3587899225436528 3.5003829746930237
Fe 4.0251806005877135 9.34893615022816 3.708375955576966
Fe 0.8968105592602609 5.521470974728276 4.012163058944826
Fe 2.165304607321967 1.6022778774740623 4.317629794830151
Fe 4.588671506345254 7.189312513221604 4.194567766310843
Fe 6.514658299791239 2.6137325236013793 4.860335199410353
Fe 8.914081472485703 3.0696960193105562 4.130355787772957
Fe 7.727804305265508 4.5950074158992225 5.5919635875127245
Fe 2.007312265275963 2.5323211377725507 6.66132391365671
Fe 2.7985104289729046 6.112694812225383 5.152798748835129
Fe 9.888132426387042 5.490716648169325 5.433619777528211
Fe 7.093707334282168 6.76184429886687 4.452429191453122
Fe 9.888132426387042 4.256217088301255 6.167557698811935
Fe 5.80663878311198 8.552362031354551 5.517227971958819
Fe 5.147676937783173 5.004071989460175 4.921258713597568
Fe 0.7752664755689178 7.298823108166407 5.815011182596678
Fe 3.0343500487569144 8.407746427347904 5.834748325221355
Fe 8.90558133056523 6.578336705236253 6.149535013792974
Fe 1.1017700526272387 4.8562404162995865 6.444004621984997
Fe 4.520916667346439 6.731168540444435 6.673876753510244
Fe 4.262408923209579 2.4367081349032023 5.617344971581555
Fe 3.550901659630674 4.569834210211757 6.8009016988037105
Fe 5.885175352616834 3.937640181647912 6.859786917590837
Fe 8.011194620435113 4.861425027333634 8.009292482335871
Fe 8.025476142934469 2.637612121976076 6.915002969583181
Fe 4.150109965169729 2.6129025892184172 8.119431310985139
Fe 2.337854582875413 6.596287777428259 7.6105376419788975
Fe 6.675721013869553 6.406018781050945 6.867899876015163
Fe 5.9566715852167516 1.4481154263810114 7.031878130714774
Fe 2.211353813172854 4.160686038363473 8.539159044027734
Fe 5.03940875925247 5.113256332445274 8.581323727842022
Fe 6.50110594138772 3.120594049394804 8.90336458528405
