50
Energy = -352.27614274 eV
Fe 4.1103868216617965 4.58651221094552 0.5391819496477335
Fe 6.652365375251284 3.7714469662305974 0.31655365023818227
Fe 8.163167236225854 5.0661976618133195 1.8662866563813545
Fe 4.963789047241861 2.4145197852853717 1.3326443644716846
Fe 7.394917510687322 2.695637132549463 2.2516169143616174
Fe 1.6519159963984398 5.390772278554155 0.9040087320241657
Fe 2.339366944318576 3.2054489379790048 1.5336840270552934
Fe 3.3053373900226224 5.670486105895254 2.481655428245667
Fe 5.685258783354331 1.187008006437162 3.3146222575436766
Fe 1.5319071131527768 7.1779489134653565 2.769723457386225
Fe 5.742419708453711 4.812874632721738 2.1721264120833235
Fe 9.491992372894178 6.048135499600358 3.79943106172978
Fe 5.216620870823635 7.237396989034447 2.9706771586168568
Fe 8.83031080831034 3.7974154207854376 3.95518490692311
Fe 3.258917115920871 1.1113416097214288 2.5759866773312496
Fe 3.946111814835582 3.4023234453811853 3.208267496624347
Fe 0.8429570620496883 6.4886001527556525 5.038931576027312
Fe 1.5802161995305002 8.701835401925099 4.719609620707598
Fe 0.8628133434701721 4.783335707037714 3.0194986399215344
Fe 6.210355914401171 3.3582095991684975 4.220596695471935
Fe 3.3419934470407906 7.2222925522021795 4.420011272084476
Fe 1.6955013038318252 2.534751709412681 3.8558396310922074
Fe 2.5278957402847446 4.815598371026522 4.73251943449703
Fe 4.848548326970569 5.436413118421272 4.284833389854423
Fe 7.192396611439184 5.803367506838518 3.9292411975643264
Fe 7.900873379580839 1.5125626431719739 4.401911331604655
Fe 0.3353471710354483 4.063056704927623 5.336882866480608
Fe 3.888376373318188 1.6130105402092636 4.87895927628952
Fe 4.019875394584529 9.06673373168939 5.55349125242561
Fe 5.615261524372526 7.44204513922226 5.320761238042568
Fe 7.9703360747205965 7.564069219757308 5.23666423497735
Fe 4.504101240624113 3.674342549127436 5.967980258775389
Fe 2.1998031838311016 2.92873890088149 6.340889433017414
Fe 6.061982367447676 1.4579190366063601 5.9528206994470105
Fe 8.862515042398433 5.495000235325564 6.047594866195737
Fe 2.259749746761559 7.71165835373697 6.746325570273655
Fe 6.371218598006524 5.318187523145295 6.214772224630212
Fe 3.846916841275924 5.982927907588554 6.477664220872337
Fe 7.803413796857825 3.2874042145928453 6.028995473659031
Fe 1.535434763702526 5.337994504640314 7.070872018559362
Fe 6.4633207004141395 9.088743812387085 6.622978754020414
Fe 4.002263318271311 1.6136829781189006 7.321486122597993
Fe 7.219181713064657 7.050332917752571 7.49655871046926
Fe 4.788364733766058 7.813975930137114 7.678874105363175
Fe 3.42464839290651 3.9315375870448466 8.21221487749114
Fe 5.809665325640417 3.1202549960207397 7.80675360318643
Fe 7.695713810996152 1.8531197857447996 7.802411431926557
Fe 7.6588958755092325 4.553765747957817 8.11166495889475
Fe 5.339789056744263 5.472568760974904 8.454048887915416
Fe 3.0406225815615766 6.331630430014223 8.708824840962883
