55
Energy = -392.19484981 eV
Fe 2.8792286164761545 4.553479514497511 8.938001318949844
Fe 4.428393567829383 2.1899223910207604 5.2633215015479395
Fe 3.025706828858219 4.469513151617395 6.118948815698392
Fe 4.404578018684475 2.95380905710724 7.733258675192688
Fe 2.4799406258008174 6.570127109399851 7.445208972049256
Fe 6.396609728036637 2.357990201619315 9.08513266110615
Fe 4.444130883165506 4.4118906949682 3.5940055002254034
Fe 6.548312458016531 2.082199105647239 6.453895527118321
Fe 5.320620038912716 4.472835644425196 9.897105434728141
Fe 4.583094194256668 5.418216679111574 7.645793613250567
Fe 4.08823297027044 6.596938971461302 9.770572943363998
Fe 5.355875937120198 4.25023372974292 5.7298195017327345
Fe 6.495962715726135 2.9015525954818484 3.948752029220401
Fe 2.895768700607396 8.638393572673332 8.854878916581683
Fe 4.3037031447104805 6.576541332904141 5.15772540407216
Fe 6.582218534426789 4.196610310427085 7.803120177975065
Fe 3.0312897792735227 8.670022926183293 6.116875870048378
Fe 4.598357241636353 7.710567092568531 7.605095483551104
Fe 6.761137354672882 4.512381140437613 2.020998904313323
Fe 8.574025508161201 2.2206280493958337 5.038518267785366
Fe 5.242363406322256 6.538111783102467 2.473618793498756
Fe 8.652570116526553 2.9850015466261737 7.686770241001493
Fe 7.849715497633039 4.481434213304324 9.82865681787067
Fe 6.435941870969943 6.599809022183213 11.090328939946508
Fe 6.609645335486158 5.428589569384871 4.122230036376225
Fe 7.820660038947569 4.205675765272911 5.743732314629372
Fe 6.578095432501148 6.554959969038184 8.866742773628562
Fe 4.424885480808442 8.65332991749399 3.6058164197370473
Fe 5.318436755924986 8.695381598581063 9.876983517402884
Fe 6.594603571319996 6.540760410244521 6.41140992597846
Fe 4.452178995586079 10.20054823884524 7.751333512266483
Fe 5.362964500183929 8.96825074833635 5.744797389805461
Fe 8.758957037936861 4.346159590166209 3.5568527845847413
Fe 8.589695918108252 5.416518442176037 7.635641007364657
Fe 6.570440678238159 7.716287661148175 4.174518054343246
Fe 4.317397407057113 10.858192069022328 5.19392850133677
Fe 6.582049050709628 8.915867022386939 7.797728268865876
Fe 8.039497992045794 6.588584234010748 2.5529738474963173
Fe 10.095423718804684 4.500330383829509 5.966103430779129
Fe 9.14491734008599 6.571906211804647 9.774094731891308
Fe 10.302891344957816 4.605722458766357 8.797824682744956
Fe 8.823887516564268 6.577635825776643 5.185627706781088
Fe 6.634870120652327 8.592095564559894 2.050230611956708
Fe 7.82609158130388 8.630650998374445 9.82570573703181
Fe 8.561830517382889 7.706908777408212 7.650734400175738
Fe 6.438715192755956 10.806402740130638 9.025470008676008
Fe 7.832022101077865 8.935891992106603 5.761748051814076
Fe 8.712028775308308 8.778185610045865 3.581932483560758
Fe 6.535208329197737 10.225198056335419 3.9737069400519007
Fe 8.638651390810388 10.156024004997137 7.703571875071146
Fe 10.699182522877376 6.562059113230949 7.322452358719097
Fe 10.35618325172948 8.518788385627357 8.713070581342715
Fe 6.555030776819509 11.049045677780066 6.450361837728162
Fe 8.585626936889273 10.946456851240638 5.101353901275745
Fe 10.132189169919986 8.661418796060072 6.052954515841662
