54
Energy = -383.45304297 eV
Fe 10.379307632992347 6.712845069226479 9.138761821697605
Fe 11.306278763732026 7.328193833685658 7.034785014246513
Fe 10.476198721039156 4.77840048356821 7.252485348277935
Fe 9.544533685131107 8.673086046296241 8.14768891219892
Fe 8.921051312848292 4.736698630418461 9.041392345971198
Fe 7.874786393890664 6.981376662948312 9.513118391043783
Fe 10.00180976408567 3.5191250642899443 5.3605704501943805
Fe 8.370545253914656 3.247834212547801 7.105229876518533
Fe 10.220474806672271 6.132386524893834 5.076225403246845
Fe 8.973324343499682 6.531343287241187 7.236471089504788
Fe 9.885087686756464 8.45499872806474 5.558379331105705
Fe 7.66015874136178 9.531932345315726 9.274819688633414
Fe 7.3307056540049205 2.835019473886043 9.120467261035012
Fe 8.260673155203895 5.038233982481522 5.602906749794818
Fe 7.124922883400565 5.228168408645794 7.769476394704814
Fe 6.33471045780847 4.8208960490764925 9.990684463093203
Fe 8.037555713642796 9.781365468523367 6.5812216015180285
Fe 8.991523613435113 4.425431886752803 3.302814397557753
Fe 6.939752098792733 7.861391263815779 7.604137220470161
Fe 8.632728541704141 6.813593525064379 3.261729943410173
Fe 6.49515951163689 1.8332979805262664 6.782631304098858
Fe 5.73430477673419 8.17293528290693 9.770580191641333
Fe 7.818662724569247 7.44232948349286 5.301090780183584
Fe 7.67955755537385 2.793997202474978 4.6406116248439595
Fe 5.929783042299058 10.195796346933385 7.809481329263536
Fe 5.882521130882041 6.3764060975234 6.0871869432607415
Fe 5.295585781983736 3.4290509870895156 8.08463953197053
Fe 6.097609547176605 3.986970145294417 5.851565309423808
Fe 5.8911628672708645 8.98791127536571 5.666671477702417
Fe 6.8283887461238795 5.139816618442659 3.6745762325951157
Fe 4.4261109308815865 8.38795429919594 7.723479102263495
Fe 3.005394540013216 2.8591823971750587 7.596729300102134
Fe 5.174929566227596 6.215450935885064 8.538360203961174
Fe 3.863888621376062 5.032488098053143 6.755243234236586
Fe 6.789934678357606 6.8373145980766665 1.7284906061267544
Fe 3.489340700800109 4.628241794247721 9.1508284029996
Fe 7.248694749283066 9.024296763060539 3.6400971527698043
Fe 5.474626831180451 3.1971765300868493 3.430370926583671
Fe 5.7017960028529195 7.298621331434138 3.7377784875917746
Fe 4.36673573599714 5.199356808092457 4.486465333045192
Fe 4.262853343817673 2.6342751904193813 5.503717058995411
Fe 3.9135712172740607 7.484954765119081 5.542907428955939
Fe 3.8057406187069063 10.04905940247641 5.981300991893774
Fe 4.853849603566791 5.362645027717785 2.135929385459319
Fe 2.0486911503438083 8.658145174692365 6.8423383151993225
Fe 1.437396283818683 4.74486162817282 7.563642813001758
Fe 2.274499584208189 3.8835219852079232 5.41338096591884
Fe 2.694531914517197 6.722399475888086 7.944670632842066
Fe 4.530881065828753 7.748957238884595 1.6596332998615848
Fe 4.2959110601300265 9.200246625192788 3.650128936915615
Fe 1.9165381465243774 6.3315701551360455 5.5821001035219115
Fe 3.142860778911582 3.825739288451735 3.1600811874535895
Fe 2.1247139440630454 8.755183292532108 4.494890947319858
Fe 3.0865116788897717 6.810807123338908 3.2867028045143254
