52
Energy = -365.7217319 eV
Fe 5.709323964442911 3.819273575565139 5.0871669280891565
Fe 7.314783189126304 8.880620446315097 11.220989582584565
Fe 6.255279057245081 6.784924799540545 10.221915308675491
Fe 9.664763994748332 5.578431060141854 6.470991975069021
Fe 7.218573265762454 4.894387637213082 11.238868374146396
Fe 8.515588002072391 3.8159162674530833 5.225007998646455
Fe 9.751716788550233 8.64742718782832 11.074995575354412
Fe 7.105387774082831 7.499927210752011 4.411275110309101
Fe 8.453863310160624 6.45473367558551 2.2385623976930837
Fe 11.043793075090782 7.021575475020786 7.646308051082808
Fe 10.768807376119218 7.636792919672398 5.244273165178175
Fe 9.202949080136362 8.35035266967978 3.5539299008925678
Fe 4.962676921602537 8.496571768564259 11.16837600127846
Fe 9.636729026519953 8.410644001474752 8.88069965298794
Fe 3.19843446866605 7.068112549365297 7.573194597255684
Fe 7.062017400341255 2.7409690682993975 6.740674577749046
Fe 8.40219270812982 6.259755686497315 8.399168820196024
Fe 7.049400959828726 5.412738018884522 6.280231653531021
Fe 4.259120185491751 5.429478368173705 6.273584495542808
Fe 5.610301619976834 6.2038788541905 8.112631255753437
Fe 9.268004620027503 4.508582268616207 10.061204317705537
Fe 8.502879997536354 6.858827422397145 10.654043696193897
Fe 3.2799419808105457 4.8835543948434355 8.480768592526704
Fe 7.215622539933089 9.972526114316565 4.0818315755431875
Fe 9.386294010516888 9.859976674161429 5.28643299013789
Fe 7.1832762809790855 4.97714967022441 3.555798275831467
Fe 4.716537262360915 8.46420988676305 8.742353644909908
Fe 5.568193673087301 7.874802071125376 6.352715232899898
Fe 10.754457082920998 6.530899624812252 10.012256549772895
Fe 8.53700468576344 10.396109994593303 9.934960020071271
Fe 5.988727287112382 6.516607840677302 2.1513756592501263
Fe 9.017243017299167 6.175696295879548 4.5718847578262345
Fe 3.5034024248947815 7.635219842714867 5.091545669885493
Fe 7.156316939338856 11.429019259362867 8.291266966027694
Fe 5.179725504311011 6.09662200914315 4.2989091380476605
Fe 7.159258673927679 9.831423965896455 6.303013713835926
Fe 5.139504325453667 3.707945909137111 7.625095937708525
Fe 7.155683019605959 8.561280459362495 8.58049677421018
Fe 9.080655794028793 10.29480887501755 7.622431542237224
Fe 11.015703434042724 9.269411167299326 6.864383719713867
Fe 4.992753137331262 9.915069534041443 5.25683575495154
Fe 5.180681425249369 8.395006019214977 3.49871373924064
Fe 5.908987216987457 10.40507066757576 9.96761369708751
Fe 5.036268525196292 4.57086654259059 10.079382644929728
Fe 7.063604376098435 4.32215746431789 8.837298464776975
Fe 3.803740119762798 6.639309108874297 10.023446994390547
Fe 10.950441958089005 4.7972346631197285 8.424269088798257
Fe 8.994932052311286 3.7097380083806777 7.6884857585445685
Fe 3.2806152116523384 9.302422829171807 6.775122078820843
Fe 7.287578765565832 8.477835479753955 2.090428809040557
Fe 5.190589638574954 10.401471034931717 7.603278340194132
Fe 8.498769349826965 7.8192160548514416 6.455375569715319
