50
Energy = -354.51231569 eV
Fe 7.286438012604382 3.6820130484729288 0.141437622495229
Fe 2.160048411992579 3.88702987388013 0.5756694868493177
Fe 4.760795540223905 3.52021333601152 0.8499376473831552
Fe 6.450392812026135 1.6540493558219147 1.1518179841694542
Fe 8.79076608757724 2.5930304272915157 1.815160080805709
Fe 6.236264454108186 5.672858054564449 1.1952731464357158
Fe 8.634421021013218 5.186455127126189 1.810906300497034
Fe 3.126104219191023 1.6811280178518757 1.463857734089786
Fe 3.5968572924720306 5.7298893735765315 1.3043858897508647
Fe 4.935942871830393 7.868109821891312 1.0922223966713003
Fe 6.906022328055155 3.6652394353388233 2.407974905627863
Fe 2.867804396375696 3.582074978970966 2.6869525502785256
Fe 7.266725741570036 7.543119024944254 2.4496682296055234
Fe 7.418155441852455 1.510454604764404 3.5695939949808793
Fe 0.9266721586935686 2.566709535388259 3.054419455165132
Fe 4.969629234804749 4.578966351463083 3.0548552136669502
Fe 1.1982843451264997 5.332963631030228 2.39579961458982
Fe 3.0263539300079345 7.966635128648468 2.7150500395919943
Fe 5.007215660673764 2.13305517474891 3.006744699883783
Fe 8.789428009478078 3.704171948287828 4.0308880678405545
Fe 5.165986883782931 6.866879308855931 3.0887880350127244
Fe 7.260763054198804 5.60895232013834 3.801926456143543
Fe 3.116558811035725 1.2014930578789162 4.075245144518215
Fe 5.217218792615074 9.120690358929965 3.4752498048034024
Fe 3.0109479943254804 5.833856298001242 3.7107092132640487
Fe 1.3937211831989365 6.917788521289781 5.003482550055723
Fe 2.3467735243093317 3.686248988855442 6.8557899898797
Fe 6.286603828450686 3.474456839745148 4.799109651798991
Fe 6.513347254726937 7.694475084394426 5.000175597120385
Fe 1.3574982631782675 2.018705655322132 5.370633974730156
Fe 3.7259595012037647 3.493454869143031 4.845054593087393
Fe 5.209377005965298 5.7027269570231365 5.1674843891708075
Fe 3.899049029703936 7.853027559727266 5.110696827621109
Fe 1.2196563485633478 4.409101418041879 4.7651063369192235
Fe 5.537268352951841 1.2776199197973643 5.25796250933749
Fe 3.042334999931992 5.756154674472141 6.1089159395336345
Fe 3.5867874045939816 1.6496144898265082 6.581265736934679
Fe 8.857791996239916 3.471958784748351 6.814435472163633
Fe 7.0574398834179695 4.781423105685729 6.540963119464796
Fe 1.5404943255866403 1.7711611021201092 7.968842033856646
Fe 4.7209301862520086 4.061148752069468 6.888366740758558
Fe 2.625782628185674 7.601435824124226 7.296562906874645
Fe 7.999539208868455 2.3136870345497726 5.833689986932985
Fe 5.060056770270176 6.6108519352043205 7.367624651235404
Fe 0.9218018183151105 5.623711421566039 7.269468276137547
Fe 6.110441154328334 2.3809596260525945 7.361146197667436
Fe 1.3569148181262833 3.949996931827427 9.018534687648124
Fe 3.720046614793375 2.9333288068789907 8.782917499338922
Fe 5.664320683019806 4.744389946256152 8.820302827332462
Fe 3.263257317518059 5.398428699581919 8.512828332461105
