5
Energy = -25.28512052 eV
Fe 6.119042448903972 8.282093666128562 9.963722986775807
Fe 9.459371031586915 8.117854624201529 6.759764998219289
Fe 7.797472535445644 7.588488512120369 8.401016506729555
Fe 7.302816502452331 7.157584743246631 6.222720219724273
Fe 5.819920764773576 5.496452981917133 5.301651188188084
