53
Energy = -374.05808053 eV
Fe 9.099710108744928 8.293157707049303 3.5811067750834864
Fe 7.116132034824756 7.133502074003083 6.914645216175323
Fe 9.685630284744041 11.13660376400931 7.032462665341702
Fe 8.260379023247213 9.216369540287618 7.053829533778855
Fe 8.548947551563925 10.344307255281661 4.9961884066379785
Fe 5.208358308854594 7.028732711609571 5.635649149942881
Fe 4.958049107129815 5.948734440194529 3.5139880331012945
Fe 3.793507709672175 5.074053458751589 5.654056223282971
Fe 3.7600531232700267 9.21925706133985 8.311576580169316
Fe 5.710953109790966 9.013703654711682 7.069551696562054
Fe 5.907712699287625 10.359389091615556 9.044832816985846
Fe 4.559910455391141 11.193088018112242 7.089385419066105
Fe 8.506845625046461 10.344723620232836 9.11963780061724
Fe 6.9648993008713855 8.533798853663786 4.855425284766867
Fe 5.842427610336281 10.600851666527191 5.091322602335116
Fe 7.080082854628272 11.210267819805651 7.028239764729162
Fe 3.0737176307650658 7.096296698517467 4.3773585267495365
Fe 5.07163880267113 8.345900275193484 3.4804956279468025
Fe 3.1296449162129227 7.209941627370797 6.857927508095487
Fe 3.970487663222515 9.189696671631097 5.5429178686652385
Fe 7.117185867535796 8.2407575309476 8.969015063584989
Fe 5.100138682292812 8.346093463969803 10.296235562843362
Fe 3.130397457803351 7.031029135539799 9.396899832953936
Fe 7.141189214737255 9.562834287770906 11.09276106937879
Fe 5.06031834896244 6.872109998180269 8.162323477232052
Fe 3.6823146490206446 4.908312274139281 8.132581368682406
Fe 5.074093217100167 5.814634560121249 10.398992156547349
Fe 8.270555076166511 3.787424867967281 5.134993486839792
Fe 6.037274119728153 5.003972843836034 6.869213639383253
Fe 7.097755130319399 5.909647182285781 4.8130639794290415
Fe 5.642635983664139 3.85620982919157 4.913711681951844
Fe 5.749712925972333 3.976454967897406 8.954937762030593
Fe 7.131626254828542 2.974315025946365 7.03166373007301
Fe 4.569768375643098 3.0079060441860914 6.920709412984092
Fe 7.194059685999055 5.932057249257779 8.92350963341031
Fe 8.342903127231581 3.817409246529254 9.058462483927547
Fe 10.544204615636366 9.223480358990148 8.223361905773803
Fe 7.144693051899144 7.0941525350862 11.088370623785863
Fe 7.089882583435798 4.620033101261322 11.028997870481623
Fe 9.22769799550892 8.419585143174983 10.368702423069427
Fe 11.091720774754128 7.240892319258794 9.304169184429147
Fe 9.095721853557205 7.190726285727437 8.218279584071485
Fe 9.630610469202864 3.043573824170381 7.066955762533062
Fe 10.349512588231859 5.019504043111658 8.377504360613186
Fe 9.122091229670987 5.970182295424184 10.385113128015268
Fe 10.563601999602481 9.131903072572968 5.727412254936128
Fe 8.501895310269417 5.214592630660072 6.908611493863852
Fe 9.306303268597391 5.887337610106486 3.729087458949275
Fe 7.1000016077122465 7.112879860418403 2.8665797816834697
Fe 10.437916193658394 5.072578978745477 5.678171866302501
Fe 9.065753571059107 7.325036114102396 5.655310537818796
Fe 11.247492090302545 7.130003965926329 4.413218930312162
Fe 11.14820961621332 7.028318094043942 6.898806167074544
