54
Energy = -380.06012964 eV
Fe 7.558287223221785 7.15750826088936 8.442632645088537
Fe 7.251393467585558 7.15750826088936 10.970447060464693
Fe 5.145557563582528 7.15750826088936 9.588215301231076
Fe 4.990970659635654 7.15750826088936 7.15750826088936
Fe 2.9170328363977642 7.15750826088936 8.430738167266144
Fe 10.49826057982758 7.15750826088936 8.617537596734753
Fe 0.9721526190148729 7.15750826088936 7.15750826088936
Fe 3.5762777794955953 11.10135262671774 7.15750826088936
Fe 7.558287223221785 7.15750826088936 5.872383876690184
Fe 7.251393467585558 7.15750826088936 3.3445694613140247
Fe 6.46845284338088 5.223098119606602 9.774120639399245
Fe 8.992180683465397 5.833335939553192 10.021412655651634
Fe 8.992180683465397 8.481680582225527 10.021412655651634
Fe 6.46845284338088 9.091918402172114 9.774120639399245
Fe 5.145557563582528 7.15750826088936 4.726801220547648
Fe 6.46845284338088 9.091918402172114 4.540895882379478
Fe 8.992180683465397 8.481680582225527 4.29360386612708
Fe 8.992180683465397 5.833335939553192 4.293603866127084
Fe 6.46845284338088 5.223098119606602 4.540895882379478
Fe 6.514179911726324 5.136426487103384 7.15750826088936
Fe 9.203815481315937 5.727483384932151 7.15750826088936
Fe 9.203815481315937 8.587533136846563 7.15750826088936
Fe 6.514179911726324 9.178590034675329 7.15750826088936
Fe 5.7051244748927274 3.198446411528412 8.508700558418285
Fe 10.709608670175925 4.569720462005843 8.709269846758309
Fe 10.709608670175925 9.74529605977288 8.709269846758309
Fe 5.7051244748927274 11.116570110250311 8.508700558418285
Fe 2.9170328363977642 7.15750826088936 5.8842783545127615
Fe 5.7051244748927274 11.116570110250311 5.8063159633604355
Fe 10.709608670175925 9.74529605977288 5.605746675020422
Fe 10.709608670175925 4.569720462005843 5.605746675020422
Fe 5.7051244748927274 3.198446411528412 5.8063159633604355
Fe 8.18187687664087 10.268554475507237 8.565618391873251
Fe 4.354239919967034 9.087875609465542 8.343813890478076
Fe 4.354239919967034 5.227140912313169 8.343813890478076
Fe 8.18187687664087 4.0464620462714835 8.565618391873251
Fe 10.49826057982758 7.15750826088936 5.69747892504397
Fe 8.18187687664087 4.0464620462714835 5.749398129905475
Fe 4.354239919967034 5.227140912313169 5.971202631300651
Fe 4.354239919967034 9.087875609465542 5.971202631300651
Fe 8.18187687664087 10.268554475507237 5.749398129905475
Fe 5.125734524074291 1.390734391778713 7.15750826088936
Fe 12.085408868152065 3.5233771413512405 7.15750826088936
Fe 12.085408868152065 10.79163938042748 7.15750826088936
Fe 5.125734524074291 12.924282129999995 7.15750826088936
Fe 2.3247897077575375 5.1276535917189126 7.15750826088936
Fe 7.407862027488746 2.1871163528990993 7.15750826088936
Fe 12.036818650163564 5.918636073148929 7.15750826088936
Fe 9.802775847153429 11.445002777509009 7.15750826088936
Fe 3.5762777794955953 3.2136638950609764 7.15750826088936
Fe 2.3247897077575375 9.187362930059813 7.15750826088936
Fe 7.407862027488746 12.127900168879618 7.15750826088936
Fe 12.036818650163564 8.396380448629788 7.15750826088936
Fe 9.802775847153429 2.870013744269711 7.15750826088936
