50
Energy = -351.11772729 eV
Fe 3.2493470764932795 6.0472575061106575 1.486762919578141
Fe 5.3981218908776425 1.3954697199970214 7.193222768576883
Fe 3.4447645530241804 7.2242305435670495 3.6124759915626568
Fe 8.857333510743196 7.662406356268913 3.4440172869705172
Fe 4.8745950882483635 9.374994076492413 3.644252330446124
Fe 8.452516463717345 3.9974121291886493 8.88886758214847
Fe 4.848438996037836 5.31942354168342 3.5546169871571034
Fe 8.360747586488385 2.9719514113339196 4.835271729538377
Fe 2.5381809730949305 7.0325034805041 7.4347761340639105
Fe 5.916651797830814 2.622958377470993 5.137810152728254
Fe 8.09120670518173 9.572824648206213 6.951991240286877
Fe 8.249876031435683 6.281234137064772 9.529125336289782
Fe 6.06100756613495 7.436346160842157 9.528413302492707
Fe 5.264441841569398 3.965148902767582 7.200691532776138
Fe 2.422066834238247 4.752369615274533 3.3344384019847495
Fe 7.151619000074491 6.11889222796781 2.871365702065009
Fe 8.085817908701932 6.823485032343862 5.5062330742427505
Fe 3.4026279138384603 3.73656448048354 1.3999543078280965
Fe 6.37902468237718 2.4972414688260054 9.066686632942117
Fe 2.280985987415829 6.040002767295646 5.358794790307639
Fe 7.4269252888395405 3.005623664663472 6.9879253546193985
Fe 9.712533236264417 8.564185974675533 5.558581299585915
Fe 2.452644523631113 2.3900270864890825 3.550665824566559
Fe 2.8864247638959344 4.628726835701779 7.25331208375188
Fe 5.918033002157684 7.49081255706353 4.4432062850935115
Fe 9.140060119151416 7.246660363560044 7.56136062320313
Fe 7.462976033339628 9.284126593970878 4.7168407912771215
Fe 8.076265683591679 8.667417852212951 9.116786868316169
Fe 1.5918527779473244 3.6066257262702273 5.5534395564380565
Fe 6.946562091646385 8.767741491481901 2.4793286340127603
Fe 4.606365175428169 6.149016280794771 6.075811573793843
Fe 6.669837838955965 4.9014392803784625 5.262647765051547
Fe 8.98294320802172 5.114117068228481 4.070737384629976
Fe 6.117676736595467 9.806362152232479 8.461760353836624
Fe 6.943002143413109 3.7313722526781934 3.055203443996355
Fe 3.695059088463269 8.322645969342753 5.680614950254193
Fe 6.221482502025193 4.748666604921657 9.741086618454043
Fe 5.205621807696762 7.295224477191771 1.9488185381556207
Fe 4.583232716554314 5.9599953968026504 8.462650593933418
Fe 5.548541641009122 4.864536027567098 1.34612339951629
Fe 4.686181115033805 2.8820503451874893 3.074034721114055
Fe 3.9632515178729193 1.2792540909316599 4.914290417942389
Fe 4.260925512719865 8.446338910719366 8.038209064789033
Fe 5.533391038015385 9.898133054249827 6.048151407669507
Fe 4.178524186483413 3.2461302041273976 9.03446032854318
Fe 3.3456969702247075 2.3097539472133755 6.902850801061439
Fe 3.800168576563061 3.8961881384478576 5.197135239496847
Fe 6.304298110338476 7.821146382262093 6.916867003400588
Fe 9.01816006619373 4.784043011937706 6.569235521824831
Fe 7.022958470353302 5.6498900249551545 7.629063697635689
