50
Energy = -355.7653287 eV
Fe 3.6384186674789754 3.932471930375808 0.4294956306567308
Fe 5.05975981134335 5.954159965215513 0.602332915697367
Fe 4.534707901577482 8.443279638034726 1.2779485614871406
Fe 6.008585842118189 3.3161665208595323 0.9857841322500512
Fe 2.1966881271825094 3.9063972907316713 2.5139357736609305
Fe 4.073621206554398 2.1236478543690347 2.342543785448328
Fe 2.7855160416112974 6.3072518885105335 1.7505766978097577
Fe 4.433615365888832 4.579375403909574 2.4576004200779655
Fe 4.966904648503037 6.906447399046259 2.881955867507817
Fe 6.676630164857976 1.3167797955198677 2.306277038463018
Fe 5.4953740001531095 9.059315961757608 3.7243650377874915
Fe 6.8325045419438535 5.27686496950504 2.30858734685158
Fe 8.279883713765006 3.35280031320454 2.428878708971434
Fe 6.895368067742813 7.634084804528144 1.8332459618767916
Fe 2.996542768828695 8.21899191527226 3.371958238105547
Fe 7.838232446188239 2.027101359685095 4.500993729641198
Fe 6.066626138603248 3.182573795314633 3.4577885623364892
Fe 0.9162572692057256 4.260989164813937 4.382532446036301
Fe 1.060491986626301 6.732811820005249 3.7732639425842325
Fe 3.837827478099632 3.441495563163526 4.685270901771501
Fe 5.08646392782591 1.2077222102159828 4.371807500611041
Fe 3.0703612345410787 5.80349091228788 4.155258661260589
Fe 8.9478114112251 5.948507127023416 3.065142070838084
Fe 7.148191445545289 7.061123603638138 4.139004979586019
Fe 5.4551790180769 5.179772953320133 4.500693452531523
Fe 6.190696488890364 2.9960216002089273 5.859494510134759
Fe 2.228864187181218 1.9450392601420297 4.095656850291453
Fe 7.849971966155826 4.578038326343059 4.654541013526169
Fe 5.892401304166156 1.028798942404434 6.946510767828139
Fe 2.629602961424903 7.89261401967188 5.6989375858224625
Fe 6.995244125177823 8.898782316562182 5.69112926352364
Fe 4.948758172962342 7.334067020640988 5.32752494756528
Fe 4.362916262717894 3.428358709031396 7.339692662905711
Fe 3.605246717470976 1.434293064046777 6.280784609276148
Fe 1.3287090574204394 5.919950575878418 6.12550925305968
Fe 4.72686631725499 9.364233067238995 6.268426948082299
Fe 3.6359551931810667 5.560778820884436 6.507660986510576
Fe 8.055447071039913 6.524289168623754 6.271279204923054
Fe 6.150730516810088 5.28062389775411 6.682748725123905
Fe 2.0651534190764487 3.4752391373869966 6.282105729488443
Fe 8.19751948899562 3.769029080732299 6.918509715138417
Fe 3.909069450375762 7.516726733232002 7.767892761639281
Fe 4.608153729876658 1.4436254396624013 8.828139854831184
Fe 6.262986044209858 7.577061547328189 7.606781060493687
Fe 2.426244454027594 2.297312704164952 8.346087238765087
Fe 2.5564997154073827 4.769811024694448 8.474564739209995
Fe 7.514814863659889 5.463230321739707 8.59410501817842
Fe 5.030627783181583 5.471527650239119 8.778914322163999
Fe 6.371261191621375 3.279111157641521 8.51990222840864
Fe 4.108264425242963 3.531380386455817 9.839425772277554
