55
Energy = -385.2241356 eV
Fe 3.1183557544716094 5.718485890668538 6.478902546713454
Fe 8.250680222497742 11.101790024819126 8.348743156561008
Fe 10.203069278821975 10.526458456841683 7.049096145983977
Fe 5.96505090655183 9.31059775045096 11.135839426258055
Fe 6.638304281152783 10.2533291025032 4.723833223903083
Fe 5.537689357005462 9.764181717542185 8.493171924861967
Fe 11.286748228039048 8.456293423895344 5.106255893675175
Fe 8.364203653831689 6.530570109343598 9.2806273850044
Fe 6.227468035925142 6.918317943254648 10.379581046266752
Fe 11.080409915052869 5.70805845817583 3.767800715282186
Fe 4.975237837273657 6.3739894295961035 2.8770207408250004
Fe 4.147245137658877 6.275824169395073 11.300602475940915
Fe 4.010983472153778 7.341490633186592 4.858501395762999
Fe 11.977540864884302 3.98230667959422 5.23077079527536
Fe 7.713489472803842 4.640774633464015 10.503897371683975
Fe 5.4629318811349235 6.07479557028493 6.547224893721875
Fe 10.418390152588913 7.558425763021051 9.830682117185955
Fe 4.087568585838856 7.987529927304954 7.287197072868639
Fe 4.607639154293585 4.061669829311714 7.368245276460678
Fe 4.294487139837543 6.006171683670757 8.783807078240791
Fe 10.341735656863506 5.122130989529246 9.754233428477843
Fe 9.385464354381986 6.817486283047184 4.888629271074593
Fe 5.247115415020739 4.39613788190081 10.302872446187363
Fe 4.613505195417604 10.0531620974562 6.054815161020081
Fe 5.242809096662843 8.687832262855036 3.5114963354751523
Fe 7.811387380182305 9.034757536941468 9.775670967102949
Fe 6.527267936906598 7.655063712904545 8.087546651350154
Fe 10.12000695407334 3.564558706086788 3.749475414288516
Fe 11.260137999139664 4.24544607159241 7.5641722448664925
Fe 6.242861872773499 5.514969017756296 12.168956247458715
Fe 8.837336198328504 4.216937487688604 8.132898746260212
Fe 6.601295015208564 5.1031843139676925 8.41487377051702
Fe 4.155564160233369 8.229760926426238 9.772665962648
Fe 12.241845451454571 6.344877466220033 8.558196134547858
Fe 10.054691519272028 6.369236164870577 7.512427592619478
Fe 11.851786476550648 6.221855283051754 6.0039594938055805
Fe 9.059494644527383 8.979309788336819 5.610538733826353
Fe 10.088562596971835 12.23045787657658 9.094223877128982
Fe 7.8713478004641235 6.175548126456861 6.607501608410491
Fe 8.74694836801183 11.028732740281404 10.708980144581249
Fe 10.359485983160493 9.851196868286035 9.313767813619355
Fe 8.916198551748062 8.385653001344792 7.832580027963651
Fe 6.701439743080413 6.64105441638756 4.352098888616053
Fe 9.679479395303163 4.617236829852331 5.784309365651546
Fe 4.759190266883838 4.871537520694604 4.752030214268218
Fe 12.486521913638095 8.601123901011839 9.432902540064168
Fe 6.394750892374932 11.413421972729038 9.824238935662947
Fe 4.041155773618611 10.542499285390113 10.406112202135661
Fe 3.1121390280074293 10.047077490252539 8.205410080350068
Fe 4.363314725412227 12.041834813279289 8.53075280232635
Fe 8.376432216962401 5.126352880753869 3.6490913937727902
Fe 7.282291123044169 9.713451241037514 6.913032300753503
Fe 6.109444202143844 8.213548421645879 5.746543916284215
Fe 11.406385533049987 8.401832776171716 7.401851264245934
Fe 6.101013648302123 11.70757307188663 6.987243761155634
