50
Energy = -347.3917829 eV
Fe 7.336812090665848 7.811814376697278 2.927990501524428
Fe 8.037629269666535 5.811925494083711 1.8570263493004078
Fe 8.731849724935254 9.03099429797437 4.644119893800708
Fe 9.55993258175213 6.683963336149253 3.556586713301366
Fe 10.442877543266183 7.593699205416162 5.648373743312304
Fe 5.630072746691361 6.326237631941994 1.8199144887604248
Fe 6.5704462562590775 3.96164611310078 2.470729444008902
Fe 6.120039227200971 5.6662638395995595 4.14631117204015
Fe 8.776332917827588 4.271750022417806 3.573075590723078
Fe 6.60666062493071 9.907462591304192 3.852610992618661
Fe 9.415327924382881 2.779219666412544 5.416514094278753
Fe 8.913561212062314 8.816290766584759 7.148454824130265
Fe 10.136603521128068 5.130314795340346 5.483087177656943
Fe 9.488646070605515 6.413893407637554 7.522208370568472
Fe 4.1699195476889965 4.669369705133297 2.950420948309829
Fe 3.2416040832178825 6.8817627955257175 2.4588763593548864
Fe 4.9342617599792025 8.279700446141042 3.261541804523866
Fe 7.5328452051607675 4.566079976771032 5.815291612121049
Fe 7.9442372075367045 6.866253233136 5.318293744286925
Fe 4.969987798566009 2.4669106506735385 3.5468128039060307
Fe 7.224218397267704 2.4714890634690327 4.396263232003838
Fe 4.691622379047237 9.581934906509304 5.290430596054694
Fe 4.670208241655773 7.047448364146003 5.477652328273557
Fe 7.463203251539591 2.2877849691081544 6.905498482670833
Fe 6.951547293737453 10.055306299350654 6.23449538066345
Fe 6.497325382229835 7.771814504499756 7.010825733108461
Fe 3.2180313592765164 3.5024966725863167 4.933230675039087
Fe 9.234166951867078 3.95530462776059 7.558110764157574
Fe 2.653312091038005 8.360293298296726 4.429423024405256
Fe 5.193083012274539 2.21175547780362 5.930427776310254
Fe 6.842275705457082 5.498383948766651 7.9008733324200815
Fe 4.97551625137332 9.701403597503825 7.784669080573693
Fe 2.6272356846429807 5.880413693689842 4.522115879927677
Fe 7.254179970285402 9.832058252328892 8.643572004993384
Fe 5.052700234542847 4.612870624618636 6.1157412639799364
Fe 2.8040310964159856 9.411456325741206 6.701833279999019
Fe 8.052761164359014 7.614410941209135 9.170373853095782
Fe 2.2882425420241854 7.100658351105485 6.632554099716162
Fe 8.853240274728298 5.330432224607283 9.587654583605834
Fe 4.652027177383797 6.463723784482795 7.817891821455341
Fe 7.269738617533278 3.5265648903201283 9.139436058818822
Fe 1.7774196702552874 4.760926598369408 6.469996583786938
Fe 3.503091740475587 3.4090456581482558 7.504730910624261
Fe 5.462763674128278 2.1892716614045087 8.303306977512069
Fe 5.688757500977011 8.195019548911562 9.62970907035474
Fe 3.2463975395759532 8.14679853490282 8.770445251381995
Fe 6.567492117280404 5.909175426028246 10.265079489802554
Fe 2.6338432025713554 5.531460761134921 8.619343859782955
Fe 4.821175529903621 4.2201273881080565 9.45529060602513
Fe 4.188908709261655 6.4027813296792155 10.298947447561767
