5
Energy = -27.42822155 eV
Fe 8.2368491146967 5.469798851297915 6.539480423450706
Fe 8.2368491146967 7.6091619956034995 6.539480423450706
Fe 5.978525403432347 7.851177731944792 6.539480423450706
Fe 4.26665308159811 6.539480423450706 6.539480423450706
Fe 5.978525403432347 5.227783114956621 6.539480423450706
