53
Energy = -374.04436892 eV
Fe 10.442705773427743 7.707092778154701 6.912189362662867
Fe 10.788314503300839 5.234311499217228 7.543546944176734
Fe 5.516725051458422 7.381027818383008 12.021878070946194
Fe 7.191086664326533 9.511244910439968 4.385776225626272
Fe 7.200681497878986 7.465908285437823 10.149371281765246
Fe 10.036018941647686 9.716680315660506 12.150290130565853
Fe 12.886412757898121 6.24180137890438 7.13339260179635
Fe 11.153944190614006 6.233096598994998 5.354349663322511
Fe 5.647957775763657 5.569292992629597 10.456275997954322
Fe 3.811235639598849 8.425285294519846 7.531273333790341
Fe 7.9163646651275945 12.646433387049175 9.924498230590919
Fe 6.064898319685926 12.240210752580715 8.109214273914148
Fe 9.153560470458777 9.5792267858758 7.675098918814974
Fe 11.618181964308953 9.063258972433657 10.589882859450798
Fe 9.011241183819674 6.769647338353525 8.602597994477945
Fe 6.8331449550743395 6.093709293728505 8.057122120266648
Fe 9.343666728288204 8.882509547037305 9.995990008603156
Fe 10.333403472625221 4.859515385720279 9.846310018056784
Fe 12.73595574306503 5.400036319460967 9.244033844174318
Fe 8.42517029225611 12.024145889861188 7.694699827065609
Fe 8.04905177706874 10.82596902995773 11.409779591786995
Fe 12.608930829566965 8.390591706594778 6.324349496433556
Fe 4.35086858380391 10.976897164784948 6.6492257812001005
Fe 7.951764108975175 8.508036223544915 12.140532602494826
Fe 9.890731384405285 11.153656213011846 9.612230525687272
Fe 7.079088849592739 6.943195880208294 4.610980593305127
Fe 6.211219435768631 3.9830324368170236 8.56778760449964
Fe 5.366412646012793 6.860929867315483 6.353952005855163
Fe 7.704689260520051 8.043285431808759 6.5240205939644165
Fe 8.76730222352473 10.857039948639686 5.563107258033945
Fe 6.301192851634394 11.688312185339814 5.369579833526909
Fe 5.295512850000201 9.069217327458011 5.681824476207301
Fe 6.727494153901912 4.807292818199858 6.134526856755888
Fe 5.985634860917038 8.34553496887444 8.305627638364733
Fe 4.873510353523126 10.294086491056195 8.88331969167658
Fe 9.577819230090437 6.78578043303076 11.172126165455332
Fe 11.444841614005217 9.521607454046546 8.387532246120395
Fe 6.828825131380737 10.281404828739818 6.970631313641181
Fe 4.3710555007195415 7.824804711602128 9.937011211239609
Fe 4.4798766752633785 5.952125754449178 8.38631128384853
Fe 7.516172611918762 6.1025463399171125 12.252710659263649
Fe 7.436243268340878 10.218380789362223 9.210228145979231
Fe 10.766036401688758 11.684270888473755 7.3390299615566095
Fe 7.970420772712888 5.065438075704898 10.132273377600537
Fe 10.922524174848549 9.95381336558427 5.841733124386315
Fe 13.027013402172702 10.570222957787232 7.172298459881871
Fe 6.007958554478722 9.469427259056559 10.913611985865872
Fe 13.284113898371054 8.088808202897706 8.688338016099188
Fe 5.806265420928435 11.807876113176997 10.536903014745915
Fe 8.814955770532935 5.9328383524508785 6.131450037720983
Fe 11.25718759252027 7.128668091335928 9.307502888164198
Fe 8.57915311154344 4.228289735638075 7.936760738652198
Fe 9.339049949830057 8.295749819832151 4.878481094780136
