6
Energy = -34.80390404 eV
Fe 8.068747762397157 6.994350679948293 7.655299510059333
Fe 6.994350679948293 5.0099843598965865 7.69033927642729
Fe 6.994350679948293 5.880914430350055 5.637413253358261
Fe 5.919953597499427 6.994350679948293 7.655299510059333
Fe 6.994350679948293 8.107786929546533 5.637413253358261
Fe 6.994350679948293 8.978716999999996 7.69033927642729
