6
Energy = -35.45992956 eV
Fe 6.839015028181604 7.394016026780281 8.672208417736526
Fe 8.52061639694748 8.63371928366731 7.892038632590902
Fe 6.260942863637946 8.628587061532475 6.909343248338714
Fe 6.266661228004986 6.158139441123893 6.894352017058738
Fe 8.530662558568347 6.161555160115661 7.883954587546518
Fe 7.952134924659539 7.394016026780281 6.118136096728494
