6
Energy = -33.49711637 eV
Fe 8.193213615871997 7.855646764232172 10.919159383173128
Fe 9.27578361433601 6.903075797733636 9.356122663862479
Fe 10.316435685062517 8.365563158249138 7.849632276373885
Fe 8.918617723784799 9.220992659524983 9.416282245395687
Fe 9.070123258896613 10.270091104271808 7.310412475981509
Fe 7.932333632251109 11.076934310017165 8.928257927673686
