6
Energy = -34.17101087 eV
Fe 7.690363340437953 5.524086625215164 6.1298456603763265
Fe 6.148542429009651 5.035530315877971 4.525957458903719
Fe 6.6878098977803315 6.233632553081124 8.17303162906969
Fe 5.625375896473747 6.467053672179774 6.004278559380271
Fe 5.45699552117628 8.086722202403209 7.601909452373997
Fe 7.535169413170076 7.807137023183844 6.721067888167946
