6
Energy = -34.72026545 eV
Fe 7.059302822683109 9.048207587960553 7.332370302398757
Fe 8.533004345485951 7.639784684617765 6.4158946838776965
Fe 8.228809523177805 5.559199233326769 6.9850331500878395
Fe 7.059302822683109 6.909641512248917 8.221590965769323
Fe 5.889796122188409 5.559199233326769 6.9850331500878395
Fe 5.5856012998802695 7.639784684617765 6.4158946838776965
