6
Energy = -31.91124813 eV
Fe 5.1316453066544865 6.209058525771857 6.960868147527158
Fe 8.978721933275219 6.8820347320514275 5.3926303700405915
Fe 4.863055564514757 4.338440249089434 5.456510167810896
Fe 6.932548080628933 5.612512233198884 5.440719239033495
Fe 5.460174741707796 8.050938085943812 8.42060222244179
Fe 7.229300217141995 7.502462067663077 6.924115746864561
