6
Energy = -35.18772443 eV
Fe 7.113976273133962 8.049933041074368 5.694424339984891
Fe 6.521261861399141 5.774223593352166 5.3106849768466775
Fe 6.765694546640258 7.5138769884125605 8.00464387351408
Fe 5.049013629890583 7.059108903651758 6.524568412636928
Fe 8.239413392721383 6.206812707538258 6.804961798792318
Fe 6.2014099451166915 5.306438303463028 7.564390957577392
