6
Energy = -35.03507069 eV
Fe 9.214567862918415 8.403160862309255 10.243239056522286
Fe 8.651101281022346 10.104627984865173 8.80969344852323
Fe 7.238532571664738 8.403154883498912 9.105867811788228
Fe 8.181643631413799 9.017692490399662 6.840168772607233
Fe 9.654369385481159 7.900882230464466 8.084908347358656
Fe 7.705638386561819 6.871730177836537 7.506802239012824
