7
Energy = -42.72605054 eV
Fe 7.389123079912751 6.844233405575325 7.4939611730883415
Fe 5.673232994905748 5.562121519724952 8.465549236080834
Fe 6.499551457133461 4.648434561316121 6.514378309452551
Fe 7.7414403103624645 6.295938228861086 5.251984759162928
Fe 5.169668219509518 6.964575714767068 6.855951766978185
Fe 6.511404558617974 8.240839518796044 5.368536460242764
Fe 5.650487859224687 6.089914065020907 4.6347743029025885
