7
Energy = -42.27960707 eV
Fe 6.360063040339868 7.715667386426997 5.4255251786460805
Fe 5.291228442179772 7.096254637733179 7.402874142068013
Fe 7.886209393186982 7.991054386621248 7.1656265872890215
Fe 8.279043998643754 6.417231727655563 5.429612663077701
Fe 7.214378528212605 5.763445570409072 7.34783463192837
Fe 5.677013406684802 5.519828104200303 5.666670999308242
Fe 6.904812321852196 7.186773476318894 9.273787521438766
