7
Energy = -42.56542256 eV
Fe 7.987883063226155 7.4654422982460495 7.168672284551295
Fe 7.78550399693807 8.334319296917723 9.412050445578597
Fe 10.006503150822784 8.00158349060702 8.213324755708364
Fe 9.55004660534168 10.009020017679333 9.335470555662296
Fe 9.84521684905889 8.08497068467666 10.490057945267072
Fe 8.313036940339472 9.776420057356486 7.369281659098629
Fe 6.25189733935071 8.831620740027079 7.708446180127627
