7
Energy = -43.0569112 eV
Fe 4.562084667591917 5.321080347525957 3.8610147741642553
Fe 6.417873023456281 6.68170287712418 3.8893703370378074
Fe 4.817321699384371 3.4250708058075605 5.177289057595951
Fe 6.63338695536437 4.8150442698653535 5.180596217246884
Fe 5.478871018856629 6.898251981981082 5.976356874283723
Fe 3.7822146307985802 5.296890635977505 6.067219541208552
Fe 5.735357884157267 4.9890689613279156 7.275263078072118
