7
Energy = -40.64543551 eV
Fe 8.025559441177743 6.179793837159485 8.69251010018963
Fe 6.856858506734022 8.201750244940351 8.694501299999999
Fe 5.688157572290297 6.179793837159485 8.69251010018963
Fe 5.688157572290297 7.533923176308557 5.021206913278418
Fe 6.856858506734022 6.856858506734022 6.856858506734022
Fe 8.025559441177743 7.533923176308557 5.021206913278418
Fe 6.856858506734022 5.511966768527696 5.01921571346804
