7
Energy = -43.51502715
Fe 8.903457415553332 8.553385758313645 7.9665637138073775
Fe 8.979124201138797 6.738385110490969 7.0542346977564385
Fe 6.794016139024045 7.359922020785999 7.673856273695365
Fe 6.945243939134381 9.437834658467452 7.966563713807379
Fe 7.83205201413261 8.289084566079735 6.098145689737284
Fe 7.533106555433667 8.242460672125603 9.641689434725231
Fe 8.101374836561552 6.467303314714708 8.906898375492489
