7
Energy = -42.42899243 eV
Fe 7.069543293767094 5.0289346688066185 7.5183276987590695
Fe 6.79394056777776 6.409254051940945 5.710008468402197
Fe 8.75892639204861 6.444045342943813 6.935039926316032
Fe 7.12516046114507 7.50019588495144 8.154996363537666
Fe 7.987148022746749 8.571355594715998 6.077357299443307
Fe 5.205636531104603 6.323089371137862 7.710870682174443
Fe 5.641731973772111 8.218397656063898 6.529162638428324
