7
Energy = -41.21155413 eV
Fe 8.086734965374184 8.910295541104324 7.309977685039513
Fe 6.727421317783857 7.031007269174665 7.117111230604239
Fe 5.070302214023193 7.2181907302957375 8.68190180016159
Fe 8.776329711610815 6.77238243083543 8.17648504418333
Fe 8.734750229275816 7.1634655972552155 5.814796900982921
Fe 6.903598384005084 6.233605696119916 4.979018889572966
Fe 7.051723072702567 8.021912629989973 9.271568344230941
