8
Energy = -46.73922626 eV
Fe 7.921623740325872 6.337603788695782 6.83132211481621
Fe 8.625778208984013 8.28117340926366 5.5592303171330695
Fe 9.652332253192844 7.9482488233262965 7.501040461848284
Fe 4.810261058552836 4.071862772883428 7.596140997978786
Fe 5.800601957985069 6.174851890189457 8.042369979339018
Fe 7.348813133693384 7.845705844378917 8.770066142996596
Fe 8.12472076588755 9.675474799711733 7.355466210463245
Fe 6.24795164915631 8.157887952409128 6.81172159404318
