8
Energy = -46.0080095 eV
Fe 8.106998515965067 6.28771852051207 4.808648299382162
Fe 4.713211548887908 8.078908671764358 6.734225398115636
Fe 4.4847004832932305 5.93807609234414 5.9759326252375375
Fe 6.750832305454728 6.825791087000625 6.717893779523344
Fe 4.409031523128829 4.072770183283745 4.697284118103953
Fe 6.3863923316774605 8.52313895872444 8.209141150965626
Fe 6.5179282208114335 4.63495071392274 5.471519931785607
Fe 8.407072079635396 5.140104958197929 6.842937783340192
