8
Energy = -48.06312951 eV
Fe 4.83766666631207 6.3739536747325785 6.652871103489126
Fe 3.7565645705186292 7.263220558245068 4.876334391790463
Fe 6.970133963480507 4.498896567841882 5.578989461453601
Fe 6.844044367592992 4.54244466597485 3.325258498402678
Fe 4.8708529478176725 4.075172526381998 6.436936681273634
Fe 5.21389928813231 3.30673256507508 4.291804763857737
Fe 3.1369863395511715 5.1384484335364204 5.342003065629362
Fe 5.266156178929389 5.697435330546602 4.392106356438011
