8
Energy = -49.00184356 eV
Fe 7.029790168555651 5.714648042936509 4.78558506139277
Fe 7.4100452197890965 4.7219917591870955 6.874932883149942
Fe 7.01745565209421 8.164292426439289 4.52065058811641
Fe 5.339440099765387 4.420076857793079 5.7718799158066085
Fe 3.7188286035614517 5.700457822047878 6.703301884686133
Fe 5.63417873681819 5.891391309611757 7.892782624850926
Fe 5.1722281606460365 6.990198824555633 5.6157526556788655
Fe 7.306743383224582 7.058020029672353 6.712799540180056
