8
Energy = -49.62594497 eV
Fe 8.750370145431853 9.977281174612948 6.48125264457105
Fe 7.46993800725422 8.483063868724377 9.972022546524345
Fe 8.553304649717399 10.193979102242817 8.716288701797424
Fe 9.801892140183467 8.564498221076569 9.847320432423103
Fe 9.99760461648179 8.419612872595913 7.524927373964665
Fe 7.490927161919376 8.30353736945921 7.465958862488008
Fe 6.640062758456486 6.690373539967996 8.894545637822116
Fe 8.895160272858586 6.700365370444319 8.76737433371194
