8
Energy = -49.96370253 eV
Fe 7.3956491793089985 6.954928724298269 4.875826895171851
Fe 7.966480056514297 6.622700937217254 7.0695591673333675
Fe 6.054512952268362 5.304467259070648 5.963955303364879
Fe 7.3988682728714315 8.897048553522533 6.136479442427537
Fe 7.313965697875404 4.545927462027651 7.771977982026185
Fe 5.602751781051267 6.111348209967988 8.054603247149004
Fe 5.526754015659458 7.6518842878033775 6.214417244300791
Fe 6.764074092156933 8.168454022323795 8.245160463295077
