8
Energy = -49.04629535 eV
Fe 7.586103434269822 8.326186699968696 6.8390490524460255
Fe 8.797142590895676 10.048338333550742 8.291573509917798
Fe 9.853043071891266 8.474367041085854 6.807422835093362
Fe 8.64155266328695 6.369935877567879 7.308973653281321
Fe 9.596092469197979 7.679979514020062 8.908911456723066
Fe 7.130070827419649 7.07616081514992 8.983990345772957
Fe 6.4971290222195215 9.279656576232268 8.67157098841963
Fe 8.066566408853314 8.787903161279505 10.250738906695481
