8
Energy = -49.39853257 eV
Fe 5.40683653292854 5.906258397401096 8.44252739122181
Fe 7.429422553245238 7.048755174862988 5.295488311252791
Fe 6.843250798840115 8.88160333912645 6.582316353220725
Fe 6.42873018926412 4.99296442262737 6.578607555716321
Fe 5.494838637932743 5.9569053310955615 4.732997321307821
Fe 5.174377643010998 7.279125772594932 6.601050711957885
Fe 7.341613763118706 7.05597938410611 7.89925170790968
Fe 8.628606215663217 5.626084512188803 6.6154369814165195
