8
Energy = -49.13907714 eV
Fe 7.43063779403333 5.240428656192315 4.517198148432441
Fe 8.08022097240657 6.579606062229376 6.100209958232204
Fe 5.3456923490092665 4.652435386458494 4.405921401471698
Fe 6.242735413746265 4.976044855748106 6.7244681435081155
Fe 6.660581793412559 7.3038954768778686 7.574148784173696
Fe 3.9178659841385217 5.401238208427087 5.86110708206736
Fe 5.758010587152938 6.983930478902939 5.245598426440531
Fe 4.574281632193161 6.712937276570728 7.457211090822277
