8
Energy = -49.50015492 eV
Fe 7.788375559945071 4.334830037219955 6.404115801901279
Fe 6.698343283002514 5.029956024035461 8.168308556416937
Fe 7.267125118842764 6.586499181528719 6.5630560620168374
Fe 5.509890724534975 4.661589703835044 6.205227419985682
Fe 6.30219244436959 6.024202162266519 4.589246889174476
Fe 5.018358200205476 6.801139650311032 6.751183454614393
Fe 5.626943037827888 8.19186381439996 5.017300368360497
Fe 4.093057695715156 6.693492168863188 4.626986096251444
