8
Energy = -45.32387877 eV
Fe 8.641175911099838 6.60891926512399 7.982259508980159
Fe 6.986981660573266 4.915297913820207 7.621790650483694
Fe 7.100769976327246 6.949008953415466 6.393036813919817
Fe 7.486086792933698 8.708468169207034 5.070858313389082
Fe 5.300034168055683 3.409284172710852 6.950710082923782
Fe 5.2501799583876085 5.469981962646176 6.0563038180277475
Fe 5.415624720072549 7.526475619953419 4.822499332089765
Fe 3.518906364593697 6.130412244931544 4.789941359879261
