9
Energy = -52.73155426 eV
Fe 10.587395368205339 5.829585801008317 9.030005217437589
Fe 8.373523853829159 6.008208836018682 8.717354401677145
Fe 6.120598855343147 6.7832178273505495 7.8159377506751255
Fe 8.135769125205085 6.807100836810104 6.519888773673152
Fe 10.064330206201696 7.498430457516488 7.687043093731329
Fe 6.477534333746944 8.555005377754766 6.373592800746515
Fe 7.919868129172805 8.305000267723997 8.267339079801596
Fe 4.266742579814048 7.744918958295816 6.7684136279313325
Fe 4.648748789209088 9.364675162155716 5.59008015741231
