9
Energy = -55.67862405 eV
Fe 5.143286645218774 6.857578213643958 4.658607655258834
Fe 7.248136866874392 6.284131000118756 5.310965466438131
Fe 5.271220928709163 4.721885675865759 5.584105590827664
Fe 7.409944597082403 4.241663795939869 6.228905354288027
Fe 6.0450881855703935 8.727069061978439 5.20644916826761
Fe 5.400638589863435 4.821569475378677 7.861027478139965
Fe 5.229500722316182 6.878144707425699 6.960219894300378
Fe 7.262285714926615 7.977159366600141 6.820121686508801
Fe 7.413429216943048 5.884836293650474 7.821787244823999
