9
Energy = -55.77529729 eV
Fe 4.420348095600932 7.448915980739219 5.876036976209769
Fe 5.320813759339028 5.26865618139683 5.940053389771246
Fe 6.362527294086784 6.92597685873465 4.619509090525625
Fe 6.69172038294004 5.140668308777839 7.862312489038409
Fe 6.4419792453730755 7.454203800387032 7.026332783532608
Fe 4.6201537957010705 6.313785980602473 7.930991065209969
Fe 8.299675597767994 7.7850450156447515 5.681989454616387
Fe 8.513689367975312 6.665112083626417 7.742996784636706
Fe 7.8226247355310585 5.491168064406197 5.8133102407744435
