9
Energy = -54.30315796 eV
Fe 4.478834744400521 8.088062487514355 7.029654787130425
Fe 5.605061577392317 5.387429637576085 7.373591075129319
Fe 6.4861880046703915 5.728259999878744 4.925604046966655
Fe 5.713074476306564 3.6918732674177352 5.72462843645943
Fe 6.6079848675429345 7.279459084166893 6.617380268541728
Fe 4.37389313512613 6.21228269475645 5.661646531753575
Fe 7.6775246763719665 4.6307673444549975 6.595408551349145
Fe 5.293248882556267 8.213025815244476 4.9545269079139365
Fe 7.653598691140791 3.5257538167028764 4.672829022875535
