9
Energy = -56.44893627 eV
Fe 6.941852580578648 5.997618644617537 8.240496622895668
Fe 8.064410261066755 7.589043185362862 6.926976828678237
Fe 8.459808215010122 5.30579425522931 6.579026544161532
Fe 5.79486768408195 8.047435132167818 7.244103279491214
Fe 4.759266832541104 7.331951939376783 5.297876485631446
Fe 6.489500556167563 4.2502842804472865 6.803532829142168
Fe 4.857708934101 5.918468775826085 7.194058450879486
Fe 6.671360967845568 6.068048789557498 5.422334689488052
Fe 6.771577873023278 8.302229092359939 5.10126302462016
