9
Energy = -55.04481868 eV
Fe 5.113928247192341 6.494014395664804 6.3833496476950025
Fe 7.319242626364364 7.167772116874107 7.70058718038032
Fe 5.768642456974359 5.561830926400259 8.491905598737004
Fe 6.0822175029652215 8.257524423186533 4.7771306383420225
Fe 7.120985677785078 5.964058187061605 5.34587576066797
Fe 8.069108852037333 8.127272355383097 5.6745266973841595
Fe 8.06290663292367 4.9533468197714114 7.306188771220204
Fe 5.773711084352469 8.738264357120654 6.852779735837926
Fe 6.0857608151560285 4.132420436046147 6.864159784314499
