9
Energy = -56.22060535 eV
Fe 5.21964507709727 5.204457153975071 4.327557153461301
Fe 3.9819026078578275 5.791982239122166 6.520654575299279
Fe 6.01020734044673 5.4184220562887155 7.728910680789651
Fe 4.355357190651809 7.264665062034959 4.802470461059397
Fe 6.9343825708673785 6.726672588348115 4.346739209758069
Fe 5.9933900633609065 7.250471927676573 6.325089854242691
Fe 5.202790087856317 3.842854746827394 6.1840225176657935
Fe 7.226709521746006 4.928296091237405 5.755561385283789
Fe 8.174955376290004 6.671517970664235 7.1083339986147935
