9
Energy = -55.95703501 eV
Fe 6.776681844014653 4.493211171907347 5.381481040877794
Fe 8.537071344779227 5.959230708121937 5.323161980316391
Fe 8.269781163047588 7.42916390174565 6.962363530843536
Fe 6.457303546378127 6.8220305744381236 5.189474788314303
Fe 6.913094088458922 5.650292709428637 7.45086760321911
Fe 6.109268834622513 8.104342643999175 7.092373311198342
Fe 4.811178622370226 5.211910846150923 6.25929400473673
Fe 4.299182645456813 7.392905505403031 5.916918409336312
Fe 4.877304343613236 6.49971446824272 8.121357706181515
