9
Energy = -51.6980862 eV
Fe 5.587573104352005 4.219694570511489 6.6592486208185395
Fe 9.028001218320675 6.3325040422742065 7.289750206968058
Fe 7.215084437308769 5.093165059604052 8.176632557833745
Fe 7.694942184485603 7.428834055078553 8.98580974109515
Fe 7.426920613803136 5.435029848765317 5.759545141359715
Fe 7.620157202261691 7.911759944350598 6.1398249169076475
Fe 9.077697196780381 8.759422429490488 7.745888194627782
Fe 6.91185577719966 9.509360010226242 7.9047544777361445
Fe 5.680340193274787 11.586735451750865 8.137134132611138
