9
Energy = -55.49551219 eV
Fe 7.455859601215515 8.960731533726808 10.889011017418117
Fe 9.460462673007425 10.14047959125806 6.832000935624966
Fe 9.640123164206434 8.506834847658462 10.586823616835746
Fe 6.440817531506869 8.414006360709239 8.957907376651667
Fe 8.041780767526609 8.164860175924765 7.300967896759483
Fe 9.929402991825897 8.10554608938797 6.096572615058409
Fe 8.404942824038033 9.880005655033413 8.95770703672299
Fe 10.041940936092486 8.250490355938826 8.320632685915308
Fe 8.240655506597925 7.063101930442852 9.464586261229929
