19
Energy = -46.47129154 eV
Ga 10.620586471483987 7.285830663289532 10.237395369138689
Ga 9.338604988047583 5.298309993291544 8.62000288923029
Ga 9.454101864576614 8.50163502141081 8.18550006413834
Ga 11.813579812802239 6.274806164530994 7.966888229707666
Ga 7.946921416421676 7.1641754652504686 10.105162503972064
Ga 11.260600136401068 10.470439756953605 7.27158837242656
Ga 6.99976973665851 5.863953825365809 7.59972498782044
Ga 11.720712488921148 8.116899385599783 6.0449558143530036
Ga 8.55550521996599 10.9057653298976 7.196375626922807
Ga 6.748596277897235 9.280692787680692 7.969852804350893
Ga 9.360739191467555 9.16203069263252 5.213061715734872
Ga 9.49284137941615 6.501795773618399 6.321801700108463
Ga 4.45189041661967 4.956651505280478 7.991399931839301
Ga 5.430490916700331 7.279993696896499 9.491161968254573
Ga 7.236119453309635 7.883332227780897 5.701308482278067
Ga 2.3358863856013885 7.126479913090699 6.158968275839348
Ga 4.299286415638115 8.605003623192099 7.427672055518198
Ga 4.915197515854493 6.484274255889224 5.83027892565499
Ga 2.84813853761606 6.779795271695413 8.893433861948417
