14
Energy = -33.34666462 eV
Ga 9.892657617800001 5.273430911281497 6.669502354546728
Ga 7.564922726896219 3.9769559307146523 7.1084234437981415
Ga 7.446827788938389 5.81742036163062 9.16468509247421
Ga 9.714132861885023 7.0926196828746475 8.68666652687131
Ga 9.334821497343208 9.56760709625578 9.421794656570718
Ga 10.957660831945468 9.147219926581856 7.266412588982544
Ga 6.394343637739143 6.307038048922792 6.717472864779798
Ga 8.719413704199905 7.535966937626999 5.9835027261605696
Ga 8.656791991134616 10.201616830499686 6.475970311606509
Ga 7.593501699917283 7.730781660353956 10.889637920936845
Ga 7.955185353404705 11.56559622828809 8.524984912139312
Ga 7.113057564438376 8.499216304867085 8.014796687919336
Ga 5.4457712256125035 10.681540448548954 7.886144680094142
Ga 6.352896194139308 9.902783035082827 10.254897106501664
