19
Energy = -47.11602083 eV
Ga 8.753634933833348 9.72160126841174 9.967935582171455
Ga 11.348369256683553 8.327836825107397 9.820236561759948
Ga 9.502847358064875 7.797592841221639 11.732489201521513
Ga 9.984816971899328 8.834017431491985 7.6063836876422775
Ga 9.977467920039507 6.235474519647968 8.903023523071358
Ga 7.5677374786999705 7.197128061227021 9.991608260474578
Ga 8.457992876483337 11.165246701371764 7.71030083164619
Ga 6.914991719116749 4.774725300202208 9.424697845032613
Ga 6.754138939712411 7.331432715321594 4.744007122061476
Ga 8.238092627360958 6.9036498774674495 6.925727106531915
Ga 8.309396579505279 9.378222937460697 5.652125871924012
Ga 8.713273814046985 4.299941891442567 7.462237431666297
Ga 6.749497065553112 9.03935454680074 8.224233114954137
Ga 5.550222341502271 6.597280551760838 7.82754655012376
Ga 6.843132939116394 4.833162956502581 5.667787938731037
Ga 4.883569925389015 8.604124895294186 6.323188167321593
Ga 5.216470977327152 3.952052307582505 7.609665105596948
Ga 6.2326304811560505 9.999495347180062 3.9923761861727467
Ga 6.055311804520669 11.064261412577276 6.538200767958673
