10
Energy = -22.63806477 eV
Ga 7.782562228265581 8.03295706587284 7.054514904274704
Ga 7.329019669371209 7.0490185952736315 9.348611098460522
Ga 6.345865335806561 8.966525168996558 5.006502394189777
Ga 5.640204235936116 6.453707262196961 6.885478120072418
Ga 7.007671748968533 4.0860449581486264 8.265083620826267
Ga 7.405244872194198 4.745340683100117 5.85675581904614
Ga 8.01608655802473 7.05912363014544 4.461369004589957
Ga 5.203214978028347 5.547969595985478 9.43217098041626
Ga 4.3545717937706705 7.389165292671768 4.866974848198458
Ga 5.9155585796334815 5.670147747608009 3.822539209925457
