17
Energy = -41.12921547 eV
Ga 5.109528028171167 3.0861100290539385 7.790153617242675
Ga 6.773856164168875 4.722114395047187 9.070534904179647
Ga 7.707475826636094 1.9965119329380776 8.309085842769548
Ga 6.7207194536731825 3.2030102545934582 5.692008763345951
Ga 6.676362735362261 7.250110527259149 9.633489821106103
Ga 8.641198575085626 4.296251204242927 7.256343658802118
Ga 8.049937733617899 6.830063558491406 7.194474782481222
Ga 5.563848101955472 8.034631019502296 6.576171583007543
Ga 5.40479358873828 5.523768297606128 6.842998594326726
Ga 7.559544341239989 9.267475060380383 8.237907442627735
Ga 7.315496150801995 5.500814756176618 4.73959102056194
Ga 7.686125685775012 7.978888816663066 4.676423931545688
Ga 9.639146165932026 8.865055992397973 6.396559565517111
Ga 4.563088830195529 10.284675269829508 7.486306414640128
Ga 9.167910978807448 11.359015571592067 6.906104711425112
Ga 6.887461842710254 10.169880814646211 5.615602983233074
Ga 6.730984725584796 11.836020214653056 7.779358112850845
