16
Energy = -38.86951279 eV
Ga 6.296847042435943 6.3805140171339705 5.184518113140187
Ga 3.9679674520289705 7.832896324789447 6.3344537154988005
Ga 4.3925553194247655 7.258880563036257 3.7427831380535164
Ga 6.123671400975203 7.6887937907083925 7.727595681132351
Ga 1.778307999421904 8.23007886442209 4.655134732861958
Ga 8.494453260142118 6.906956724447567 8.222718593786457
Ga 11.026672050537952 5.781359691703878 6.843616609813055
Ga 8.780521050987605 6.619167096136427 5.586781959104216
Ga 6.781496639799696 4.802277843652348 7.634061191419113
Ga 6.385521480215132 3.5755777694025843 4.950356203874324
Ga 2.0224611794107092 5.918942256480069 2.929697519547794
Ga 8.750292298941856 3.956809014521369 5.813985590613228
Ga 2.252667940218787 5.772188377658195 5.782795289894567
Ga 4.127622315951799 4.615478928940558 4.1568836778593585
Ga 9.214426442712236 4.374790306557132 8.390402102454336
Ga 4.422720904699171 5.1087426090982335 6.884423167522278
