14
Energy = -33.54799382 eV
Ga 11.447271207872816 11.649449486422814 9.708186757650433
Ga 10.116449695678257 11.432137524440485 7.202540549874239
Ga 7.594027692052476 10.404388726426305 11.795980153917368
Ga 10.131328405053468 11.110810557153343 11.870097183753924
Ga 10.817035865614116 13.563931106293255 12.048595677728802
Ga 9.242400617342387 13.591777928401777 9.686750950185631
Ga 10.594097682971094 9.157774215091036 9.511541097530364
Ga 11.401282861948387 13.781251422665552 7.811400007014014
Ga 9.216578508506052 8.314538095571468 11.47754302525157
Ga 7.570077441686848 13.08876492781726 11.655977779795885
Ga 7.151616612493364 8.790962988091632 9.586005885804042
Ga 12.436671728709298 14.14027820991073 10.180476176471217
Ga 8.642923416341322 9.083020564010587 7.517230983525143
Ga 8.566975121236666 11.146493572581274 9.439904433974133
