18
Energy = -45.14556123 eV
Ga 5.7486218874141315 3.989672290955514 7.390603966612284
Ga 8.268827128304492 3.3001657641494884 5.966642946897699
Ga 8.325861146825806 4.64375999573122 8.25318876489629
Ga 7.265308506865834 5.9744965443987645 5.966642946897699
Ga 8.325861146825806 4.64375999573122 3.6800971288991087
Ga 5.7486218874141315 3.989672290955514 4.542681927183111
Ga 5.75631076470039 6.703578451815907 8.301333688320952
Ga 8.407671100088269 7.257668231210505 8.208735804041606
Ga 5.769936964847875 8.4183237153225 5.966642946897699
Ga 3.311853384674828 5.233138612144341 3.664263274981376
Ga 4.630784163418076 6.0022640581905184 5.966642946897699
Ga 3.311853384674828 5.233138612144341 8.269022618814022
Ga 3.296672722779051 7.959369376307369 7.4055876895752
Ga 3.296672722779051 7.959369376307369 4.52769820422032
Ga 3.313332688992325 3.5927277754139983 5.966642946897699
Ga 8.457401578765273 8.537221270354092 5.966642946897699
Ga 8.407671100088269 7.257668231210505 3.724550089753793
Ga 5.75631076470039 6.703578451815907 3.631952205474446
