19
Energy = -45.73794358 eV
Ga 10.722464222632977 11.810130949626803 5.919683341271535
Ga 8.310595731604131 11.28590590044575 4.997762509362911
Ga 9.47689708557966 10.323292037893246 7.972380999435161
Ga 10.025423603753968 9.146463036498943 5.372184393126484
Ga 7.369505010555449 8.878890488532852 4.807328944615828
Ga 6.981189887353957 10.33987946995984 7.196549973932193
Ga 8.659982694180162 7.888867460814888 7.347071720377234
Ga 9.332926740916207 6.6579783188162525 4.611885609188194
Ga 6.377310626138204 3.4485922641517788 7.691171584679289
Ga 6.6803439890588505 6.339565817243282 4.232267198942344
Ga 5.874292757099344 7.800586703209323 6.794006196427154
Ga 7.683290198459409 5.558480058604552 6.661529611706295
Ga 6.372155143505861 3.5127442595153173 10.71386936524536
Ga 4.143893422064689 6.312848898333675 7.868871877492324
Ga 6.544719863342848 5.737852507832048 9.034781342063075
Ga 3.7280953095552953 3.581195074049425 7.776314233418193
Ga 5.001739987929106 5.058964159373315 5.69523817180006
Ga 4.910523524100343 1.718128872073036 9.32517960868743
Ga 4.150411446358525 4.848708904391227 10.128316087238153
