15
Energy = -35.86475168 eV
Ga 8.23811533821712 5.252018354130033 6.385612289336411
Ga 7.25802258432507 7.162068670613658 7.894180809549516
Ga 8.685805208377069 7.850365441615778 5.604147178029804
Ga 10.539296651654638 5.372263253301936 5.021417189539115
Ga 11.109472476035627 7.375124587247147 6.745546959968539
Ga 8.060772744047664 11.429662128375924 7.264919399063114
Ga 6.497288992280269 9.492333337221655 6.4063499358660625
Ga 8.638654832202022 10.632095184876789 9.764657714935824
Ga 6.301690667557359 9.335282346622835 9.068725805719287
Ga 9.369771643965905 9.066416844853299 7.81304525476347
Ga 9.62726763106505 6.11229959272442 8.535069625398519
Ga 6.214923805029191 11.138868441344545 11.129028591115588
Ga 7.759758847394555 9.179636148218934 12.051430323534957
Ga 9.466091946379676 8.095306047521547 10.33696423343616
Ga 6.839698070396017 7.112891060258805 10.585536128671222
