13
Energy = -30.64381006 eV
Ga 7.142818938561132 3.1182641490140015 4.420534361811385
Ga 6.893947954543994 1.6128019977253873 6.755144185694452
Ga 8.297253332483141 4.236375529357476 6.51501379131959
Ga 6.048798314064563 4.016024505268827 7.978886863147864
Ga 4.909567522916838 3.8954199437480743 5.693846053093813
Ga 4.745326130180187 6.361267436995798 6.770927082901292
Ga 3.701935975829754 8.826534930985927 6.57101649256465
Ga 5.0442593161294775 7.798989504842202 4.461886239385827
Ga 6.754530249053041 5.739923207956343 4.784621935039729
Ga 7.441970121378905 6.478140352170788 7.373953115927994
Ga 6.073101926174676 8.613823677035752 7.699317524915333
Ga 7.335278185683317 8.543882318728121 5.338299555513505
Ga 5.525743485924242 10.68458699548332 5.5704059367050744
