15
Energy = -35.65284616 eV
Ga 7.637853110932831 7.729572739975917 3.3438750915494193
Ga 7.6045185204465975 6.603446346236678 5.781345325033877
Ga 5.82674149948608 8.313589479797999 6.511362977895028
Ga 7.062350876084583 10.044137950173198 4.847031649203302
Ga 9.27753264693887 8.627211064875121 5.291779691113456
Ga 5.024073914657382 8.274057716711273 3.921421972936621
Ga 10.11128751372816 7.803330449355121 7.561510648428883
Ga 7.3696487912255755 7.054723360418504 8.445815091040982
Ga 7.964315770691827 9.892687174139576 7.304817946295656
Ga 9.783729177350667 6.761024752490943 9.882365335810992
Ga 8.710976963825544 9.345128913265938 9.63716872643447
Ga 9.313868223401075 5.764258959781121 12.461213364007643
Ga 7.282089866766845 5.828014387273462 10.687620307416552
Ga 6.603540538096586 8.303375502806762 11.06515604827297
Ga 9.141323050785584 8.369291667116267 11.97136628897848
