16
Energy = -38.31492319 eV
Ga 8.533971873893226 1.0096966971150396 6.979913561584243
Ga 6.925412036257958 2.606715543750428 5.442946317109192
Ga 8.965618530382528 3.6491162360128144 7.191221716350061
Ga 6.523227286919974 3.5369189633956455 8.26997799993534
Ga 5.116452260229985 6.085838989084495 8.417429938433242
Ga 5.224981405342922 4.434681208611296 6.163499243009219
Ga 7.601138781732583 5.101544305265884 5.022672564816257
Ga 7.702078298363309 5.89884432614815 7.5816179739174565
Ga 3.282738920965886 7.864020810775044 7.971366149852452
Ga 7.993880057190742 7.787707383256737 5.606825590859123
Ga 6.078876371988122 9.018516328168893 4.245467773294945
Ga 5.21555599347137 6.998779507059103 5.606979747703599
Ga 4.553793659955263 9.543169010867803 6.357072433068044
Ga 6.532420305724928 8.500920810043576 7.801040010511471
Ga 5.731613803965828 11.75239165450621 5.058641170089891
Ga 7.758644912941082 10.364346996846127 6.212453617836853
