17
Energy = -40.98605812 eV
Ga 12.000166154488651 6.332667059636596 6.599586784341876
Ga 11.984059619650333 8.33997083275873 8.937423951715752
Ga 12.94168343749759 5.7847732481767435 9.20722820870577
Ga 9.363825022042171 6.300805388560353 6.4592164955265
Ga 7.623211678604138 6.708547355352327 8.522452534261909
Ga 10.697724553879189 8.700051448692392 6.548240482168634
Ga 10.191742104024321 6.267054616946308 9.013507014355245
Ga 9.37573109618667 8.8938317975445 8.922162878478511
Ga 8.026764785932361 8.971622724748757 6.426958088742912
Ga 6.745508197038171 9.337085673221923 8.974923171730671
Ga 6.734078038512643 6.646927268938818 5.816166763845054
Ga 4.306592630504426 8.664752851765838 10.413042550144986
Ga 5.476880063688954 9.02768756899536 6.486596226072102
Ga 5.133013330899328 6.947244856403489 8.450152144063903
Ga 4.400520328684863 10.486434986333588 8.410001174324005
Ga 4.144975767951706 6.563880557178147 5.6406475126599585
Ga 2.992086734277739 8.219022921047587 7.439496346901527
