19
Energy = -42.39593724 eV
Ga 4.694424822160643 9.32251336574168 3.2747648569664736
Ga 4.910514484079525 7.779398311631911 5.682380918354322
Ga 6.753886970225113 7.4891861415990855 3.3530120827895877
Ga 6.0080380869714975 10.163626096096335 5.416879721867096
Ga 6.260358001302429 8.431539639526692 7.711356424974195
Ga 6.450989352622958 11.721216253822368 7.339021294865132
Ga 7.359348458507907 6.526274897652027 5.84561907669241
Ga 8.300477052650203 8.936709867554173 4.89216170116331
Ga 9.282905149900802 3.705737158139387 7.313993925244663
Ga 8.582659205377585 9.700487554158368 7.49710110811194
Ga 8.369877621751519 1.0249634494345277 8.208487406900067
Ga 7.156200851349168 10.568772049807496 9.700012327801414
Ga 9.908792877063746 10.848709188330725 9.992659803613797
Ga 7.020333372706933 3.3955539329242375 9.044373331210606
Ga 9.671356512799328 2.5680891131786217 10.064347950011605
Ga 9.775401994045673 8.301936181230532 9.42156177612046
Ga 7.131839777947597 7.899009040509164 9.990841292431217
Ga 8.144249760913622 9.493512428107268 11.941320473249506
Ga 8.681002248993039 6.360492827751007 7.986492628269597
