12
Energy = -27.81465231 eV
Ga 6.061932769093308 8.20742807553499 6.868223129523411
Ga 7.7776520348938165 7.506343999530412 5.0373897247025425
Ga 9.85344417643515 6.402189540205573 6.345030189028818
Ga 10.380360020110935 8.282556326199051 4.3707249100403
Ga 7.490902078622155 5.963254348788834 9.745317358304778
Ga 8.429692011559569 9.725097350614831 6.316827005943142
Ga 5.583814122741702 4.07466579508342 9.728072623199992
Ga 7.114393039411417 10.860269083365667 8.291747735623753
Ga 8.547661785015846 7.904153776149687 8.222038555088503
Ga 6.444709315774411 8.648324403444876 9.63392322198645
Ga 5.056660205836511 6.55994776365254 8.546505659339942
Ga 7.2471024739215455 5.775794894670855 7.033000885455908
