16
Energy = -38.49144335 eV
Ga 3.9454315346417292 7.023553540512593 6.798545540551353
Ga 4.435090777555735 4.728382864481245 8.31434899730953
Ga 2.4500485398075194 6.473883081207939 9.135603552493983
Ga 5.88947935139284 7.761648746221149 5.308466239512631
Ga 6.529005864263644 5.942681779029915 7.478717545921361
Ga 6.16589826322652 8.694696921574277 7.887155093134633
Ga 4.851714401889236 7.518334318374502 9.639771226459063
Ga 5.979951653030162 5.101826910572099 10.36930665394595
Ga 10.40220423717159 8.916918664643877 5.615389922863949
Ga 7.672593109343967 7.025034095035132 9.811551657392508
Ga 8.024994433124231 9.431485773603482 6.458296814673847
Ga 9.147879704231475 7.301120883626323 7.753666392214972
Ga 10.269414153519342 6.585815106253934 3.271280917635274
Ga 10.913431771151815 6.326975947605205 5.86426245390639
Ga 8.26869857520896 8.2821251926948 3.9930216997488657
Ga 8.231013661868738 6.143014862102879 5.520441037390307
