17
Energy = -41.12833578 eV
Ga 9.300967517342679 8.54946469803645 4.737786222960298
Ga 10.684401205674469 10.68668598753528 6.004147667838469
Ga 9.730399714192812 5.820773546289436 8.418530184510406
Ga 8.046534785547438 10.900405805297252 5.18084412272014
Ga 8.466761363240037 6.525530481952228 5.9731093830992865
Ga 9.87934741675633 8.509624556667237 7.529506384727751
Ga 7.612516091635748 4.4531350840626684 7.4249474076686655
Ga 6.825567245436556 8.883621131637884 6.334460190991878
Ga 5.8848238581481205 6.281030132903828 6.351851959271634
Ga 7.56441915944624 7.512109419989478 8.678458422486099
Ga 8.308985853240824 10.555876672533879 7.911501330314168
Ga 6.201088135516938 9.899565157151276 9.232761086097984
Ga 5.068594492928703 3.746761003112512 6.30181837144586
Ga 3.8488225569529746 5.5393749025079675 7.936417868077838
Ga 5.728278255934895 2.935072308418068 8.819476684410862
Ga 6.075724502578883 5.549508550679946 9.503415660464615
Ga 4.728970977820016 8.087534485907344 8.129598461216386
