11
Energy = -25.48317337 eV
Ga 6.687806812660676 7.242528193327574 7.953087732709361
Ga 8.373251220528145 9.248771006696696 6.814237487979219
Ga 10.30050434067883 7.69691800676856 6.002775967981405
Ga 7.949449173166131 6.7076532916495575 5.552211945894729
Ga 8.362507069925151 5.231840716877067 7.680344728721134
Ga 5.980916172289498 9.988563121427967 8.08013326527666
Ga 10.563463853747217 6.42868969872286 8.214561001357096
Ga 8.337790995775576 9.893968574218432 11.422094054520167
Ga 6.351264985290886 8.530421480344435 10.199057684986629
Ga 8.292026589411158 10.859425702800213 8.900228901928063
Ga 8.950382640126213 8.183931072014255 9.291015252423238
