16
Energy = -39.64837395 eV
Ga 7.3779440842074475 4.508242462563695 4.596248014149572
Ga 7.6102612550130635 7.135584811131938 3.735264164139996
Ga 6.594711970672062 3.4848878846349836 7.029787086380119
Ga 5.130907226814006 5.686266508721546 3.0372329580214052
Ga 5.954564310592816 1.66932628870277 5.127974141077036
Ga 5.963995958311858 6.095166850691488 6.172795767769686
Ga 6.121921496763489 3.1617883124881474 2.6743379259144135
Ga 4.624786742069596 3.9669956200656946 5.020770485441059
Ga 4.124749253928473 4.34172838419997 7.6661360419564595
Ga 3.349516722957969 1.4401536103604629 5.421099255943751
Ga 2.751003400947536 8.0049047702043 3.2513936230721434
Ga 3.3616097881572506 6.308555058224502 5.85922799887882
Ga 3.4918669711622985 2.8924399028221757 2.8161682812791335
Ga 5.1287063406103055 8.002487818941995 4.375543691045363
Ga 2.5289656344161893 5.294380507622003 3.510413040205649
Ga 1.9866097914842054 3.7140208368767538 5.703213189741835
