18
Energy = -43.97842944 eV
Ga 5.532412223567531 6.031794078258146 9.056894059035772
Ga 6.417767436720679 7.621406999016994 7.013876028836228
Ga 7.740724686108378 4.715003372429851 8.319862766995
Ga 7.783015436129851 5.597996458295023 5.846762858053069
Ga 6.4882559868411835 7.15141317786091 4.201914419567748
Ga 6.680063928780456 8.48132986427416 9.495669846234609
Ga 9.05314564102096 7.295488860131737 8.15699208461336
Ga 7.5660779361329284 10.033032316375834 7.485064899076293
Ga 9.188851607849132 7.918229072739943 5.584593854970949
Ga 8.53113011073405 6.230280427232081 10.387995272210546
Ga 7.275352183325552 9.64108132590258 4.690695983505823
Ga 10.59345114215526 9.975246479599074 4.459457514834254
Ga 8.055757341596374 8.907919824766344 11.738083519255527
Ga 10.389710755526256 9.751590361867395 7.204694337405148
Ga 9.32911422862164 9.569943641682896 9.637764041674828
Ga 6.062748495829186 6.926425000195495 11.561292929371264
Ga 8.761122161514518 11.5641787598249 5.7255431197005535
Ga 8.122014304650667 6.328376795872116 13.180893341658562
