19
Energy = -46.44863012 eV
Ga 8.490967850771046 5.759837151160254 10.227726767593136
Ga 6.288291889791252 4.636659991706129 8.590715748445808
Ga 8.85157185839411 4.023920545175068 8.084327838703725
Ga 9.622275715683887 8.068308893708917 9.5287652577726
Ga 7.027556607551259 7.24439783369583 8.50967654338479
Ga 10.954587743530936 8.809220056675619 6.949701561570878
Ga 4.690259107222622 6.558609021534384 7.248622281339368
Ga 9.570597151539657 6.430280061031365 7.2854670738784675
Ga 7.4044171216725445 5.559884092812516 6.096447864231735
Ga 8.336378052152499 9.436589651561999 7.4094316790868895
Ga 8.86044425295921 7.815368781196374 5.082660366285852
Ga 6.355710420536925 8.334136971110487 6.132094346274592
Ga 4.06639019783146 7.838512563006125 5.025127870501108
Ga 4.077678711645666 3.8732798078989226 7.4097999364666
Ga 6.5883253592289295 7.037554645109575 3.605375347401941
Ga 1.622032848190512 7.151149808688403 3.823850732033733
Ga 2.683128175003506 5.344576935955613 5.778574960205275
Ga 5.322504469845537 4.864465020847237 4.942503318377182
Ga 3.949305496197294 5.985110208084249 3.015207520867085
