13
Energy = -31.28763483 eV
Ga 8.62750936242084 5.557930560825697 7.8137487172485836
Ga 9.012025953666015 9.2212974557935 6.2450248908339026
Ga 10.73753951810866 7.038726758356383 6.157653790340273
Ga 8.982816521198142 6.58749199983038 10.455275143638548
Ga 6.523289960403355 6.006382731088794 9.797218257011204
Ga 8.1286122911608 6.670091273779515 5.457259229240125
Ga 6.241620911264285 8.587194463959959 5.627533917519214
Ga 10.128643572390489 8.074517938761357 8.5212483578475
Ga 7.405631012865546 7.823419367994976 7.956989359862776
Ga 8.642853045701127 10.691120082212697 8.421233180211672
Ga 6.106453070305578 10.29294898911131 7.694399796165192
Ga 8.060127076430073 9.032339749416277 10.34414009479783
Ga 5.33791641570225 8.446798833046987 9.56266944792677
