10
Energy = -23.12528599 eV
Ga 5.630238231879862 8.5260607 4.704288430942659
Ga 5.978797840281863 5.978797840281863 4.638994291230897
Ga 8.266808890461958 7.250827446884538 5.940604667296793
Ga 8.266808890461958 4.706768233679188 6.016991013266929
Ga 6.327357448683866 3.431534980563726 4.704288430942659
Ga 5.630238231879862 3.431534980563726 7.2533072496210655
Ga 6.327357448683866 8.5260607 7.2533072496210655
Ga 5.978797840281863 5.978797840281863 7.318601389332831
Ga 3.690786790101768 7.250827446884538 6.016991013266929
Ga 3.690786790101768 4.706768233679188 5.940604667296793
