13
Energy = -30.39687843 eV
Ga 10.036785644889047 6.49721959160633 11.215267056754847
Ga 8.45882502634788 6.254296240933569 8.83314866176049
Ga 10.758368293934215 7.707375560503175 9.048489460135235
Ga 11.648513029271736 9.359418553617433 7.314052501907368
Ga 7.925434275976275 7.992615596580069 11.151752527732617
Ga 8.344507260339459 9.46319680644692 8.991882514845434
Ga 9.442548091636873 10.597016420189334 6.8229418383458125
Ga 9.433343768532282 7.646787756907903 6.721004102353461
Ga 7.614775755098985 9.325761322877582 5.555836170677351
Ga 6.855169336425027 7.445088331747505 7.17148030418773
Ga 5.944756499796941 7.353622685253599 9.645456020604048
Ga 5.052303983342849 9.163462168251593 5.901789705531465
Ga 4.1712461463001524 7.493506507360864 7.699913163636367
