10
Energy = -22.53865286 eV
Ga 7.612722922877479 9.780368093525228 7.675888649506657
Ga 9.496468152974282 8.222146823350327 6.367761547264177
Ga 6.446305174888654 8.080451397371526 9.190294980342282
Ga 8.857116127286517 7.215770912248667 8.858356472026859
Ga 4.605644103019505 9.850241598684951 8.120633132137622
Ga 4.728385531537693 7.432975867995065 6.985399125753785
Ga 10.764184937139904 6.086426515698772 7.0201727318071265
Ga 7.103216295290318 6.203750474766884 7.298737498215984
Ga 9.351885776061632 4.53277682965044 8.549554873577945
Ga 6.866260413573742 8.286433075325325 5.724454662849883
