19
Energy = -46.13353789 eV
Ga 10.978244393767485 7.8988770902939605 4.85902725047531
Ga 9.595212861143448 9.20581876096016 6.7119553556728295
Ga 9.121454065619275 6.387116749113024 6.214802416008708
Ga 8.593967243548786 7.773880446457055 3.741741294418131
Ga 7.394032294744097 9.59479036947601 5.219949614565865
Ga 7.439736674046009 4.238993427126164 6.033985662102413
Ga 7.690843851964137 7.899542558017021 7.836707353050832
Ga 8.911733599833887 4.728715184713575 3.965750121630725
Ga 5.244756614459716 4.574363959994638 4.242724316403451
Ga 6.876850541330356 5.943727221092636 2.7526038556421257
Ga 5.59123715398672 6.538965786917849 8.059613916080547
Ga 6.507391310105014 6.8651976952422915 5.373968277084939
Ga 5.086866273254892 3.9860640229601048 7.115609984646063
Ga 3.8154740718460536 6.318783869935604 5.851002996091029
Ga 3.334185713599736 2.9240287864458985 4.9045563770858465
Ga 2.316878709562744 4.3372366763096695 6.869316393956093
Ga 3.9097922395471025 4.747082058323106 9.24377459436922
Ga 2.9083789762982057 7.169877184138144 8.122700097835445
Ga 1.211060453530319 5.3449894079764615 9.258984887069287
