13
Energy = -30.91573263 eV
Ga 5.061354195812433 4.879591401869531 7.092431444259051
Ga 7.666071890662426 4.258468800091543 7.594023565600536
Ga 4.520192102364523 7.306246438393462 6.35943255047018
Ga 8.760943447658187 5.894544401944107 9.353747990833135
Ga 4.9845899877536874 8.755482913565187 8.593695063416524
Ga 6.493120965944052 9.336448774032677 6.4478289637103225
Ga 6.1868460633750075 6.5620362241088115 9.216864449778136
Ga 7.16017587386132 6.743685485616306 6.594060869154492
Ga 8.993574321797068 10.210991378731714 6.564932491348359
Ga 7.946029552974715 8.541204288505806 8.60470032030392
Ga 8.915232426113057 8.148797570198228 4.916795988212135
Ga 10.625255091663563 9.42430630130399 8.46952542915569
Ga 9.803172457360589 7.018282016083969 7.14422416023796
