17
Energy = -40.73466589 eV
Ga 7.240281689662056 5.025516785425217 11.129331432785277
Ga 7.681429275201048 2.6622723098527126 9.874024500875764
Ga 8.19455088622387 5.03615851565625 8.509296126025589
Ga 4.768804357478176 5.128477859988724 9.957426276203307
Ga 5.861865957728441 3.64973401347659 8.129354791902413
Ga 6.566748765274013 7.101690718131227 9.525760873132525
Ga 8.953465594448252 7.674290701615717 8.624664505204565
Ga 6.574524850633759 8.708678626453166 7.393185622563825
Ga 7.51301793872848 8.894861154108112 4.786004066419233
Ga 8.074102492398325 6.304514905717957 6.188449442619889
Ga 5.518347403643448 6.176106646151422 7.225831137092324
Ga 5.538896025254016 7.17155676753634 4.815215703792486
Ga 8.952208028850938 10.328534363982076 7.931536495400578
Ga 9.742682700853988 8.396139798661201 6.150713897780248
Ga 7.635359655368504 11.570172470736601 3.819415378947075
Ga 6.976692642153422 11.183995177369018 6.456590792003229
Ga 9.768908700908959 10.740660458946143 5.147525329151536
