18
Energy = -44.07386128 eV
Ga 10.08250531900172 7.061233228149037 3.38857679939494
Ga 11.54883838582502 7.240606704396906 5.571721999485494
Ga 9.814580950673452 5.621216377954209 6.630218436293608
Ga 7.985001453895448 6.085766257122355 4.664851420220087
Ga 6.677736958573919 8.070320299636064 6.108441324989015
Ga 9.195377788258014 8.619466097299851 5.542998163414643
Ga 8.827201658339174 7.486404741404929 8.164786939698041
Ga 11.280951743245309 8.770922651367941 7.734391225657925
Ga 7.445869323322791 10.71898896229898 6.087605350144844
Ga 4.540805950083156 7.808160465188898 7.625171659479236
Ga 9.09590415257947 10.172140899101366 8.057160904696154
Ga 4.882607584351807 8.27912636031469 10.405348881068555
Ga 7.046400583480561 5.548748983063138 7.046754802882633
Ga 2.732217180986458 6.697233414761793 9.281007271005967
Ga 6.817081981990089 6.5314860759622775 9.620688032541782
Ga 6.65314125843286 9.27542439738522 8.671511899997435
Ga 4.736430913114477 5.207910025176872 8.350621406777003
Ga 4.769565037847476 5.726320373393678 11.229116203433474
