15
Energy = -36.23606886 eV
Ga 6.571070355770409 6.522844944822895 9.277510148665696
Ga 5.716233126788275 5.007444503961714 7.162209433058625
Ga 6.193387060758968 7.80197787488967 6.81459340447275
Ga 5.6882798023300305 9.071101513658165 9.114471577802336
Ga 8.364061918618903 8.52327971776513 9.370688537065112
Ga 8.756797797005735 4.61789422701267 9.226963068239193
Ga 6.215114767335028 3.703354772797213 9.504036272139794
Ga 8.284486389063577 4.007670616206296 6.712956682954952
Ga 7.285436042070142 5.905601298881598 4.993930334044953
Ga 5.913299051323018 10.70168653578417 7.073791875697955
Ga 8.734480638262589 6.64723243516166 7.374720768441925
Ga 5.441297455218566 7.7263389143838195 4.2416269179298585
Ga 8.88732202773009 7.966745931282116 4.804199572600928
Ga 6.911629130660175 9.85410803894779 4.742347770636713
Ga 8.482989037093526 9.380463910787233 7.029970093245965
