18
Energy = -43.69053109 eV
Ga 6.723849205594496 2.6359564605322654 7.93291304206341
Ga 9.247885681852376 3.018151559665973 7.239005402874089
Ga 6.4206736518105725 5.207924899322511 7.015294873613539
Ga 6.318757111431046 3.0652538500139666 5.2963509331371075
Ga 8.899337580277445 5.438513153296137 8.009679028037615
Ga 8.545854934839122 4.763227862016699 5.297860676587853
Ga 8.719847126539385 2.074729718624808 4.680930404118307
Ga 4.913595139800291 8.91571864037621 8.847300809152534
Ga 4.295313636756438 5.066682411756259 5.276347211870293
Ga 6.317337009902291 5.21033087944588 3.4759161479312346
Ga 7.559569288364541 7.557179641273062 8.24884698266636
Ga 7.416850278159768 7.073402530933848 4.915804823648918
Ga 7.301770116994131 10.096192711329765 8.614225641283895
Ga 5.1451621211783705 11.683252148485115 9.366126158609376
Ga 6.967316871930946 9.32002214509242 6.04715409030982
Ga 5.033488034646522 7.315250933242943 6.621268533052621
Ga 6.120462751531527 11.76710288194806 6.780903348306105
Ga 4.340444406886558 9.923996792588841 6.522788193957928
