12
Energy = -26.55085763 eV
Ga 6.742665136903384 8.216435292664174 8.397192780079386
Ga 5.379192758981511 7.290133790808977 4.096071458508502
Ga 8.117249998852497 6.017560009282621 5.622391424269274
Ga 6.623732820995249 5.009190608108051 8.400879295973619
Ga 5.800040550208466 4.1187167208005 6.197748946724085
Ga 9.078212566765547 3.945678468829872 7.366667081558861
Ga 6.738822531859551 5.236660519490942 3.81059247066075
Ga 8.653254132695453 6.719321319251814 8.181729556804829
Ga 3.9408044006677954 5.7610662781181015 5.733936062707232
Ga 4.606124714986611 7.1117921331046645 7.416198318536908
Ga 7.110048122227337 8.369066583877917 5.6931386306824425
Ga 4.785035369794094 9.779360970859404 6.653035492054866
