10
Energy = -23.08360301 eV
Ga 9.13427909370046 6.914186136733527 6.412901242409899
Ga 6.401227323777622 9.06914240086761 9.426930248073349
Ga 8.102650859486506 4.580017302611792 5.967975845357407
Ga 7.6890592090525995 10.321476249440098 7.408354119517803
Ga 6.4638781802419985 6.304949635291987 4.940160930707006
Ga 5.917297148391688 7.6267704014144115 7.162224895110461
Ga 8.66032949520921 8.03394889388337 8.537346139132277
Ga 7.6908513971647 8.825304061759367 5.376123180743843
Ga 6.697850830243645 6.663677504679336 10.505260255418483
Ga 7.097148768360759 5.562802444171366 8.189454552654473
