17
Energy = -41.20910112 eV
Ga 10.2535114506631 10.211684074453464 8.998606316849143
Ga 9.138831069515552 10.737373304552442 11.38773461604728
Ga 10.381805036713995 7.552700361149086 8.464241451480955
Ga 9.847584751684582 8.061026669805186 11.074926411834248
Ga 8.751177311550233 9.380422254843667 7.034184554355722
Ga 8.735362830885627 6.465033738125501 6.723527421374237
Ga 7.029123684072211 8.900426331851644 5.178820833834784
Ga 7.630287141697706 9.213216273697089 9.571228747267327
Ga 8.084298834700737 6.686510952635771 4.090286768688475
Ga 6.584930115310565 4.981117430303243 8.489472431615319
Ga 6.44022628309519 7.787703830091396 7.779166849420734
Ga 8.200462024358652 6.5471044729665495 9.707710610276111
Ga 6.627248753391298 5.233310720401539 5.878198400916884
Ga 4.183941256155973 5.464646674929539 7.6085852072614975
Ga 4.906352316985129 7.52148376416381 5.702743406602399
Ga 5.591224528972951 6.214202782913372 3.4164729602605677
Ga 3.9511516286785286 4.915989423275717 5.015907241343148
