17
Energy = -41.27441055 eV
Ga 12.306308514878515 6.501263401351149 8.037548530056245
Ga 10.68711609446094 7.199364588822696 10.035398747978723
Ga 9.91288364348052 5.271198437837366 8.052728950170748
Ga 10.14066904204946 8.445505713449416 7.6636803670841935
Ga 11.702451901248724 7.576950575860766 5.707583570601601
Ga 9.432797881086962 6.222341508270215 5.687270180197059
Ga 8.591215489495367 8.137991447596272 11.047940194474668
Ga 7.849401243613443 6.682350083729322 8.803712650902618
Ga 7.419747116998495 10.978054419698381 6.652812233234349
Ga 5.8842072188973775 7.181119912662839 10.619088605792463
Ga 5.464770758256572 9.38849170768871 5.775989686908303
Ga 8.241384837005878 9.644041355794252 8.883075121698791
Ga 7.738560898433578 8.112583445834634 6.370394188182833
Ga 6.455743823599118 9.805528592845631 10.980023177452116
Ga 3.684786359205641 10.18033090443293 7.594863564708709
Ga 5.957693152849086 11.240166960971097 8.793120900000389
Ga 5.726662507073709 8.35539585716175 8.261048375047903
