14
Energy = -32.77335159 eV
Ga 11.073419678226722 11.377519783654646 6.629588589858895
Ga 10.69747876094164 8.545335306364931 6.1411320397070535
Ga 8.340442258091558 10.492509588552036 7.9110868183687995
Ga 8.9631653608183 10.339334709075514 5.391878814861264
Ga 9.3381547480075 5.061267602615913 8.854211020787883
Ga 8.00687070544019 7.42804101844858 9.377523229134534
Ga 7.771999647671068 8.247531973135235 6.570450250102677
Ga 6.6281731961803185 9.601540214759886 9.582696914632107
Ga 7.007386121693242 5.750671599984516 7.100000100006213
Ga 9.604649571192093 6.366428668400663 6.699876637872865
Ga 5.28468390745346 7.875144372146407 7.268708273288249
Ga 4.35861442062985 8.338482995477282 9.828432396500407
Ga 7.035708376086495 3.981466429735214 9.320350710414743
Ga 5.620170355073084 6.0900866613089795 9.432303909190273
