19
Energy = -45.85322542 eV
Ga 2.354916996567899 8.536748383970377 7.893989110007454
Ga 6.241164580933503 8.53470768869304 9.574478139533598
Ga 4.322121456120186 10.526489444049622 9.051070367923103
Ga 4.662369295647268 9.258210072784047 6.688283813440378
Ga 3.6153477674435606 8.212761011979214 10.379342132747464
Ga 6.707683142734778 10.72885463825843 7.945089684259499
Ga 4.616874654653641 6.928493117150146 8.08956971075623
Ga 7.145728105666752 8.653153528697484 6.175771860126836
Ga 8.647133933147826 8.506854064452405 8.59499716356172
Ga 9.05511336506139 10.994575517702291 6.902652391654825
Ga 7.13536610419425 6.31762707548628 7.712579003031763
Ga 9.998855815391702 6.387952218739207 7.921211273803351
Ga 7.1669510846335545 4.126554650125403 6.110512976755513
Ga 8.510291035034404 6.407897795319715 5.378542195049611
Ga 8.935883180989078 4.137278207916551 8.170921575636672
Ga 10.024651667833487 8.714854506759755 6.149659925049904
Ga 11.581265253431882 6.7286964815347305 5.501860324132261
Ga 8.952146284578998 2.0546745513768885 6.155135810730868
Ga 10.262303269140922 4.490223920544805 5.620046212145564
