18
Energy = -43.75329369 eV
Ga 3.3061641922030427 7.56319058851344 5.135561849612658
Ga 5.279491237483924 7.636632408910392 6.9206143601085675
Ga 5.5557166674596745 7.995667645956258 3.836136322259881
Ga 6.518752732946977 9.775734003646896 5.448356799733941
Ga 6.246992530964659 10.130870286114986 8.12013384193376
Ga 7.397413040576999 5.316429617338606 7.4882676461045525
Ga 7.633620020934942 6.7054695961171165 5.021346898602911
Ga 6.3793187467196 7.257581590859696 9.200032026702093
Ga 8.10480528631094 8.059707997735138 7.043878067292578
Ga 8.235060323453709 4.861631634765078 3.1680688288901493
Ga 7.435967055077062 7.851738546341638 11.554533660420374
Ga 8.478621759615944 9.16299431303941 9.485650877058127
Ga 5.124987067823145 5.234912403159387 5.764691489838377
Ga 9.846684652901727 6.960667654729129 8.704425890782888
Ga 8.121251643454409 5.47589664778686 10.044076621400098
Ga 5.692982373455941 5.486209880630656 3.1434419234573068
Ga 10.106318513017122 7.235945995894722 11.374665347579281
Ga 7.4189617237533465 3.7579723863159864 5.407213675248422
