15
Energy = -36.08261544 eV
Ga 7.54824965342994 3.421813571247171 3.9775171055696092
Ga 6.993779142564448 5.872430064079998 2.851750481399576
Ga 5.114227413243512 8.426555912793553 7.237224429327117
Ga 5.048559616592583 4.840909901909881 4.390134476128194
Ga 8.540523777156865 6.02821291432641 5.108248306080935
Ga 7.881737724310023 8.515115406307414 6.3236052128681965
Ga 5.97977476227025 7.242900983417515 4.975914893802221
Ga 6.7090614750440745 4.287922459396398 6.38206184915784
Ga 6.695190283887738 6.234981713257077 7.9607362904745145
Ga 6.968282523574234 10.27552339427772 8.092228770433486
Ga 9.585169434317505 5.994440041900014 7.531799175796594
Ga 8.429755048945252 7.981821192045252 8.943033263746232
Ga 3.999282520396115 6.0075187632044305 6.6249732343974275
Ga 4.080334488413081 6.189985272153507 9.280415999026632
Ga 5.918324575874774 8.172120849703594 9.812608951811816
