11
Energy = -24.90255815 eV
Ga 9.933446095138562 7.986672548273725 6.5475812572284475
Ga 9.812359818265385 6.202249733278508 8.424211447526536
Ga 8.170630631201709 5.848800243244482 6.30977186780272
Ga 8.89457507695585 9.675613226103343 8.241877827004581
Ga 8.85209663296467 7.8867723885678185 10.135817336114808
Ga 7.316005896613446 8.902114727883657 6.210695219513418
Ga 7.051389465990433 7.26610366542548 8.284438657678514
Ga 5.82463024940742 5.175623217566228 6.045003863120808
Ga 5.20395557508104 7.9178837164161315 5.430083350831405
Ga 4.5860699363529775 6.821686450414909 7.9304407138269815
Ga 3.141181590336758 5.95444592672979 5.822082560891633
