18
Energy = -37.72937832 eV
Ga 4.383050710601342 8.020237592798036 10.230782669459925
Ga 3.4297814007367626 6.110193506332948 12.38809414538761
Ga 3.1040719042992904 5.604929385079863 9.773056272298618
Ga 5.409801600269161 7.342070661821535 3.11685374817683
Ga 3.997688093066009 7.22326250960478 5.419724369058138
Ga 6.004329204522867 10.051122115691388 3.4807469003989393
Ga 5.160652034529225 8.119692627160635 7.798493255215496
Ga 5.736994632068192 5.441892428031612 10.573559787178539
Ga 6.434253222783653 10.212112424362452 6.183173910466093
Ga 7.433084203140011 6.664236853204799 7.766321877749936
Ga 5.2561684511994615 5.255311089718424 6.903553360932861
Ga 8.654799176466407 7.477933434167931 5.467732709699451
Ga 7.883937212663494 7.3917565282622535 2.922047929120432
Ga 7.339024379911017 4.667782106068424 2.8087840438695086
Ga 6.417659553273093 3.468050198733717 4.965483039630363
Ga 10.042949914715638 5.2713069976229985 5.853199097927445
Ga 8.677494163256132 3.000654633608375 5.976079236566394
Ga 9.742598983386934 3.7862579507050644 3.4803252643328384
