14
Energy = -34.17244795 eV
Ga 9.122190003413262 5.4444109513022605 6.087184764580887
Ga 7.204606746124336 3.7439707589088633 6.805529229271699
Ga 6.810333663731858 5.628473158685923 4.966901860459127
Ga 8.541996978791236 8.068366669429912 5.206878095232656
Ga 6.451964849900401 7.604179655343329 3.2957750451594596
Ga 4.663875452860142 4.530014191333033 5.832641042662627
Ga 8.426995349082913 4.371102276542331 9.179159612413851
Ga 5.66642807122117 5.399121475427801 8.295149716571617
Ga 4.1806022341356 6.530953045432298 4.115483510050301
Ga 7.68890961512197 6.839898462841038 7.794873115341842
Ga 7.192627008834459 9.37035450373159 7.582250826161371
Ga 3.8021058206935288 6.954155001149685 6.9482629271992655
Ga 5.7534431289742765 8.154752969625244 5.8195077203522505
Ga 5.262866693848183 8.131838142105698 8.852726227607219
