19
Energy = -45.79180959 eV
Ga 2.3142295901975007 7.3170860433242195 7.882460209545887
Ga 3.018014264338154 4.949621690714416 7.023333853487557
Ga 4.3034419715762775 4.435290031206787 9.24820678574869
Ga 3.466249128049129 6.867045771616034 10.177362317636835
Ga 4.494600964044539 7.670543136697596 6.509881760500005
Ga 6.9673699388080275 4.456756847276434 9.60897330697458
Ga 5.675535679050159 6.952400706502187 8.820150619488835
Ga 8.30377882426803 6.668806569904226 9.242021281206311
Ga 5.622728127779128 4.9243259539810875 6.805418661567893
Ga 8.058811080192989 5.245456943347691 6.77237123078144
Ga 7.090754113837898 8.070285746546466 6.680175468084318
Ga 9.312165652190885 7.0429462325912215 5.345554020545853
Ga 8.295863843875324 10.605886277856785 6.731321343058056
Ga 9.478302288399993 8.615137552180714 7.911367406093134
Ga 7.985004271844995 9.045112658290035 4.330464606976035
Ga 10.444237611044874 5.886603543164036 7.771742179947046
Ga 11.997575687199426 7.604189496817684 6.554932227629106
Ga 8.973004178985912 11.650818948983117 4.301036689335743
Ga 10.565704196632705 9.45350932569083 5.501725807012466
