15
Energy = -35.98515343 eV
Ga 7.431468741502471 5.155503037502202 3.1697072735342227
Ga 3.6414704700023113 6.469945033245224 2.5638417962046596
Ga 4.945309485656653 4.235484972642499 2.782706327037272
Ga 7.231623237378754 6.232731008793941 5.745082479528244
Ga 6.059075683512217 7.318804455141059 3.658418588709572
Ga 3.4232691653476857 8.450367011674183 4.429038463493588
Ga 4.315349455976191 5.668665423333777 5.102507975634315
Ga 5.9462437707025275 3.61830628132911 5.271664304946679
Ga 5.356664514163875 8.327811445861974 6.211947391792712
Ga 5.017854963790151 5.668819605686823 7.568784079021693
Ga 7.2598634613443975 4.015778662305145 7.5819610960302
Ga 8.729479631601516 6.177187044418206 7.841492611519313
Ga 6.194199777618987 5.096652299344616 9.802605228200314
Ga 6.648855682539492 7.658806426621241 8.400491362459697
Ga 8.424422039199419 6.530287372435992 10.494901102223322
