12
Energy = -28.68810659 eV
Ga 6.709510587689962 5.555244107955843 6.66420537640281
Ga 8.333634089094044 6.273003738891279 8.618374809323594
Ga 5.822860177583558 6.027380256165236 9.396992926643915
Ga 5.288344994188873 3.6474219198696023 5.291980143829028
Ga 9.52453631258442 6.086262639425034 6.19745333792354
Ga 7.004067243007374 5.551268597299514 4.052124664352418
Ga 4.107822299773222 5.679102300721077 6.958939855448648
Ga 8.150864154846579 7.883469799368474 4.8601965946787375
Ga 4.918322965397545 8.075852188306374 8.02667182478477
Ga 4.262192320141641 5.92207285017729 4.232425679319939
Ga 5.460089912019194 7.802280491598316 5.35526251771507
Ga 7.396204059244953 8.43994310650161 7.327166162076115
