19
Energy = -46.35214203 eV
Ga 11.487523261318557 6.1615903559241225 9.094853873397152
Ga 8.775109612537921 6.451838389734582 8.914077254154355
Ga 8.96582963258495 8.682617378470711 10.5664987169239
Ga 9.941901088100746 4.654053099113015 7.271518952136707
Ga 12.178409268698708 6.571736158040252 6.493913914295434
Ga 10.366420529827996 8.384555348285842 7.737550469087044
Ga 6.828784044823069 8.228778301763338 8.871291099552057
Ga 7.49637413281697 5.63709135720413 6.637268186178174
Ga 9.696008044851347 6.813149791973272 5.6007865820303415
Ga 8.754826248698999 10.371786455390952 8.445351372117528
Ga 5.258609717540325 6.355659930526866 7.928492085375941
Ga 8.03847839047525 8.849419388292244 6.318159906440218
Ga 6.221680760655006 7.554955098323426 5.170099480912055
Ga 4.787868430932039 8.900659440585624 7.044234140288187
Ga 6.371971089928815 10.8629659000506 7.550892111958183
Ga 4.996424269681324 5.131879236646207 5.418362704961288
Ga 3.267589022902221 4.4280829765633944 7.339689347286889
Ga 2.674785279256175 7.061199964466408 7.433664405460098
Ga 3.523136710326285 7.375237871527953 4.943896030490669
