14
Energy = -32.61084547 eV
Ga 8.500244282642685 11.88185577005132 8.616708334678252
Ga 6.586577071347022 10.943618238324044 5.786064500485855
Ga 5.899831415892246 11.942797598332568 8.173505068854722
Ga 9.044930396456786 10.341195872620643 6.551017253811384
Ga 6.751745855832707 8.418831202459456 6.1306807695441705
Ga 6.961129333397225 9.619087093658772 8.768511300000664
Ga 9.293586053119846 5.6792084603235695 6.774382849576869
Ga 8.788001341125419 5.81800852010042 9.379496933623747
Ga 9.06786457011515 8.1041359554811 7.824779420501183
Ga 6.472586274893112 7.147183319617065 8.75764869369018
Ga 6.706611605947983 5.8706364992685 6.336830860756813
Ga 7.7612125655341835 3.40550288134571 6.680809210941823
Ga 9.339354685365187 3.265853845504914 8.860035452125175
Ga 6.492620681226877 4.5342850529081575 8.77665482510412
