14
Energy = -33.44489629 eV
Ga 9.191757023166893 5.785271827915992 6.1284405962560875
Ga 7.434925761730269 8.003629135279194 5.391499778455105
Ga 7.223584362872823 8.927348029026978 9.875434398269682
Ga 8.084466599417867 5.990129882542152 3.749869902109045
Ga 5.956393556129998 9.05542698817787 7.4603530505701
Ga 5.153868828110224 7.248568783990809 10.301837756299657
Ga 6.237719002175199 7.810673802565574 2.688359837012702
Ga 4.6962916002501895 6.780826500614633 7.760403224981738
Ga 4.857906509455778 7.346799194316487 5.097697839868605
Ga 5.589581285580584 5.009518345127378 3.848192630371899
Ga 7.892703350915486 7.170027631966153 7.99962137655265
Ga 6.498237926747272 5.205542776651287 9.210437111145703
Ga 6.3978678277278584 5.319686506734113 6.263867828076601
Ga 8.58925546871391 4.134279012783148 8.028696917039944
