16
Energy = -38.70332406 eV
Ga 9.494182427662217 8.328568943469403 4.203183982640746
Ga 10.506069584961507 5.980017803226045 3.1817306763428532
Ga 9.368867628311516 7.560286990811047 6.70804762017941
Ga 9.36115001164901 5.065677411350931 5.638131728383531
Ga 7.80901862589628 6.092591346552954 3.776837464841185
Ga 7.069692517661667 8.30415016792593 5.412645539686214
Ga 6.610874789423244 5.667194173838283 6.059052289894904
Ga 8.549526687964525 5.324169694713144 8.176416341897765
Ga 6.988216728830302 7.431622066252095 8.328105441435017
Ga 6.432757423720412 4.298541183244022 9.114248629132598
Ga 5.477578870529485 9.375120689652936 7.396540580256092
Ga 4.454806147562528 7.555953863471005 5.68512811467591
Ga 4.656903993531496 5.925528364432355 7.759712527589903
Ga 5.655027638556811 6.313051511698186 10.61993392475256
Ga 4.3156330997127865 8.212655803496274 9.405278900098219
Ga 2.427224016752784 7.699248347485502 7.554582948448278
