12
Energy = -28.66350958 eV
Ga 5.3975245430468854 3.414399039382116 6.609384241443345
Ga 3.3438802542544295 5.476194218743578 7.37416860992143
Ga 3.5532869908775235 4.59146551967508 4.87905215555526
Ga 5.910631416012487 6.005539472031059 6.657556163641847
Ga 6.129017770447324 4.779660179337786 4.157532148565783
Ga 4.464797861438322 6.957566012454463 4.414880436236986
Ga 7.170975037882397 7.466668437648864 4.387315327996352
Ga 4.088337504322117 7.97367573470122 6.928749196577114
Ga 6.506141254994497 8.87944440189213 6.468315802007866
Ga 8.34449994742316 6.618280125766452 7.166160348325423
Ga 8.487059790948873 5.119668275198033 4.858066906183142
Ga 7.880358853292036 3.9939498081087947 7.375329888485378
