16
Energy = -38.56772178 eV
Ga 11.204987697392902 4.7194832560801725 7.098132128963442
Ga 8.97370588964207 5.346551652544829 5.8819724359873256
Ga 9.961740881574517 4.824827681412163 9.421593853031004
Ga 8.617608159328217 8.108447153649955 5.13644101633897
Ga 10.092571712654452 7.102360095194658 7.686699260282106
Ga 7.695910604418921 4.423290774515467 8.111686312685354
Ga 8.799839905905143 7.171740383497595 9.989399956552173
Ga 8.721399413138036 9.246640824461767 7.784901876386383
Ga 6.98735977518285 9.183177249200437 9.832038007819452
Ga 7.136716057290082 6.950674652306035 7.27746988207007
Ga 7.66041568453922 10.581587767359293 5.813356220193513
Ga 6.235772599476615 6.539296677436081 9.816256645268956
Ga 4.384984887589839 8.215552652380046 8.89214461831098
Ga 5.171833339321362 11.686902624387116 6.290268724375799
Ga 5.6852591591050885 8.974271839657133 6.799732462611207
Ga 6.797465815620349 11.291806737518312 8.499606663761195
