16
Energy = -38.82043386 eV
Ga 7.395075953548802 7.958308576251499 6.8312940306709224
Ga 8.126300590945538 9.700902908078724 4.705605962475518
Ga 6.4220613272486675 10.358510138465853 6.547349032152412
Ga 8.953757074213534 7.110901126527026 4.777103220931054
Ga 7.584140204558479 5.4106123742221195 7.016624646964466
Ga 5.937292165923163 7.9202318601354404 3.9907126862641706
Ga 6.136096183774062 6.67225486348027 9.136278970944552
Ga 4.164869907377277 9.2048409218805 5.367594034761606
Ga 7.030910155168341 5.484888243790106 4.1946754289500365
Ga 4.734560055266308 8.498947333654872 7.89410821769974
Ga 5.079083620620951 6.482544080356632 6.0586767735532865
Ga 7.639314679381592 2.9879795754399727 5.6865762538663525
Ga 4.844242745943778 4.547428751270159 7.838070076374869
Ga 7.066833124729865 3.101712481565722 8.31574558680421
Ga 5.162681269422147 3.7630179710994245 5.345995760484066
Ga 4.736253933183513 1.798139958456026 7.3116063365549975
