19
Energy = -45.85675472 eV
Ga 8.18057802930315 7.267164234208936 3.3682500286695167
Ga 5.180264827559885 6.3581765004665245 6.764089320697162
Ga 10.783755936252494 7.107766916181416 3.529173695451548
Ga 7.809835673671969 5.32807069374213 5.275481706801132
Ga 9.459338490847387 8.711893284809051 5.368082558956397
Ga 6.923200490526877 7.904658429022547 5.687594874148548
Ga 5.983814871835579 8.436473688644774 8.32869292350622
Ga 6.569955950271878 4.18460463898854 7.290036374012507
Ga 8.636792450196126 9.28322607746739 7.636019038088321
Ga 8.20918953398826 6.455096305147522 7.910814834047074
Ga 12.299768694359981 7.905591321049113 5.573981712723123
Ga 6.25733994902043 5.430191271050349 9.591506081749264
Ga 10.134574175105003 6.155258703891794 6.1296433175034775
Ga 7.634768521970934 10.59619776310474 9.585358981466735
Ga 6.438205338725446 11.696121069166244 11.829667795207088
Ga 5.902823118676759 7.561182593184172 11.096474061707188
Ga 5.0796362274413385 9.917049582966465 10.219892611002898
Ga 8.380927622317033 7.92590398892046 10.030194515375436
Ga 7.69252671814276 9.25585726823638 12.145001317093744
