14
Energy = -34.64641618 eV
Ga 4.340600632300817 4.524152341951337 4.656893076545353
Ga 4.340600632300817 4.524152341951337 7.254325821589299
Ga 6.297491831854115 5.954895577053585 3.221672480018872
Ga 6.970279850606937 3.6107154854397847 4.672594785536373
Ga 6.970279850606937 3.6107154854397847 7.238624112598276
Ga 8.626242893967897 5.954942271854601 4.679826619186545
Ga 8.626242893967897 5.954942271854601 7.231392278948099
Ga 4.341374975662584 7.388974495978467 7.25437965403184
Ga 6.297491831854115 5.954895577053585 8.689546418115777
Ga 6.971735198447422 8.299976791909193 7.238906463078409
Ga 6.237158029159929 5.955808089928511 5.955609449067325
Ga 6.971735198447422 8.299976791909193 4.67231243505624
Ga 4.341374975662584 7.388974495978467 4.656839244102807
Ga 2.045923492102545 5.955410268640222 5.955609449067325
