16
Energy = -39.72555195 eV
Ga 3.639343272686807 6.138726382715466 3.8500262681722286
Ga 10.001223625349258 6.5731736733644075 5.90821588048024
Ga 5.472039124105734 2.8459369600463935 5.90821588048024
Ga 5.474254902905814 5.73925243194366 5.90821588048024
Ga 3.1753930385074396 4.4425962559311225 5.90821588048024
Ga 6.050368631449225 4.3121978648339985 3.715226001624834
Ga 7.829612778208348 4.571041863632049 5.90821588048024
Ga 6.050368631449225 4.3121978648339985 8.101205759335656
Ga 8.577594759246615 6.001060029712737 3.7515191615543806
Ga 6.136170320213857 7.163020159935564 3.5603944787560295
Ga 8.577594759246615 6.001060029712737 8.064912599406103
Ga 7.286262424182238 7.754607372957274 5.90821588048024
Ga 6.136170320213857 7.163020159935564 8.25603728220445
Ga 1.9448396863097392 7.129283838695638 5.90821588048024
Ga 4.540874540922009 8.245552816717629 5.90821588048024
Ga 3.639343272686807 6.138726382715466 7.966405492788252
