17
Energy = -40.73397163 eV
Ga 10.968459249345042 7.072986774555726 3.5793122941327677
Ga 8.171564246291311 6.84655172133785 4.230934600002141
Ga 9.782524141368668 9.033279958653216 5.0032030700505965
Ga 10.126215757118803 6.447462407256492 6.186235913825475
Ga 7.202250405127934 7.818342795703417 10.310196016622331
Ga 8.47928985503074 7.498515020867178 7.841485347509486
Ga 5.8551332218597185 6.666269440551667 5.270999530353991
Ga 5.918135930917228 4.170764458260457 7.781925883023692
Ga 4.596660575344428 8.875883395887465 6.858084544043229
Ga 7.342690899492893 8.887308755149528 5.8446468626135495
Ga 7.849388357468627 5.181544642857344 6.350236959683971
Ga 5.662123206555075 6.745202158823111 8.336718482626791
Ga 3.5958111364410557 6.286601207724557 6.489359890848836
Ga 6.567474923735362 9.509701870162644 8.485847187949942
Ga 2.8236439837995717 3.3524167934722438 6.769649270998345
Ga 3.608818205052299 4.903976556249167 8.791989260742389
Ga 4.8904795993242685 4.148965009801166 5.314561227745478
