16
Energy = -38.70332362 eV
Ga 9.819367402134377 5.274223504899572 4.7066715883450865
Ga 8.372909531878344 4.537145817303497 6.743468737683983
Ga 11.06158892312619 7.5066873268065075 4.42494840927127
Ga 8.072876137151006 7.265293717863792 4.745861250672999
Ga 6.092766137840339 5.8005453167750645 6.041031622083936
Ga 9.676322107215494 9.508635395319658 5.409956443444465
Ga 7.877334491487712 6.659718766140217 8.436123509060943
Ga 9.928130616939638 6.889821719612919 6.994490618888209
Ga 9.37640301109014 9.287688423907397 7.987197766391706
Ga 6.9846313895173155 8.520784437366114 6.588666255438761
Ga 4.7358126556779085 8.528021273105415 7.811320297874462
Ga 5.300871161839612 6.041765721811159 8.760081138336636
Ga 4.710575665349499 9.45903990525336 10.37865783705647
Ga 7.039351847891882 9.483357485119926 9.103588441306867
Ga 6.445073752828122 7.423026127376009 10.710451789008827
Ga 3.1610873859436417 7.344091311010557 9.901361183599814
