12
Energy = -27.66309854 eV
Ga 10.283695700418223 8.196501471432198 10.013380714926887
Ga 11.094881698276854 5.978072286348675 8.740110101092187
Ga 9.529179135650446 7.790421389712856 7.455250687413362
Ga 9.040262109718578 10.35608116174715 9.274972331776787
Ga 8.391767671196108 9.855266900487786 6.50488395607636
Ga 8.352923327193643 5.320708966905491 8.060034316687899
Ga 8.906340772576037 5.802714565998491 10.586681795161736
Ga 7.514287266555369 7.829622406496155 9.751537930175846
Ga 6.68189682125257 7.11080653137514 7.203309875612208
Ga 6.2298204518756 11.20127814306462 5.737538363516479
Ga 6.508809137969401 9.737269133052642 8.405620245349528
Ga 5.189088988499726 8.862096535028307 6.100021371408331
