12
Energy = -28.20032978 eV
Ga 5.502928893228456 4.41987418138091 8.406232410155086
Ga 5.445182100686638 5.03494997900466 5.6316451651212525
Ga 8.214485428230315 4.511035685116819 8.637913674886203
Ga 3.6026989426597607 6.150174690977545 7.621714197992605
Ga 7.161150302402462 3.3880510149419774 6.401467990146449
Ga 6.595142618813258 7.018384031881419 4.3272085086686
Ga 6.704515590606221 6.643290801182448 7.611537847569119
Ga 4.77394715270195 7.911967695926669 5.945906769947334
Ga 8.477000931034762 5.602814602877503 5.903378776081518
Ga 6.524847793691532 9.284133772390726 7.494902788172137
Ga 6.6349826309033775 9.750088747332192 4.131577850493957
Ga 8.360950089263104 8.282942147483615 5.890966517716709
