10
Energy = -22.35032056 eV
Ga 5.234747269543529 4.355281712429207 5.653548260405036
Ga 4.775876382967863 7.0747389765591056 4.550692843644874
Ga 4.436600728723154 6.475434449630442 7.153458706049777
Ga 7.085883130802663 5.831451695487961 4.450704074273293
Ga 8.766722133933547 6.521715122030294 9.011461601977604
Ga 8.417395878906024 9.116414663524456 7.885688016474932
Ga 6.448785329898142 7.68371958660779 9.093881045580558
Ga 6.578063672508723 8.171297193266925 6.175467661371154
Ga 9.018146089791532 7.088157558729504 6.31671947203211
Ga 6.893879762993996 5.331290645372937 7.370755318115223
