13
Energy = -30.65911243 eV
Ga 8.81706061594817 4.513026886219513 8.251931990385692
Ga 7.318564393417152 5.723056243416565 6.402986708452642
Ga 10.806690984474796 5.844479609507693 9.628607570463316
Ga 9.179503943132058 7.259703949846993 7.818323787615929
Ga 5.765261516593915 7.211141736099114 4.8472462577749065
Ga 7.966073641889025 6.110845689292884 10.247050757677592
Ga 7.883355806582813 8.490002706930198 6.20946642496202
Ga 9.643505262987265 8.217594805655823 10.400339034855897
Ga 6.381789198013941 7.3508298843238755 8.784131471890046
Ga 8.254209508029183 9.746437161195866 8.71334211780485
Ga 6.082401264481948 9.858712734740589 4.539869209531337
Ga 5.152144426031854 8.64517890446484 7.09222519131188
Ga 6.648970011729673 10.92337865573697 6.942898176361455
