16
Energy = -39.05282234 eV
Ga 5.343228236818133 10.427374439899289 6.7281177759576645
Ga 8.012187176972683 10.981797735181512 5.514736661979639
Ga 7.739677224750415 10.06748374441053 8.152280961458441
Ga 4.275262056495567 7.968323585263517 6.342098948762332
Ga 5.846429962057214 6.374253192620443 4.672984860998918
Ga 6.756508619623009 4.228582226296228 5.969845306458575
Ga 7.053908219027849 8.442035964954115 5.7579177011607765
Ga 5.312854195589514 5.822383958551657 7.602307121709257
Ga 6.0047126905338715 8.17254020833427 8.483217215798193
Ga 7.631679499388631 3.702570202004555 8.266497346362025
Ga 8.521483101134017 7.833978678512573 9.373727174860578
Ga 6.866285695695813 5.756393816031217 9.809595865019832
Ga 11.11653904801042 7.517221355547104 8.734245185357443
Ga 8.104319734880432 6.444770636792277 7.0070910174899375
Ga 9.6544208533528 8.767272995194409 6.715577178291944
Ga 9.8048046848981 5.209991155570215 8.709176776275255
