17
Energy = -41.57836203 eV
Ga 5.061833998014347 7.575862913703743 6.816783752948241
Ga 9.929647102710346 5.356617643767309 6.1805593243221875
Ga 7.840763300813023 6.583757429478752 5.206670548350462
Ga 6.454686525457728 8.84109127767798 5.06596625813082
Ga 8.327276830789225 3.527569757500698 7.114068986552238
Ga 6.76231156384566 10.916508129864413 6.745275585413924
Ga 6.430200257710523 5.368599458209122 7.1610044901164756
Ga 8.2227612323159 8.585963913438164 7.336211801423812
Ga 10.630519743108787 7.135891398709223 7.914845645892634
Ga 5.260719736798877 9.888677576976997 8.601489030399547
Ga 6.492410913052125 7.461353114222535 9.094639210393323
Ga 8.585102948363614 5.631734331991553 8.843628070568965
Ga 10.548159608991266 9.54609191447514 8.837862238921012
Ga 9.09065779954091 7.69718990701135 10.33319206103699
Ga 7.271932234183094 9.756438691069576 10.36335751435621
Ga 9.845457001739604 10.205581760176221 11.363178341713782
Ga 8.56408021099026 11.287588189537658 8.663072612154922
