17
Energy = -41.78209539 eV
Ga 3.2906085071279008 7.808272220594015 2.8441277710563977
Ga 2.5192582521561793 6.735516433471761 5.271440389900646
Ga 5.434841933666298 6.866741747889514 4.785647808505635
Ga 4.172160445047107 7.867882805627623 6.984667763189509
Ga 3.621958269087393 4.988333266467802 3.625276452965335
Ga 5.5035960216053725 6.372495794670632 2.1264210045084315
Ga 1.698858106943058 4.0335489928159145 5.521449124729229
Ga 7.903250178866396 6.408540706967526 3.4109260239387984
Ga 6.323788462710339 6.545153673502191 7.762244048736009
Ga 3.545205849653656 2.4400289894221614 2.816446586880326
Ga 4.221018097086784 5.092306465647735 6.694412924161713
Ga 4.231696775892354 2.8934303932680576 5.471331343699534
Ga 6.084912650810504 4.056881638496234 3.4174087050229534
Ga 7.099812735215238 4.997326447221447 5.65733894307014
Ga 6.043096333701364 3.553212448382525 7.9877449278585235
Ga 5.829122339111231 1.3487135014173721 3.6789129080088743
Ga 6.988262024142205 2.321983674085227 5.806352841097991
