19
Energy = -47.14734782 eV
Ga 6.630099415262856 6.983891577281295 4.476628266520877
Ga 5.235790789036357 4.393710167205369 4.489257209043318
Ga 8.930166968676161 6.343692843999171 5.511460236003946
Ga 4.612459573341947 9.289529124971375 4.964468966467303
Ga 10.50500523815448 5.9874537698486785 7.50067728116787
Ga 6.999713378452642 4.612925249292552 6.453010861863268
Ga 4.1240177256324975 6.681169971786394 5.209194075305907
Ga 7.229656271654823 9.616888383714697 4.389057700226694
Ga 6.036182109827542 8.428834441494292 7.0023397419169
Ga 7.200426967877204 11.091061751041567 6.829132240868635
Ga 4.833234346773653 6.073994368974117 7.655771970427371
Ga 8.875673621028907 8.78767416103657 6.398816435722851
Ga 7.700223219873552 6.7721119729687365 8.010880204032114
Ga 7.1792914281847295 9.58004928058753 9.099431992465876
Ga 9.730183268223488 8.57243724458009 8.833862034725897
Ga 5.91612181216066 5.6069859976209555 9.96854766449966
Ga 7.8640094238170954 4.134592936113106 8.892338898232872
Ga 9.480316391685955 6.042678639482024 10.090774980782502
Ga 7.483818357329494 7.56670842499569 10.790739546720902
