10
Energy = -22.85610778 eV
Ga 7.831142020257504 6.503702388529931 5.408370154467155
Ga 6.222000946243258 7.580327283330231 7.984460348696754
Ga 6.762517391604714 4.606562843065067 6.753910165299648
Ga 8.477214825169026 6.215815794961905 8.229278232379805
Ga 8.538234444060336 8.838957744339808 9.091093831078597
Ga 5.518761720806907 7.90163910665189 5.286211048471788
Ga 9.655240261348409 7.908801669939766 6.590784606516389
Ga 4.654050481340563 5.602279711869783 5.707567733741558
Ga 7.557342794013191 9.439701268302422 6.383183326063835
Ga 4.78250792374765 5.399088197474645 8.563102041984502
