13
Energy = -30.04685805 eV
Ga 10.317123075996015 6.689612760915941 8.412532122073225
Ga 8.85176959110416 6.806863265217692 6.234516933647716
Ga 9.500891088895136 7.8152785789851675 3.8249068333165424
Ga 9.033013251654555 6.123838999857427 10.691315082618475
Ga 7.498459589065288 5.9236900257414495 8.381874969561329
Ga 8.270679205548399 8.538588408152627 8.851341059368965
Ga 6.654845083919626 7.335557075106599 10.661424969352119
Ga 7.154518759090191 6.625180260504886 3.9694676578512373
Ga 6.802861723160572 8.866053737616257 6.834841256621744
Ga 5.047759790152687 7.0485617818607444 8.557782352356188
Ga 5.540338797943127 9.685492956810156 9.22004149696644
Ga 6.082036055398761 6.216418037157905 6.257664596472175
Ga 5.586712219960073 8.681567617456354 4.534699628832761
