17
Energy = -42.15869947 eV
Ga 9.36320016353313 7.071035440340518 3.657713835576955
Ga 10.945651137287243 7.552391040539615 5.77042360404111
Ga 8.297455503904825 8.358472083209294 5.889196604309549
Ga 7.06118731598864 6.095459024525586 4.643718849715849
Ga 9.547777815848637 6.269529858878342 7.619198493519762
Ga 6.331013285036007 7.202539248020717 7.52151991370075
Ga 9.34528791433702 4.89584866063107 5.396126698533664
Ga 6.616659339963561 10.00857050309822 7.13637559889796
Ga 8.23027796985487 8.500275553720028 8.794577854237218
Ga 5.886766079800074 7.5900503231556335 10.300848850266073
Ga 5.443837938472457 8.308611409851581 5.292111166419277
Ga 3.5009273783606822 7.286581591228417 7.2920799408299075
Ga 7.056495201030558 4.627182393537252 7.187840798919436
Ga 4.557563345402256 9.18661429696891 8.714016368039106
Ga 7.712753234512687 5.778716551247523 9.484512312624126
Ga 4.85086178541765 5.462583996588278 5.9187146015272125
Ga 4.800137982686524 5.3781051495551795 8.942624779326438
