10
Energy = -22.60985366 eV
Ga 6.55522728947403 6.272162928860745 6.044370407292787
Ga 3.7964727294159144 5.66518717002899 6.954547158714521
Ga 7.319815325044446 6.209636730218844 8.693203842678459
Ga 4.9965028869999335 7.627174089439346 8.028654637224234
Ga 5.742531221663207 4.159707309849011 7.5959957650052
Ga 6.027998526549104 8.863078397272416 6.076830728222576
Ga 6.961928696029585 3.5945439762734996 5.454811427709591
Ga 7.91039964052887 8.064399754909859 4.5109665628800215
Ga 8.249922324425636 5.49193406188395 4.2373119304872775
Ga 4.420190181802445 6.051596024101142 4.39235944831099
