15
Energy = -35.46529943 eV
Ga 6.611392012635921 4.987347740922206 2.703595495582974
Ga 4.188278442109984 5.07030419495437 4.29751354154948
Ga 4.453903962116737 6.360428852867168 1.881140527893629
Ga 6.528420210244247 4.814404814466725 5.409568150045587
Ga 5.578612457577912 7.122728531941593 8.751713110796667
Ga 4.593297611238568 7.830792254138059 4.166631915209348
Ga 7.029108613347224 7.22528632715306 4.088004742965925
Ga 6.918152975988919 4.802333869472501 8.136423208573513
Ga 4.589271929328986 6.4811104825514505 6.478968911292939
Ga 5.663567415343366 9.25517110879536 6.667151672381134
Ga 7.76497590573558 7.037630981524373 6.603260999406603
Ga 9.363127446817666 5.815636023554901 8.341840696602707
Ga 6.996815808395856 5.899411092161658 10.53459119748041
Ga 7.921702495979649 8.245387860691606 8.886267783393054
Ga 9.525966850390216 6.788079013649605 10.790481704562003
