19
Energy = -46.96238404 eV
Ga 8.998611562830595 7.118454016201042 3.452716503644886
Ga 9.172151161486793 6.27926089760223 6.478192362048445
Ga 7.628212948834369 5.099565793673572 4.752750562567392
Ga 7.154009418263166 6.064216884220597 9.42524387291873
Ga 9.081638585629463 8.867344588793474 5.411256783918132
Ga 6.375176644192788 6.413269263469022 2.6068625319647754
Ga 6.607396358804369 5.2246085679677305 7.16047257618502
Ga 5.9300705847629755 7.817341897903193 11.670812239158385
Ga 4.877430792178125 5.265346721411946 4.749102396007597
Ga 6.543159477170488 7.7633149385317575 4.974056876603192
Ga 4.5350996092542895 6.995606696569039 6.71614602029994
Ga 9.64007278339918 7.284531816001146 8.694293686227825
Ga 8.605147126039352 7.447402892679288 11.086020308275707
Ga 9.352564854041512 9.898393805846686 7.866560239796892
Ga 7.101309017284472 8.168014854696278 7.369637186807422
Ga 4.951155148213757 7.780591608733541 9.239323776166238
Ga 7.7853532401759304 9.91618912982456 12.146417003742302
Ga 10.047986782827623 9.704449211407466 10.411826347948166
Ga 7.192242067242231 9.423024406608382 9.52658257644152
