11
Energy = -25.65336228 eV
Ga 6.630384436387545 8.826855986679998 8.183739415927631
Ga 4.477847933347625 7.476052679545781 8.764932495803654
Ga 6.47251568662399 5.875207021436248 9.135915676765851
Ga 4.734202848326254 6.601693888481531 6.375949827711216
Ga 9.257118402338989 9.560288124059467 8.560977980724289
Ga 7.127079695120884 7.515859422749607 5.922980563125223
Ga 9.742395287275354 7.977688242231882 6.298437466115457
Ga 8.084162671044737 10.197797914519837 6.190811520882865
Ga 6.774259853349883 4.80135847339021 6.828146781751752
Ga 9.255406550662595 5.311197874208046 6.225336003158052
Ga 8.702068523678085 6.93984262687628 8.519672808455594
