15
Energy = -36.03040362 eV
Ga 4.550918285189897 5.5078373545208965 2.462367655136342
Ga 4.052564290189621 7.807125938881952 3.6102665365153297
Ga 4.3989708651068575 5.669856281406201 5.24164996796056
Ga 6.512266866107495 4.131875605409826 3.5570314933985596
Ga 6.773831381251689 6.8045884159895484 4.079158120345542
Ga 8.794816753998216 4.768815563529126 4.767882744648601
Ga 7.522778207439467 6.966857473555477 6.411963130945097
Ga 5.096213880590665 8.21371898874467 6.107231429851696
Ga 8.615863733242206 4.613122137819283 7.472508309522109
Ga 6.261976856419257 4.292069027282421 6.29666563401286
Ga 7.031383754863665 9.011834092907705 8.267916516062108
Ga 4.418243224775373 8.775191195321154 8.706823309797057
Ga 5.0653303752365035 6.130631828196615 7.9261830320923625
Ga 6.492466480836462 3.822087519863983 9.074785648340299
Ga 7.480057383207001 6.552070915025523 9.08524880982573
