19
Energy = -46.54171996 eV
Ga 8.467753006065067 8.45957426734998 2.9162255598156306
Ga 8.361189483908122 7.518841981352671 5.514443672076756
Ga 9.384219606744079 9.97187570772361 4.88500666280194
Ga 7.136533688923374 6.21927722254859 3.298882477254429
Ga 8.385090805361319 6.837853066683133 8.05791057786083
Ga 7.252837169463631 5.161938956491691 6.17425936750367
Ga 5.050706428204615 5.108068817266302 4.138972559659787
Ga 5.90279682179164 8.954829344354748 3.5703856861882954
Ga 6.779301586807107 10.188229677439638 5.634109149542438
Ga 6.744077805257935 8.92380155097982 7.93944738695036
Ga 5.856170954614512 3.051778639893925 6.1141711206493286
Ga 7.502180134475054 4.45743219638131 8.95674370802667
Ga 5.589571950414338 7.484686886901092 5.780896612552458
Ga 5.5156025683321035 6.568129308787257 8.442783175515395
Ga 3.323642094025621 3.2127561536235607 5.050423658352847
Ga 2.417098463429138 3.6706464549470788 7.6447778993257085
Ga 4.13597320966651 1.4335384614115594 7.378495653712663
Ga 3.9141815254164873 5.521046735323405 6.5377096896508
Ga 4.94037082714166 3.92052954008661 8.61443845119652
