18
Energy = -44.119428 eV
Ga 8.53293124231231 7.047548485238099 9.363303060136056
Ga 8.174515582509109 5.184455132016002 7.495712719457294
Ga 7.637137366737729 7.86946227322611 6.886188859584084
Ga 7.736168469451601 6.382845542200905 4.7575228892437424
Ga 6.672380589402997 6.92060458200612 11.31360969508597
Ga 7.346397666826462 2.573731744570946 7.800853221356124
Ga 6.997582411869431 7.653879279587411 2.598126308186257
Ga 5.825356080629405 7.9132489565473065 8.90084600902072
Ga 6.894861289900153 4.008508074583749 5.40168971056952
Ga 6.98671775227526 9.446779254657127 4.606000448672081
Ga 5.893354468631107 5.112642943223857 9.100633394591497
Ga 4.848453504907543 3.3999219327649848 7.219423329383096
Ga 5.995924434402276 5.077498626404974 3.0335340874614274
Ga 5.045151605715325 9.134551033826817 6.572760445486069
Ga 4.456782780081339 7.412521248809038 2.048689412784997
Ga 5.391314147191873 6.171240502424678 6.797121496618943
Ga 4.823183482686864 7.368110177386024 4.622560266068905
Ga 4.1016540388510805 4.678332840212255 4.83896904301122
