11
Energy = -25.41159527 eV
Ga 10.886645339119823 6.488449573676355 9.007194099676564
Ga 10.157440373773682 8.501461276763054 10.461578968105709
Ga 8.295755564245535 5.937532740323623 8.432395824964095
Ga 7.813478190031403 6.950682348519344 10.701300473635195
Ga 9.33908459178156 8.406949500514807 7.650541041253269
Ga 7.395729170843694 6.95025028967065 6.059465740861888
Ga 7.711774204929025 9.28516398408956 9.575809883039797
Ga 8.24336765575622 9.324355460331157 5.43214838629121
Ga 6.831331389972795 10.321559266859554 7.335548974602836
Ga 5.223943413302191 8.744888195165009 5.48065596784547
Ga 5.967312941597494 7.804240324048379 8.053839630440098
