17
Energy = -40.84455942 eV
Ga 4.305674482600687 8.163791652035044 4.27799915813276
Ga 8.183943766438155 6.268978152566483 4.082636963480632
Ga 5.5688530295086185 6.0662998436678865 5.028855147463706
Ga 5.040206357181348 9.506320702335552 6.7193214674590305
Ga 6.866297713456787 8.587244851717086 5.153891815766132
Ga 7.226603165745791 4.781044055295906 6.570812420356391
Ga 2.3613435609376987 9.335529825582888 5.515231321604768
Ga 6.155066271871793 7.304660038132348 7.6023209446445925
Ga 4.656671932734967 4.4977627047916275 7.459299829694742
Ga 2.733426819781148 9.10551846329956 8.12318006474217
Ga 8.795855338587844 7.496241879803418 6.54148965344687
Ga 9.927090151206501 4.957345347775938 5.898400125910585
Ga 3.6558186177148833 6.901540426765082 6.762596556670758
Ga 10.885850165000617 6.581227450674434 7.8275745378766
Ga 8.252773453245332 6.1382881137843555 8.82385624668508
Ga 9.151366800646457 3.5550122814188887 7.939614960210807
Ga 10.46241105588671 4.919686304222431 9.876220790886185
