10
Energy = -17.84886529 eV
Ga 6.625554181677323 4.541310928700672 2.617113101785105
Ga 4.693610987593724 3.518536919453521 4.0229789439691706
Ga 8.46196012967644 4.333609734429139 4.448673283677941
Ga 3.014195063606323 5.509276758073938 3.537211305250913
Ga 4.197702123020007 7.386514088761163 4.908429799547219
Ga 8.602706828518327 6.66890361149357 5.525842921620651
Ga 2.94492719576158 7.306717519273755 7.176570938025304
Ga 8.235174562681202 5.645326726264015 7.919026475850475
Ga 6.394855304473487 7.114890059483607 8.943986181010603
Ga 4.361985238712088 5.5075852697866985 8.432838664982835
