12
Energy = -27.85342145 eV
Ga 9.13225832517199 4.472336225379499 7.025411256691666
Ga 6.68537146193754 5.054198932327149 5.643108591160817
Ga 8.194662187663074 7.093224653423193 6.9376722715573775
Ga 6.691237170533373 7.5591810299567905 4.879524202589777
Ga 9.149671899568046 6.070928668433192 9.257309541199495
Ga 6.899224252739157 3.278473596823679 7.6687220490008565
Ga 6.460629991240951 5.830616785876574 8.520987663896193
Ga 4.870965601556553 8.191455572673874 2.827327616582918
Ga 4.3765771713503225 6.062307588713411 4.3977942507205015
Ga 5.6587479772838245 8.232288409406499 7.26037284183124
Ga 4.138500573053836 8.881529539481338 5.280219313136867
Ga 4.358626702891966 5.888875377436385 6.92511666162188
