15
Energy = -36.39472946 eV
Ga 5.8552120094115345 5.564129487008493 2.859051306246247
Ga 3.4669281109479466 5.702708767741445 4.077055218807986
Ga 7.707379333022801 3.6996654249173497 3.798480133166751
Ga 7.8635505642201915 6.598875749328391 4.373635519665805
Ga 5.56329496744164 6.484255426341083 5.561147438383425
Ga 5.033928442333566 3.707642638007977 4.864309474521915
Ga 9.505621388552026 4.472397580926482 5.566534044214834
Ga 7.3094332904283155 8.604906281757154 6.207481037533115
Ga 2.7879206591152044 7.153586520554634 6.053961208984683
Ga 4.808572728324131 8.465602883726614 7.164046196268684
Ga 6.935848005359361 4.189057306672416 6.580705487037357
Ga 8.509028819964211 6.354089549698596 7.218253933730355
Ga 4.1238995430093235 4.695529078370923 7.320564656405067
Ga 3.2633406196922254 6.953833298192618 8.930443084847424
Ga 6.1296474770661336 6.217325965644459 8.287937219075383
