11
Energy = -21.12388007 eV
Ga 8.428516551889018 10.014510722375729 7.496812645980404
Ga 8.545039720418327 7.503345261110997 7.68547496270106
Ga 7.106871481011322 9.002035138282638 9.630846123955296
Ga 8.38319465467739 7.749006553482781 11.540815832893147
Ga 9.530509030359692 6.224311105487517 9.739993760851263
Ga 6.519306443883454 5.9618527607782354 7.275856680732411
Ga 5.3315048610335944 7.40416223545879 9.327511050361428
Ga 7.4129053833402345 5.374688411979434 3.715664133791956
Ga 5.696373854353165 7.1403667734469956 4.868270871940397
Ga 5.521130114728306 6.410379106023736 2.0038830029220156
Ga 4.731306611839589 4.607057978633084 3.6468116118117906
