18
Energy = -44.13030946 eV
Ga 9.228677610824109 6.431606287779727 7.340811087296648
Ga 7.519577750102951 7.465188138605148 9.030577808137723
Ga 9.125589136269442 9.240506238264215 7.4542965089331235
Ga 9.121130576141613 8.128626642298693 5.112842635592198
Ga 9.223565164421984 4.477106909639518 5.339830604069659
Ga 4.661323875168841 10.439646082764053 9.2134429910728
Ga 7.22709847439118 4.578692644213151 6.975597124093736
Ga 8.428683327295147 6.213024441119764 3.5370440011980713
Ga 6.707615776900879 7.157101768218321 6.0007971115655865
Ga 5.12385842846138 7.872841700498224 9.990638591852411
Ga 6.473998558133925 9.406169342122608 7.406072036099927
Ga 6.102218395510262 5.330075840611008 4.009831504232712
Ga 6.956911279670552 2.769984167909173 4.851366268598683
Ga 4.015865887431735 6.338376887102079 5.603300257532031
Ga 4.0944505619176645 8.228525373790117 7.371872363281599
Ga 5.30157032485166 5.924820625176283 8.243300970871926
Ga 3.719824340976953 4.109167236811096 3.9885843367099785
Ga 4.842451762294203 3.8169879169294703 6.4744865971020165
