16
Energy = -39.24546488 eV
Ga 9.789198908725325 7.057969868650474 7.562312264376467
Ga 8.11715727080399 6.558428483178997 9.648476537852956
Ga 9.927729592437174 4.478623065087601 8.898352140561125
Ga 7.0713784464310265 4.388955044814109 8.313392224380504
Ga 8.853615397197283 8.437040964670171 5.565902624002784
Ga 5.7263534369789015 7.558194080847277 9.375175626910302
Ga 8.805960229712845 4.813171363022225 6.275828968732023
Ga 4.695854001189228 5.458678531126514 8.071604972860946
Ga 6.02628050450759 5.056010779544601 5.766328230281651
Ga 7.9177469960640865 6.281108006700897 4.290263775701529
Ga 6.936683735708363 7.254477766536693 7.00822580986905
Ga 3.6247270650662826 6.427455772927443 5.831741317281757
Ga 4.442610285771182 8.594744260576324 7.305892026659275
Ga 6.3940820458239855 9.136171296103626 4.934732104371017
Ga 5.357752406630601 6.869557458993725 3.7954397690786075
Ga 3.547982814121678 8.98862009094229 4.589786682850722
