10
Energy = -22.92322202 eV
Ga 4.96673021234489 6.302109907551236 4.5989427696150385
Ga 8.277396584603972 6.938751142902667 5.080713740860647
Ga 6.692355098408858 7.450230688741456 3.097424508833254
Ga 3.804526794099708 7.326098556795352 6.663202341697423
Ga 3.72289694134465 4.0007604166353055 5.820405070179773
Ga 6.4019726619908095 7.547376259889243 6.680542128827734
Ga 4.713992306330018 5.382488115455604 8.035761784282629
Ga 9.367988785715852 6.192055785632577 7.225180164632124
Ga 6.444048972559718 4.6885843891719805 5.924908485373666
Ga 7.205938581379555 5.769391676002601 8.470765944475735
