19
Energy = -46.88212413 eV
Ga 7.715352876616066 4.514309998139353 7.771444688330453
Ga 10.23197137518576 3.9084275588525776 9.025568690409678
Ga 5.576224404225924 5.174814248445579 9.97257005859624
Ga 5.970382197701905 6.4462575366351125 7.650523826936706
Ga 8.189222280712999 4.863920451838482 10.514412907178546
Ga 10.28125183506285 4.905136818653839 6.516587917386961
Ga 4.5382945967821335 7.6817964516749 9.83358481333072
Ga 7.838034523800662 6.042629472272456 5.598873616149256
Ga 9.456126856578862 6.633903072610705 8.628663051781428
Ga 7.417443660267904 7.456254243571226 10.06969127896501
Ga 10.260482216854852 7.526690795681116 6.094338370663502
Ga 6.46639609542479 9.810700543109885 9.293834932333926
Ga 6.671699833785247 8.210273402196547 4.909474526565735
Ga 7.925995317504788 8.338295021944694 7.397874876011315
Ga 4.826559677963912 8.702498547887279 7.243015736835496
Ga 5.161794634375497 10.465074672428804 5.3776454805647775
Ga 7.237493849075465 10.749258800375372 3.774875113850563
Ga 9.217669902888677 9.868136942727197 5.562515962777833
Ga 7.271776884215824 10.899437236166381 7.039371287928283
