13
Energy = -30.78988403 eV
Ga 8.243367920877127 4.774105298116284 7.631589335936345
Ga 7.824996159378143 7.361989902971785 6.860883147028519
Ga 6.132300402470142 5.795607527800885 8.631260685325866
Ga 7.467209611025558 7.237669331864068 10.429372918993135
Ga 9.256107884132685 11.827263809439726 6.895181332737135
Ga 9.560845910149656 6.574133790156378 9.05760289103264
Ga 8.825445588602497 9.323008732225613 5.470200330739982
Ga 10.014831155894187 9.052471270636689 7.757947787585502
Ga 5.905423383776227 8.404047461151434 8.418524481387125
Ga 9.021551850375458 9.213817418131738 11.271834611330654
Ga 6.747040974763355 10.170339366708337 6.73501266235269
Ga 11.134530517223187 8.46911739571654 10.069928429585154
Ga 8.060700180278554 10.21524968808956 9.018025144000633
