19
Energy = -45.59619587 eV
Ga 9.363673855222729 6.095385981123927 2.459573472714397
Ga 8.126456795830412 4.22921517714894 0.943072921492532
Ga 7.523545913859417 7.66055692652166 1.473805558346887
Ga 5.895624408233702 5.503202177128448 1.584455367121401
Ga 8.768287892824683 6.190734870171731 4.960825664698449
Ga 8.686279028860287 6.549052908301685 7.428867254115864
Ga 6.320645635238598 7.835804512427457 6.147164919201237
Ga 7.360160758716024 4.3483386676987035 3.513943107605186
Ga 6.325925861144815 7.121467412067181 3.721854905462943
Ga 6.078928206136549 4.928705492056031 5.625190531314254
Ga 3.8751540441657664 6.279444324103158 6.458080187681161
Ga 8.213405126682664 6.52280222993041 9.92687799226303
Ga 6.307674366617659 5.464566517521109 8.070592349664167
Ga 4.3758148650643225 7.1442316123630665 8.860153708166813
Ga 6.763933774847468 8.45157435111721 8.479813695330408
Ga 5.841400730954293 5.37685656361783 10.609899318988312
Ga 3.6978930582177685 9.16420855882721 10.743456168935328
Ga 6.2547778378587005 8.179787123870812 10.938241235405233
Ga 3.9670575895437086 6.722679830889035 11.810735683442326
