16
Energy = -38.71179872 eV
Ga 8.69592842051469 2.569462678738356 6.018188746416073
Ga 10.363008237300999 4.4325041162662 7.078918496547451
Ga 7.538910148046273 4.758103809679699 4.984602890702978
Ga 7.625124904529367 4.594235277807801 7.681529924736144
Ga 9.884314147466924 6.015777179223443 4.988085992416112
Ga 7.467303199014016 7.38979520384138 5.517082764220917
Ga 6.724167624872145 6.931142952528864 8.785384243086384
Ga 9.172549125408144 6.776141530349935 7.580453572099641
Ga 5.371407965387664 5.936961134123626 6.617013870686661
Ga 7.179971850723826 10.236273403551744 5.586835983116177
Ga 5.081285716899248 9.141491241556666 8.714589136309499
Ga 2.9775945234252137 7.36330232588537 6.912605353422919
Ga 5.086693433665053 8.654559053050576 6.050055598636414
Ga 5.9084446723846815 11.418481758637382 7.58858758486901
Ga 7.874001121308229 9.125034819211562 7.815764337552975
Ga 4.134035331082628 6.568825043290498 9.086309376221672
