11
Energy = -25.2106669 eV
Ga 8.791934142185987 6.22085078296071 6.349206852298761
Ga 9.275110013333173 8.165165438123978 4.351436644646015
Ga 7.220456465046747 7.3657873861752945 10.62663648004329
Ga 6.935910199833302 9.221883311751807 8.78713887407424
Ga 10.942426662101324 8.01411366170296 6.555306391796554
Ga 4.650781979631952 6.998607958936588 10.328282904246931
Ga 6.973573297856552 5.972987292291729 8.222280620246153
Ga 7.036426562705635 8.216646065742248 6.059140592105903
Ga 9.188646067234497 7.570359413404267 8.683189322867852
Ga 9.013865893676027 9.740775022104804 7.121058047022722
Ga 4.9875933668507395 7.614055698467197 7.80510218336663
