12
Energy = -28.20520425 eV
Ga 10.35475851996779 9.821861180756724 6.355805388930355
Ga 10.529993508392542 7.186192428464007 6.844380059170965
Ga 9.072072295518964 8.689808877607254 11.133252527748525
Ga 6.773664724440667 7.784115624199846 10.271868920004652
Ga 6.912928594591334 8.335532763134655 7.487558735709803
Ga 8.301843274358825 8.374683378070852 5.418125374073767
Ga 8.95081822254604 9.765299298854742 8.533046890192045
Ga 6.291850112027555 10.195233429182817 9.370568869317587
Ga 8.304862340543737 11.32669375444772 10.884325465776985
Ga 9.19607946205643 7.0987885412126515 8.944162798232918
Ga 6.884876149598813 5.701311413316314 8.33516897295247
Ga 8.263276358359766 5.732106489922758 6.193611103569302
