18
Energy = -43.52916199 eV
Ga 6.895133555350905 10.446562774742336 4.647191417005628
Ga 4.9328303959751665 10.882644038844974 7.4479221862451475
Ga 6.916757172059279 12.280523894766603 6.496503759196995
Ga 8.345499605110088 8.58833044445569 5.816122594635958
Ga 5.436507889374982 8.682403778175889 5.9151879328031525
Ga 6.928992518473496 9.401204468562263 8.222483280990954
Ga 8.893691059839611 10.81613307820797 7.307701263084195
Ga 6.8131675996676035 7.274889046562423 3.6137728036091397
Ga 8.515075215431349 6.059308737291031 5.65823786164959
Ga 8.755884788142808 4.59809681885022 7.747664357837551
Ga 6.989140069724491 3.978083455857492 5.13904581208865
Ga 7.242209820758163 2.343889305111524 7.100108474287225
Ga 7.1911421801278435 6.825876452631292 8.130532180486215
Ga 7.296974725694456 3.0093967140661193 9.608198356991222
Ga 5.684414886482874 4.521726196903223 7.91189663892161
Ga 5.58202370831214 6.117476078154605 5.896835111881032
Ga 8.62138102602791 5.470452569672142 10.208789167426724
Ga 5.942846809096554 5.476497519175603 10.366158359926455
