11
Energy = -25.83212797
Ga 4.403304917543186 3.7418003268897495 5.3117876206604
Ga 4.603576005478834 5.961100075401526 7.374759354274805
Ga 7.318624145324219 5.961100075401526 7.374759354274805
Ga 3.0792683508030514 5.961100075401526 4.903327790315986
Ga 4.403304917543186 8.180399823913305 5.3117876206604
Ga 7.518895233259864 3.7418003268897495 5.3117876206604
Ga 8.842931799999999 5.961100075401526 4.903327790315986
Ga 5.961100075401526 5.961100075401526 4.937277046137512
Ga 5.961100075401526 8.296646957243176 7.4157495057283
Ga 7.518895233259864 8.180399823913305 5.3117876206604
Ga 5.961100075401526 3.625553193559877 7.4157495057283
