13
Energy = -30.73500869 eV
Ga 8.995237995204011 10.486789664398428 9.85106553219457
Ga 7.13062601314044 6.40201428945591 10.31687369758238
Ga 6.764367619189458 9.041101900222188 10.086625584153618
Ga 9.185781055984283 7.577659213390001 9.09044737673287
Ga 9.79297413574483 9.573280794614357 7.340236270707136
Ga 6.797199168637807 4.795330304561323 8.265787722047788
Ga 7.189500806392469 9.51101031050284 7.50943375796364
Ga 5.902881070782566 7.371180060208305 8.011273412516134
Ga 8.579820545757572 6.475154991425065 6.9107265309363
Ga 7.731950169698888 5.074926032032609 4.766630415190347
Ga 8.938876731838294 8.464052932766403 5.157984685208699
Ga 5.449222534156876 5.645214380973675 6.046525659347828
Ga 6.355079781034363 8.068293106277057 5.379045896755999
