19
Energy = -46.45907588 eV
Ga 8.49832067315682 6.847822069951666 3.613680364407221
Ga 6.347561031280992 5.479757153338678 2.738956858908902
Ga 7.092437038617816 8.293067719772418 5.241129906384044
Ga 7.973607781675632 3.9979553364863807 4.334679578858514
Ga 10.588666144783698 5.120352643751585 4.454753073272221
Ga 6.855284604689525 6.831584503402741 7.953375251109007
Ga 8.677686356494943 6.14135500142475 6.255177172575447
Ga 4.888052256311016 7.660745229251347 3.4470439268612805
Ga 5.991586743121199 5.702933113809684 5.376592243971891
Ga 9.754973699890963 3.489826658167912 6.483538620678074
Ga 6.68210541950003 3.2910601408789804 6.499042267178961
Ga 4.0470216808662 7.311111226468762 6.016713977244651
Ga 3.033315658514177 9.230256109963765 7.599324485679781
Ga 5.689172982543877 9.348649581894858 7.278758938355152
Ga 8.237198754979888 4.550874041271466 8.402898695386414
Ga 5.042117937981491 4.783086993588418 7.737926727848353
Ga 3.2227043023209916 9.04578170879376 10.322162258906056
Ga 5.765133461274391 8.374200927250554 9.779457649836678
Ga 3.8332212410937285 6.749828831094215 8.734229398362904
