10
Energy = -22.46564776 eV
Ga 9.00527309108714 7.119991857463424 9.465686701238162
Ga 5.9454610609879825 7.257702174145516 7.732718066316952
Ga 9.41834565958002 7.226877707012927 6.747473713229048
Ga 7.298344852523065 8.44029975876007 5.855859724519116
Ga 8.655104547232634 9.193104419050691 10.8562990090754
Ga 6.013159219804582 5.3825477309390655 5.751191842230585
Ga 7.592329597280164 9.1709812564093 8.355139492806314
Ga 8.122035848838417 6.375120294428339 4.398381168376906
Ga 7.850412507792498 5.461811059383143 7.718931224078877
Ga 7.030240084741697 11.08347490482684 10.13246206574055
