18
Energy = -44.5460728 eV
Ga 10.330032625997143 6.73499535738015 5.07319586075322
Ga 11.027513663197235 7.115890201525413 7.6006525820344555
Ga 8.949462989267424 5.231117371061207 7.123738872686625
Ga 8.84011241640499 8.907702827085505 5.757105346404754
Ga 4.31087654530588 3.4362256716334634 5.072212765796685
Ga 6.745647000028946 3.4743697137886915 7.614470236586073
Ga 2.3016364917617116 5.290849517937249 5.722377238170464
Ga 8.482850867294776 7.769389568611901 8.21832802807399
Ga 7.720500973565733 6.537440975433609 4.835533405255688
Ga 6.91931442995124 4.0959295872888175 5.044934811344303
Ga 5.018980742173826 6.079658488322977 4.967548593097047
Ga 6.456313702910899 6.236544739693892 7.436211093112582
Ga 4.334491661051224 4.6719394059267145 7.58269212786768
Ga 3.4575324570066406 7.725044529519715 6.326399986423223
Ga 6.09930137115216 8.90423801997356 8.551573963792308
Ga 4.217974976572232 7.043519376555796 8.78995567697682
Ga 7.2831105829768905 10.70309261510346 6.990801521495843
Ga 5.963227643449935 8.523879866955095 5.783648636179248
