19
Energy = -46.62300151 eV
Ga 3.2485746014996426 2.7630457336900927 6.576981301455915
Ga 2.160497895102488 4.500754640075908 8.318756458477528
Ga 5.822792077391295 2.9443959433862346 7.438390151732073
Ga 3.149156034016229 6.2632261748789935 6.652577629154924
Ga 8.28423950248105 3.29317432492736 6.619273819015416
Ga 4.695557157168328 5.12388091683095 8.629464989809412
Ga 4.6598143075952905 7.001258270916379 4.524711663625851
Ga 4.760345085789175 4.432853365402969 5.356526070120237
Ga 7.145545540691843 5.694745421078618 5.484706557640772
Ga 6.856140412830156 6.880071518610166 3.1132369018925155
Ga 5.660323060427349 7.378861964640424 7.22396307095674
Ga 9.666650960436723 5.506416679950364 6.779811450170221
Ga 6.295271136268774 8.931881311507954 5.246026477729727
Ga 7.2846292414883 5.2318150215694095 8.358516166843078
Ga 8.621099840695132 10.625924674897544 5.4920576255717295
Ga 8.455111278064837 8.993189117130104 3.3797532959510086
Ga 8.165022555598888 7.618746387880152 8.363291710156645
Ga 8.867878018659074 7.81900919635379 5.767151171537069
Ga 7.124990214097755 9.937020459873898 7.624602254183699
