15
Energy = -36.66729119 eV
Ga 4.605499615241582 4.519143126186856 3.4893203059190285
Ga 7.353802165590044 4.938042655534676 3.7930698676047476
Ga 6.172454651477877 7.3622140269947405 3.582048869522253
Ga 4.17063796080988 3.5910045185131123 6.060301745692996
Ga 4.8622049382896915 9.619108950983566 4.965006680233867
Ga 3.792285570474848 6.855556559492419 4.6546484158250205
Ga 7.503935994049594 7.7929511806949225 5.825359853564492
Ga 6.584252975274115 2.3658919543568055 4.567367072898628
Ga 5.825645484106006 5.68904425515612 5.903549374738915
Ga 3.1298717622621255 5.798405390871186 7.031720424195319
Ga 6.733718359576825 3.3875675969423344 7.129437325866053
Ga 7.627616549551858 6.64771715672622 8.367256061208705
Ga 8.477705308004618 5.193916239022683 6.188878217917628
Ga 5.0408350893288185 8.016948204799027 7.104336715320051
Ga 5.292892534474405 5.395847142238239 8.511058028004742
