18
Energy = -44.22536042 eV
Ga 11.242324476764844 8.841012678831117 4.964010898497834
Ga 10.800857592958655 6.650711208008107 6.651755148654739
Ga 11.5735869283394 9.03553678106623 7.84921576234988
Ga 9.035937216002619 9.485733695075066 6.9112266403484615
Ga 8.873467145186224 7.544249531526518 4.889552964507184
Ga 8.595111495249878 5.3789396042435556 7.077600603562886
Ga 7.130546115961311 9.526629175261792 8.704747907332465
Ga 9.272569245772507 7.480122529867998 8.756446948391387
Ga 6.80676197719145 4.912820861958245 5.1756683763225535
Ga 4.732694678608949 8.502770588148405 8.438030065321557
Ga 6.948451337534957 6.849176599449569 9.55330971532431
Ga 6.189171825046137 7.288827571238629 4.204223749233331
Ga 6.940672650655539 7.582903955000116 6.8073391225896325
Ga 6.044938818791691 4.90094945151175 7.75694300006315
Ga 4.437585444631429 6.054929531318631 9.507869153370615
Ga 2.313259181182008 7.197226576214619 8.082048941989168
Ga 4.465905918266402 6.730290256986815 6.180977819664793
Ga 3.316396184072627 4.5714751934712705 7.396730837918785
