17
Energy = -41.18197843 eV
Ga 8.027336525282406 8.856428966502312 4.727004595687044
Ga 9.74391957016339 11.13796265524599 6.6235170588519106
Ga 5.692846625766898 8.128827205898464 6.094104684960512
Ga 10.485852167784058 8.677181826694564 5.718461779497906
Ga 5.623684175484176 5.385560167434512 6.43589617161361
Ga 9.217343701942898 8.786337838025904 8.174988227510855
Ga 7.240851558117374 10.038609706811602 7.063524517612445
Ga 8.236880991706037 6.807423772139621 6.38681323200478
Ga 10.99335165033169 6.61926631830323 7.275694286072544
Ga 2.3769550681131446 5.856198322154402 8.572861098109945
Ga 9.437301181430435 6.419244411508277 9.449239808990093
Ga 9.582748771540478 4.4535497092390965 6.573724247517032
Ga 3.36592496684407 6.675785749483181 6.110759093539433
Ga 7.643457992674978 4.854458668204714 8.363866162686044
Ga 6.8250235530561625 7.671642172638062 8.672758141194088
Ga 4.231264353647857 7.932107792739439 8.4943671084068
Ga 5.110930287927249 5.513388976082733 9.089970865871058
