18
Energy = -44.0068377 eV
Ga 5.222894786342711 4.392799524116047 7.767820573178826
Ga 4.4659587664065965 4.3073807059541025 5.241574721992008
Ga 7.066193408846368 6.20040098915586 8.517581190927022
Ga 6.884874485912279 5.362194421735057 5.724685324195595
Ga 2.470274147538165 5.962722426521341 6.277141716537968
Ga 4.828820333599031 7.042296095044996 5.184401467930405
Ga 4.463079642749947 6.986305722160321 7.815237335246763
Ga 9.833974698741072 8.774936061847106 6.229061897433821
Ga 7.155803580294831 8.035940062553475 5.86427840555853
Ga 6.130695170884424 9.047594769372008 8.308581583897336
Ga 9.208611437499966 6.155533976610493 6.7989037683211615
Ga 8.017703581017171 10.522871300822995 6.292553872752928
Ga 9.52547029288796 6.06167861131932 9.545077571834552
Ga 7.6676985110275355 11.045633632834734 8.847172187673754
Ga 11.365438262782924 7.307812569088309 7.779196335088341
Ga 8.625381133163762 8.411362250673337 8.82682249380956
Ga 11.175313807168408 8.182233486138308 10.369246050048165
Ga 10.30778787066863 10.459754077364904 8.788965973240336
