16
Energy = -38.82784701 eV
Ga 11.502520845303449 6.985987431268363 9.14596562512573
Ga 10.67517215255249 8.731469330321223 10.9331396736944
Ga 8.177225530147012 7.8406177845926335 11.087099403008992
Ga 9.211572680745464 5.700292266668562 9.855976916873486
Ga 9.983193295698205 7.364226505873546 7.109974522723387
Ga 9.13555624938426 9.171444926287323 8.788339661737053
Ga 6.303064364433433 8.796537434922458 9.517038755253406
Ga 7.404014370543973 6.687010964744677 8.252415968743765
Ga 9.272451422686613 4.547752190166808 7.276623765406377
Ga 8.130280429287978 6.3922007639470335 5.597352895376033
Ga 7.443120787622799 9.082787052588845 6.769283326611718
Ga 5.4162526171807555 6.568748081083561 6.447001574154432
Ga 6.522948633413656 7.936229784292235 4.336515679153041
Ga 3.6242399478846457 8.077136993063107 4.917673548451968
Ga 5.517425897695375 10.141665002962874 5.354812105667873
Ga 4.620688455846336 8.791060999074515 7.560142804245793
