14
Energy = -33.53991577 eV
Ga 5.202339223799153 6.353695814644167 8.266081692076291
Ga 7.225444977904675 8.117064724345656 5.372282002899359
Ga 7.7023347633971335 6.172196827114353 9.576423301236693
Ga 9.59175214598786 9.32564186541012 5.794578888203097
Ga 9.406252198239956 6.404521864603784 5.89176764847659
Ga 7.052772032474626 5.616597905587076 4.381120894295054
Ga 9.727599295289703 5.305476426079178 8.263147854356506
Ga 6.9414909409373955 8.866610018112134 9.235517811085954
Ga 9.047230163425628 8.046971512769796 8.07198175561186
Ga 7.165602284609951 5.306100876792959 7.032946571235218
Ga 7.615328155677413 10.403000496324312 7.094968952368829
Ga 4.896939188946333 6.43542546879647 5.573636413687021
Ga 5.387264840781126 8.765327160556588 7.0027898187831985
Ga 5.416091294730436 7.259809405231238 10.821197331968696
