17
Energy = -40.88511453 eV
Ga 10.093945962255475 4.473682103996673 10.322809367693026
Ga 10.811384058840678 3.4748295947846937 8.019213182079316
Ga 8.449846740306233 5.151145962890622 8.04787026051712
Ga 11.044424088565906 6.1514067180396275 8.01149124957945
Ga 5.182221956529844 9.121445423731544 9.089201461092413
Ga 8.539848323655205 6.479509678543153 10.467933737655482
Ga 6.705289246008691 6.96425999939827 8.59526943368482
Ga 7.843039372664528 8.99994110587213 10.308688055905813
Ga 9.537031453533778 8.107556025142003 8.155961989510452
Ga 7.61185878632205 9.440837814546919 7.2190813541874075
Ga 5.1650881256196355 7.904442434174529 6.590723287874002
Ga 7.835011073092384 6.706757835936928 6.072230756146278
Ga 5.847190217015732 7.070130661201509 3.982976377623679
Ga 5.566933392300859 11.3274823589835 7.6808538345068005
Ga 7.829784427920199 11.31459538845243 9.223511845434249
Ga 7.956301091202985 8.860810007506482 4.552783137416783
Ga 5.700209262119279 10.16344656702539 5.372858245729423
