17
Energy = -41.21522378 eV
Ga 11.441930688878024 6.57532754282155 5.840656351797817
Ga 10.127014165259778 5.24092929288535 3.8498332265698574
Ga 9.80320576238538 5.214248491245972 7.417262514719952
Ga 9.835777709955437 7.954540502588495 7.463827592108435
Ga 9.255994224470452 7.969255833957956 4.7148384868194695
Ga 8.000016576522869 5.5667825997910825 5.411465660519065
Ga 8.779968940356566 10.294824471750792 6.1738913395307495
Ga 8.110663320845438 9.234862921506883 8.840870838722095
Ga 8.296579602806226 6.516775221836034 9.275146065014038
Ga 7.170881603996861 7.841496305784916 6.4562948432047005
Ga 5.700221200749857 10.38203795511453 9.916548554365399
Ga 5.2508311177084375 8.088709288904454 8.011500528533498
Ga 6.331467301241569 10.679938970416861 7.372939152004703
Ga 6.519501832329805 7.88921473056273 10.54024958852557
Ga 6.351099919741628 5.507366123639661 7.742314182924448
Ga 4.673147804956556 5.860649661017185 9.79793114960405
Ga 3.6462708696734545 8.40430490804562 10.134321641988363
