16
Energy = -38.82816229 eV
Ga 5.562956907450366 5.370713865442279 11.033452771921995
Ga 4.982789756978779 5.027073125833819 8.528622548420204
Ga 7.575163512909261 5.644202523439443 8.583977389914216
Ga 7.830123330227725 6.8800443984818385 11.050574160042252
Ga 5.558139393868749 7.58691464698355 9.230917211826958
Ga 7.561837314917431 9.186509275561992 9.745106572110112
Ga 8.106966763552643 6.020167450770479 6.036256927161502
Ga 5.414403953040134 6.267665292795794 6.2542806517261855
Ga 11.442940312869217 8.719380568108365 7.187718789105037
Ga 6.930230437364698 8.04975144011551 4.268353951697338
Ga 9.319653934813486 7.473354754263106 8.296076583116488
Ga 6.805775485165113 8.431373556728508 7.2050021742671975
Ga 10.842229160866625 11.22113740143158 6.231102437946942
Ga 9.193740912546899 8.593682739751902 5.679266689780221
Ga 9.861820541248111 9.994501642651448 8.860262056977428
Ga 8.234078318447269 10.766920062838977 6.9307478929251785
