16
Energy = -38.79520212 eV
Ga 9.680113891360746 3.353494528428011 6.630356297500042
Ga 9.169596169691614 8.064115856610556 6.1539550834206995
Ga 7.650895305556745 3.733084428813903 4.939554664620496
Ga 8.488415997524301 6.1590620935289895 4.482563593415928
Ga 8.5295122330531 5.666777228977954 7.334254232473901
Ga 7.487809022606386 9.847785110900356 6.92516211282437
Ga 7.934914355511097 3.313075031478592 8.577157237494571
Ga 7.0931820846773475 7.5351333189298035 8.36734106547819
Ga 5.904609490194604 4.4575147816973315 6.633794153328469
Ga 4.501223982438294 6.397864940821754 8.10043591134659
Ga 6.27988458775659 5.139096948588981 9.452564308649634
Ga 5.90524214841295 9.334349489537518 4.7798080394576985
Ga 5.341820393100066 9.64766009404593 8.46917383391577
Ga 6.307197056387563 6.936086886931549 5.822509837418421
Ga 4.067841441229372 8.416971073879786 6.488085465140244
Ga 5.203178875639128 11.487009559423926 6.37336713015587
