17
Energy = -41.28823914 eV
Ga 3.7041386183743636 8.090831694460782 9.368325907878242
Ga 5.39342699034647 8.34248748776314 7.2239978850138495
Ga 4.5601112686456355 5.8237236437239845 7.832532909474523
Ga 5.945692267647181 9.587408695770646 10.279537482934622
Ga 6.1572323508090765 10.855084620907279 7.951155761586785
Ga 6.326609680845048 6.9988340580086446 9.656203611752222
Ga 7.046956131196532 5.649614308813017 7.120974920822353
Ga 8.81774486649518 6.420806714490408 9.080994645722983
Ga 8.012721778959207 8.87195856459072 8.466155871784961
Ga 7.346962988232871 7.766659328782409 5.490110321327811
Ga 5.747326368769559 9.966095725715267 5.11911599277952
Ga 8.208728554737872 10.251135300487025 6.250389818733793
Ga 9.393341004846377 4.021695032365411 7.778121056277564
Ga 9.301680720621817 5.464783461242594 5.569255618157847
Ga 9.859776382827217 7.733069642084927 6.920473802082013
Ga 11.30564068942812 5.795842256467125 8.410197442737822
Ga 11.924129211501949 6.180776427044963 5.80511842942377
