18
Energy = -44.40480731 eV
Ga 10.171365222874384 7.117119331506312 10.063340801171966
Ga 9.911332106266261 6.5837039574999245 7.317636577378172
Ga 7.243093188716901 5.801857803030172 6.637479361260846
Ga 8.11587807245478 9.054242343078126 9.563880392121037
Ga 10.652493228109451 9.2082911429107 8.338693343812617
Ga 7.8290919886519195 6.2560921018136835 9.156922578043279
Ga 8.390708719517292 8.893933528555479 6.863623306667381
Ga 5.931550752414019 8.813735890067132 7.95371523706025
Ga 5.87877786940349 7.652881705406628 10.489205648503091
Ga 5.203366619618573 6.087712057192803 8.177947023292942
Ga 3.39468575501957 7.813098051955532 9.341220118499125
Ga 9.593107252527494 4.738922131960372 5.515863659063115
Ga 3.519760906842484 7.660635217640128 6.623504605678558
Ga 8.516544952185983 7.318104514531086 4.751967122061212
Ga 7.322453109095368 4.797395460607936 4.011719789066929
Ga 4.930144182113176 5.544979880576935 5.427640809749011
Ga 5.93031344450567 8.26067914683733 5.4490822886002865
Ga 6.276883865126075 7.16795210800238 3.0809723980078263
