15
Energy = -36.09461344 eV
Ga 7.14000077259593 7.660002903570268 3.691105550201054
Ga 9.584127135974695 6.572921968235078 3.6998527811933153
Ga 3.3363160300327794 4.040051300977628 5.4478529999431275
Ga 5.719010747126885 7.864125209308413 6.056046959045618
Ga 5.059231798683089 5.8297648351494 4.173432254114205
Ga 7.862750041770331 5.857548208374605 5.706505977300332
Ga 6.151663041860659 3.8135909108980797 5.863492104215305
Ga 7.8820465951589584 9.500776692726568 5.509515069326853
Ga 4.0206253138417685 6.241575204411107 6.871619825607288
Ga 9.881289332500643 7.84285194076022 6.0196790508298985
Ga 7.8710123958439 7.669936428920529 7.827046298270784
Ga 4.389569143882824 3.516307259537181 7.938763217838181
Ga 5.500952879668992 7.920352269949929 9.00393693299581
Ga 6.538282975111698 5.394056151178123 7.95407458604192
Ga 4.382674252939559 5.595691172995623 9.556628850068758
