19
Energy = -46.49675718 eV
Ga 12.146025602171424 6.840983990379107 7.319063463147359
Ga 11.29990169412475 8.600669151488294 9.235243510086189
Ga 10.552735027596873 5.565390969245307 9.218131716509744
Ga 9.782306501389519 5.750072943269372 6.508510250811942
Ga 9.907919290750616 8.805799245657933 11.50143931415718
Ga 9.837246146459568 10.767341806923831 8.460261646437566
Ga 7.8850611144640235 9.56596179766822 9.848583915805902
Ga 8.540043669136988 7.017599499532862 9.887100528194399
Ga 9.477316400371977 8.179439583856169 7.3606005564333445
Ga 7.782830602658389 5.190698183250481 8.106170925861024
Ga 7.505586609855427 10.088567534207808 7.15144118681346
Ga 6.2984969580818495 7.7781631738074495 8.564565984871727
Ga 7.451162118331446 7.204967606270506 5.958745447229028
Ga 5.332877436337401 5.5244756707081395 7.332072190464624
Ga 5.59483433661395 9.24724490928368 5.656924167027529
Ga 4.015053502478716 8.049872536028523 7.5022205988665425
Ga 2.959523817769313 5.953033726412158 6.0013549230929675
Ga 5.299738372511968 6.627719107723255 4.771561539527014
Ga 3.1435172409741448 8.52838803586937 4.789243600739474
