12
Energy = -27.93545488 eV
Ga 7.321272034415261 6.430700536059894 5.87134350788731
Ga 9.511248583158165 10.47437741966016 7.514901639282506
Ga 6.111265592702089 4.030063326948809 7.374112659404963
Ga 8.369862045955411 8.397613858889766 8.922615689808488
Ga 8.60168882323946 4.593927789280151 7.469316182653569
Ga 8.735519759640493 11.073685203407983 9.992696011823199
Ga 6.793854914135361 10.735788239308912 8.071456648196033
Ga 6.994369090317168 6.399944495399637 8.731170746675133
Ga 8.677199599806942 8.507289562456988 6.071646688631857
Ga 4.720650801499686 6.197132138161836 6.962377614163481
Ga 10.06945419817567 6.695029968228161 7.597718819149528
Ga 6.031313801857975 8.515868188177738 7.16989974408633
