12
Energy = -27.80286853 eV
Ga 7.10488934976712 8.947463676239762 6.679998755651969
Ga 6.864560961702218 7.221445219069223 9.005701928617288
Ga 3.1849762820452763 9.94002506825376 8.69853464996699
Ga 6.194149147330276 6.233666405822476 6.402143436706968
Ga 8.469837874199058 5.662926929352264 8.075703047949665
Ga 8.861594679349887 9.11164800197 8.7862801971299
Ga 5.818528014432678 9.739346305320463 8.935716120057043
Ga 8.132767122779473 4.698366788495858 5.506367235081628
Ga 4.5426345756083775 7.8764116148777665 7.401333967756376
Ga 8.723972876343975 7.393374968471788 5.76509068523274
Ga 10.455898948768139 7.4254145017877065 7.795168060811416
Ga 10.75147484149117 5.169780468813305 6.1667221275184305
