16
Energy = -38.32649012 eV
Ga 7.249490582067946 7.449767754895386 4.538967061359813
Ga 8.85009307890268 8.149886827799456 6.483691243136406
Ga 7.720995476602067 8.570756620085296 9.045682045115125
Ga 6.141592790524876 7.779320135953433 7.22952223428219
Ga 3.4941880532363077 4.148267596359208 5.827606219157054
Ga 4.423396290289913 6.826225850448378 5.661160670881614
Ga 2.8104311144497602 6.061657227715928 3.866337817647436
Ga 10.489529207232835 8.772981497032852 8.708738771901238
Ga 6.172562467033779 4.558171918834941 5.090408805291545
Ga 1.9000157671305578 3.448792930865033 3.566029749894387
Ga 6.876512948683267 5.999964726707644 9.268713156455323
Ga 9.456037836742937 6.202494197601997 8.524231946209023
Ga 5.392505096496432 6.367615277844887 3.0653556829797335
Ga 4.63730923435382 3.785006468831661 3.2230744555777755
Ga 5.041348987107806 4.917570996249706 7.786477477951944
Ga 7.880720787688137 5.514114939665342 6.666913176257279
