18
Energy = -44.63003466 eV
Ga 6.497211803552335 8.239754038052524 4.490053516302975
Ga 9.199279921436414 8.392157600297558 4.90432757323669
Ga 10.105073942158537 5.958196171820323 5.588903947762208
Ga 7.861359639142904 10.063757926031997 6.3872718100293095
Ga 5.5358462442957315 8.618363918000954 6.952001782339384
Ga 7.855092365195492 5.984071571331536 3.871790060036885
Ga 10.328742313979443 8.395118274449661 7.312440313526256
Ga 5.484344663747797 9.2275164538942 9.435507978451286
Ga 7.951661969459301 11.14205294652569 8.604318547434625
Ga 10.43060407230912 8.918524760018025 9.776139882331602
Ga 7.9343571228129415 8.37347565740538 8.634691359028611
Ga 9.69387575974422 8.60070378962355 12.485498802161633
Ga 7.499392991995826 6.677247756934867 6.664086896994646
Ga 8.279567745869878 10.321310184650056 10.983707408377654
Ga 6.108843307253326 6.138970194853359 8.948422776219452
Ga 9.459003364570783 5.831516896423024 8.263390816983192
Ga 8.796957662323498 6.60363020089537 10.574897295908064
Ga 6.743872829538607 7.980687144708612 11.289496412543864
