14
Energy = -33.71604116 eV
Ga 10.298905219382037 9.819326664501968 7.287972896176731
Ga 11.927386716570812 8.762651206436152 9.217445489289895
Ga 9.335924298484251 9.263959589136403 10.078203763617541
Ga 11.076674176164023 7.534026982157379 11.437790499084796
Ga 10.0049415517201 6.849661887677561 8.74027773696285
Ga 9.37357851915892 7.415344347826942 6.327101985506163
Ga 7.745262522869651 9.553969611315447 8.244534503476299
Ga 8.034553970713123 10.187301295451086 5.554754901804278
Ga 7.481813326921435 6.752656330714762 8.511051495449673
Ga 8.500448263587757 6.8029289993314865 11.201755175180601
Ga 6.787146725446107 7.7928029030704 6.2059061058011675
Ga 5.0802977473091016 8.349339782231038 8.265888611472956
Ga 6.449269959720712 8.331585831823821 10.554223304230964
Ga 5.547810552776727 10.371419677600857 6.531687154297951
