13
Energy = -31.70692192 eV
Ga 5.964962127288978 6.056183635853989 5.9650167539447425
Ga 4.41839575270877 7.860052361518707 4.65940361137359
Ga 5.965038761019942 6.078599846229523 3.2305475078894843
Ga 7.510964704593513 7.860472362972111 4.659441214318677
Ga 8.28305165015941 5.136367647456773 4.668407774384398
Ga 5.965386791836581 3.673414691907453 4.632991778900384
Ga 3.6472901766779984 5.135610172629323 4.6684140818582485
Ga 4.41839575270877 7.860052361518707 7.270629896515892
Ga 3.6472901766779984 5.135610172629323 7.261619426031237
Ga 5.965386791836581 3.673414691907453 7.2970417289890985
Ga 8.28305165015941 5.136367647456773 7.261625733505087
Ga 7.510964704593513 7.860472362972111 7.27059229357081
Ga 5.965038761019942 6.078599846229523 8.699485999999998
