11
Energy = -25.37933879 eV
Ga 7.359680742434915 5.961986694729301 10.153462982997619
Ga 9.67386546655124 7.037948051385254 9.752829995366982
Ga 5.7528503218942655 5.719535147476607 5.338693376052001
Ga 6.001595435015453 8.16973949572632 7.0293732341952575
Ga 8.89156929512567 7.050530289743615 7.237457659001954
Ga 7.1082180498504 8.489794330517906 9.278659185576245
Ga 8.547341667708459 9.961674665020851 7.66962823861967
Ga 7.49082623296513 9.72339361920398 5.422466308400172
Ga 9.765200261611371 9.647018106568723 9.978485697456646
Ga 6.298169156293083 5.72933012894146 7.905874168152671
Ga 7.852241185494349 7.227266354966107 4.854657462181396
