19
Energy = -46.0556261 eV
Ga 7.303336314326115 8.789030619199142 10.628356296716834
Ga 7.351643126216644 8.147931170189644 6.094075327625032
Ga 4.570079163362994 8.81071927091192 12.022528639758644
Ga 4.198353175681169 8.539378141925775 8.949238228010465
Ga 8.642881677138508 7.612404889988906 8.754089705960425
Ga 5.559488954865587 6.819338351971025 10.598773643316331
Ga 5.327575185493729 8.369432297457012 3.7634912390406163
Ga 5.3703759681924845 10.64244694773455 10.189620618264698
Ga 4.533023797185608 8.712799174476404 6.292860878394269
Ga 5.587367889232984 6.103455924723891 5.1668557417368355
Ga 6.6789284257050054 9.528747203136387 8.10672738150302
Ga 5.969851267008517 6.646478996426816 8.053694340255392
Ga 7.4256853475687485 4.342806387938984 4.148389813336367
Ga 8.595657441390811 6.714164273204997 4.230652198025816
Ga 7.379415029303533 4.960011576757873 6.8187334905351475
Ga 9.543380886826 3.8593149641693567 6.0081278710319665
Ga 11.096800196196106 5.662143460722666 4.51478424626112
Ga 9.667537024056806 6.465211883039946 6.778929108990957
Ga 9.777047883891958 3.588343867688716 3.2022488368005386
