14
Energy = -29.27524232 eV
Ga 8.900180819497056 7.121228297619997 12.065082888783865
Ga 7.4976404558828085 8.126503259169173 10.023531971796098
Ga 7.0960917451059755 5.545085659775687 10.45528830824397
Ga 10.851304162913573 6.066929698550108 10.933841013392874
Ga 9.216209926021179 9.571731989709356 8.031808305692035
Ga 8.997109196821036 4.848047910589242 9.185045561637963
Ga 10.342485320974154 6.895096470343973 8.440373341000035
Ga 5.618340952155919 8.780191752775526 7.316149894628502
Ga 7.783198061498329 8.914534969193326 5.857342667774741
Ga 7.189069779797582 6.355945903312311 6.445653781793347
Ga 4.633270576816954 9.14884244717792 4.5961256172661855
Ga 6.235935696710621 6.80900734719274 3.6595228530663486
Ga 7.064784035551101 9.423371226207138 3.43435636296854
Ga 3.2630044544030734 6.915278487951785 3.678095412099738
