16
Energy = -39.20167479 eV
Ga 5.505471648554182 5.0787362278646775 1.0225365298492788
Ga 6.802892192355197 3.9329084313235243 3.1348261413946212
Ga 3.8589107687767905 6.134409965185735 2.9227722598029375
Ga 6.419491362612702 6.542633832374809 3.9530321980041765
Ga 4.358361192324948 2.96620427546047 2.881277622262727
Ga 7.425955430169766 3.9358928099490798 5.759887364175964
Ga 1.1315502961565524 6.70250961645625 2.821610967376806
Ga 5.377721107981951 2.105395503174046 5.421849997939377
Ga 1.8225031055857683 4.148754101976275 3.0103057751649382
Ga 5.819945552798007 5.769846998964095 6.962878373462401
Ga 4.335997138032443 7.494146035383723 5.514633378925491
Ga 2.4369093479524597 5.631047149476435 5.577353334823821
Ga 2.7141349303427265 2.844206645126155 5.1124502102176885
Ga 4.7722135527893785 4.650819620451056 4.861598913632295
Ga 6.500424021366268 2.85420884982228 8.086654862027343
Ga 3.96859307707656 3.672639659293757 7.41696512248457
