16
Energy = -38.44544498 eV
Ga 5.358761393081919 10.73854999969376 7.206807225858615
Ga 6.308186998874551 9.360962368327518 9.399775263347314
Ga 8.40017727771923 7.308866177916233 5.981677255012099
Ga 7.874614611205432 9.84084187228928 7.234355605505354
Ga 10.354384710854955 8.949576700827743 7.1019212858697
Ga 3.664517732643125 10.170328187707259 9.396300930834759
Ga 5.84745400184238 8.312546383284346 6.121185137398808
Ga 11.416776599744376 7.455229671259126 8.937062521538376
Ga 8.8967977474821 8.248942970565711 9.322984978563083
Ga 11.92890791131834 4.850159224461757 7.6843923596075445
Ga 3.236245700034916 9.228734203520302 6.268014317167949
Ga 10.881411008054659 6.5547941778087955 6.062045182597993
Ga 6.772826701446875 6.867024912155972 8.25438201391018
Ga 4.299525789216046 7.701236128599554 8.376102764203994
Ga 11.161951578435637 5.00321006005679 10.230234088430528
Ga 9.215023367184216 5.823002340383634 8.18288259379639
