18
Energy = -43.30461699 eV
Ga 7.0198023828730465 6.693999149596077 11.500644354182528
Ga 9.090302061917978 6.569418930874125 9.812307292232013
Ga 5.722687666654737 8.697429447321014 10.354197800434234
Ga 8.363690909501615 5.66796644069118 7.390819728826461
Ga 6.334659709019385 6.554774555946722 8.77669018330754
Ga 8.239421631709398 9.09518712605535 9.604735790142758
Ga 8.451837707068103 6.99206028228328 4.9235599131230945
Ga 8.2358343361292 8.489679060693538 7.00622571584513
Ga 5.8579127064775784 6.765371678343369 6.158341061107716
Ga 7.427801127709183 11.461364928352879 10.655060396508626
Ga 5.486995607053707 8.97553500479764 7.5130354370641745
Ga 9.144285529680165 4.338628664079746 5.194849247251034
Ga 5.341476389280929 10.99085288650334 9.05115933811344
Ga 7.667594099106453 10.955647775182722 7.682757322968984
Ga 8.675806875056304 5.410221871842054 2.7956395341675813
Ga 6.627624836802957 4.1122775708513615 5.726837227166439
Ga 6.216082845597589 5.913598637932771 3.753409846455857
Ga 7.030535590273397 3.1982232804797945 3.0627021366523817
