18
Energy = -44.29437762 eV
Ga 9.107967814298268 5.347996241948371 7.897742176222558
Ga 6.512123702296143 3.578963707466433 5.013217842586134
Ga 3.9026232310253732 8.776029870648866 8.833172621574354
Ga 8.9655077164586 3.706043386467874 5.812488607717722
Ga 5.747109343949113 6.779573671045957 9.066106884728246
Ga 5.002842114798038 4.11530882670803 2.707098548199992
Ga 8.215851136260916 7.110198542252547 9.573845422197266
Ga 9.283329254939108 6.38638043876886 5.206488315368689
Ga 3.872675770217412 6.007117656969128 7.447059961677466
Ga 6.602699343037714 5.530962129502692 6.787310906963353
Ga 4.013881111164487 4.586408719898607 5.297683999376447
Ga 8.878047538876512 8.248162374631876 7.2458012433539905
Ga 6.97044065937135 7.782389720183503 5.318587696635146
Ga 6.402162199181536 9.23280506995721 7.469686798942546
Ga 7.482572361286838 5.7063907736175485 3.466573477943938
Ga 5.031343361607195 6.657826457276678 3.898740432740463
Ga 6.778785312767375 9.404599565274253 10.059791325028085
Ga 4.429725592343626 8.231447661945275 6.0920137151709435
