15
Energy = -37.00114816
Ga 9.093233085196172 4.403346166741204 5.9636846930406335
Ga 7.507493916260405 6.107617915726831 7.651961306973784
Ga 9.640653567308268 7.0197904529759505 5.9636846930406335
Ga 4.044520257083997 3.720683129096187 5.9636846930406335
Ga 6.469768653416136 3.732344194666838 7.30362906102456
Ga 7.507493916260405 6.107617915726831 4.275408079107483
Ga 6.469768653416136 3.732344194666838 4.623740325056707
Ga 5.443828612073809 7.86768155222722 3.8871114231792765
Ga 7.1380334486692885 8.312560012384717 5.9636846930406335
Ga 4.58818437881846 5.379605571105265 3.415764134782847
Ga 5.396942593408368 6.007292753947092 5.9636846930406335
Ga 3.678482869416796 8.032519376151043 5.9636846930406335
Ga 4.58818437881846 5.379605571105265 8.511605251298423
Ga 5.443828612073809 7.86768155222722 8.040257962901991
Ga 2.444853453389538 5.7845800368610165 5.9636846930406335
