12
Energy = -28.01123648 eV
Ga 4.3699215113441605 7.926455396976587 8.064429475714197
Ga 8.078443549126607 10.038595810365836 7.718953970114986
Ga 5.709035546294698 9.734884796552903 6.655155442269764
Ga 9.477333507501617 8.473560101629664 9.345419068467926
Ga 4.724083382809982 5.477537143650015 7.226121544709025
Ga 7.026258078719321 7.611072242185145 8.524362855881261
Ga 8.794089275227654 8.1299003129378 6.043471604615744
Ga 6.380694699196381 7.260805471136495 5.821783424299034
Ga 7.154636156373293 5.122959092394188 8.047586496336125
Ga 9.70718547173576 6.3211769225584185 7.935308781426828
Ga 6.14312184730736 4.662179863698726 5.003239372633138
Ga 8.547555821673235 5.356639476405848 5.722552386614933
