15
Energy = -35.71863838 eV
Ga 7.198209610925139 4.378597749691773 2.250104938483214
Ga 5.2483459587626635 5.786995157961629 1.1305531545638798
Ga 3.7463621755457344 4.268962993942839 2.6888774144018965
Ga 5.638404820733806 6.212833190346699 3.7580048953625824
Ga 7.210481217255894 4.115481750913016 4.859423924256211
Ga 4.2691810826899985 4.177805347071047 5.223745108381954
Ga 5.6022458554453625 2.4764946628344293 3.209956576333207
Ga 4.844840874204771 6.810612217236927 6.170082754124699
Ga 6.039876665123181 4.17469369685919 7.208953785443586
Ga 5.236597999250246 8.960032524038983 7.626290643294094
Ga 7.5540854717993335 6.3473012488451195 6.155874854076194
Ga 3.2905003753151716 4.7042010879644565 7.662809695557385
Ga 3.7836596615835805 7.0175852767755025 8.719936943154353
Ga 6.24667172958131 6.056147590960813 8.893663554742888
Ga 7.689797081421814 8.111516084196065 8.04098233746217
