14
Energy = -34.08754922 eV
Ga 10.325811839436025 9.291031704032374 11.033567746666613
Ga 7.699115440956247 9.230772134243711 10.925730853855606
Ga 6.339163918983151 7.013000437194843 10.225674883712092
Ga 6.181860084867376 9.636779644179294 8.747258333436573
Ga 9.089612075297204 6.562791439971307 9.877033277463083
Ga 11.100833746551581 8.580967958667522 8.617276807854955
Ga 8.859063859441651 10.081236185319794 8.646934745635622
Ga 5.151106053296523 7.276380922706823 7.84620559903573
Ga 7.844170762512203 7.560309606689232 7.8772831033787405
Ga 9.704731740825109 8.971412305900058 6.335711591814318
Ga 10.327438482493339 6.292036253342905 7.375647259361432
Ga 6.081148449932492 7.467299163897849 5.432133671617108
Ga 7.170136180647606 9.91769377378374 6.2540953994100885
Ga 8.54234746098098 6.656943799688303 5.41438614759336
