15
Energy = -36.1684925 eV
Ga 6.994449301071938 9.805853645825907 9.330870322141749
Ga 9.104555582017744 11.269781332681738 8.51288972929357
Ga 11.823867435235654 10.883267537692797 10.027265639771276
Ga 7.4139299848299345 12.634472235622894 10.126197448516288
Ga 9.915664510852748 11.946039221593429 11.308631703084346
Ga 11.66245979902881 8.400440722736414 9.090633743743382
Ga 10.337040155433028 6.420331278115945 10.592837514957157
Ga 11.431527065653935 10.706910585321426 7.345337288445021
Ga 10.63106590182992 6.2065977193385 7.871479390484377
Ga 8.227608414977327 6.353253957855335 7.044926462973202
Ga 9.404346490699808 8.764876966092789 7.6417453008092915
Ga 9.657797437870414 9.204053860684656 10.608003096885437
Ga 8.02396043079828 7.339110636484596 9.656835118596307
Ga 6.358961569159346 8.179196365773171 7.340079005612505
Ga 7.726203041194328 10.52145535519995 11.90497654273535
