15
Energy = -35.90574704 eV
Ga 5.774798870235879 9.68064919769233 5.879108451929209
Ga 7.85407708178415 8.286824877081113 7.275511279620888
Ga 5.460733479819816 7.185926502315927 6.631432900397278
Ga 6.044829404989029 8.261715486964848 3.69612537870394
Ga 8.51820766877211 9.463209569253436 4.787033928710618
Ga 9.568000875972663 5.900975546848418 7.335547294065161
Ga 8.005098363674696 6.764865919706117 5.024032313162495
Ga 7.090358050640182 6.028696711277536 8.564940278179561
Ga 3.237778731518665 6.890913878195808 4.77355447977403
Ga 4.185396089593015 5.4347781115143645 8.210641814460711
Ga 7.090990624164117 4.596393009779435 6.297866695039774
Ga 5.6536337398557235 5.722609243161128 4.1480773124689145
Ga 4.258186844041759 4.248022618015714 5.868508420101912
Ga 5.983747148023545 3.700372896595541 9.117887547702788
Ga 5.783002753114661 2.3324924251525947 6.886237149126543
