15
Energy = -35.60308038 eV
Ga 8.477444882776995 5.5070582751576 3.188169345439334
Ga 7.4619574939079945 3.0985708217860934 3.8834004042875314
Ga 6.0167286586333715 5.136098769842592 4.647705908026016
Ga 10.065639386734162 4.356171406430178 5.3230360446527385
Ga 8.322184685161767 6.369540508625699 5.745882293786042
Ga 6.052441684801766 7.748287700686043 5.5194401365117125
Ga 7.7474965205910955 3.5972581545776565 6.45355199876884
Ga 5.716541438398894 5.054303807293893 7.348921910765786
Ga 3.6453015119785412 8.984971049401377 5.315116158758071
Ga 8.379397162160112 5.3296087083806425 8.488927045060041
Ga 6.852537148517608 7.39345111157558 8.091342759667034
Ga 4.015210822692707 6.873070012582682 8.451091988073625
Ga 1.9766592982001459 8.404851958583684 7.496578776255724
Ga 3.7343037303690028 6.376078694918312 5.900100281341871
Ga 5.006277473093432 9.250900089439039 7.637393191104792
