15
Energy = -35.39889273 eV
Ga 7.028702691528411 6.993327906937208 2.027015958876941
Ga 4.950152684818559 6.61125379495831 3.6295867780157183
Ga 7.81956977171391 5.014106368118414 3.589107900126767
Ga 5.867183770773558 4.849920257646369 5.391922069447787
Ga 7.576424560549163 7.953763636871 4.5958427376075655
Ga 8.422032167818134 5.969551041987304 5.9621171206274655
Ga 5.489651229631121 7.604667977204056 6.014642647629967
Ga 6.343481506225746 5.640626566959247 7.892901795863083
Ga 8.592487494962786 9.655223394584016 8.739942741957579
Ga 6.063866272888149 8.375422942780766 8.437013273947215
Ga 8.852553939952184 6.8387986148659845 8.36610199080854
Ga 9.710346969365043 8.055905367436095 10.482731024686977
Ga 6.709699720313323 9.71372861094715 10.562152374412635
Ga 7.091975866879746 6.854112571652589 10.35994253633617
Ga 7.985661783441854 8.373381377912358 12.45276948051732
