18
Energy = -44.08112537 eV
Ga 9.631982192766865 7.6599754379872405 7.380207190895714
Ga 6.846504634633349 10.260938259842638 6.1011123029190575
Ga 6.970372301636274 4.9064480242005555 5.960355013796249
Ga 8.545505402633928 9.999190715561777 8.037425100548802
Ga 9.248117333592976 6.410888767874926 4.953109370342039
Ga 3.9165881970577234 10.589414260825496 5.7848341137142585
Ga 9.470384178949802 4.8276360214251195 7.160578290447465
Ga 7.790812403147708 5.915368884597832 9.016500720321087
Ga 6.945421791961973 6.836808791815237 3.9676568900823854
Ga 7.023857128524964 7.599921999309625 6.59256706971155
Ga 5.371857114631222 8.824717017613477 4.202959404475861
Ga 8.69123142353507 3.490320381217828 9.292181503016803
Ga 5.039697997843391 6.251187337884914 8.021220732983855
Ga 6.015172141518279 3.897013249155917 8.357715206007205
Ga 6.897515825258617 8.266271475726843 9.336207811498605
Ga 5.031243245274587 9.280094313770341 7.9445722199404605
Ga 7.612450794579547 2.444468809167811 6.814054835899481
Ga 4.005914484077366 7.5909129725851825 6.120534917618649
