23
Energy = -56.49990523 eV
Ga 10.265744338887936 8.204976259183242 6.671225808373258
Ga 12.926837422205663 8.070495767745962 7.293550335168799
Ga 12.15749935607814 6.812518224077179 4.945370576189654
Ga 7.2612731253699225 5.4774692738139885 4.396908452473819
Ga 11.214329567788512 6.271108270228653 8.368373898114049
Ga 5.416405551724572 7.058862312056576 5.2097332376490035
Ga 9.534233726829303 6.530942595366286 4.734232781608774
Ga 11.201481709814153 4.7407887053164135 6.2543598468634105
Ga 6.438439555209533 4.628661907551916 7.10543414184062
Ga 6.403482957106866 2.564710309652993 5.25748731575457
Ga 4.810952992041352 4.469605893538577 4.389606575006989
Ga 8.853080896517596 3.5458261363154207 5.38517348783632
Ga 5.615667897105476 6.966366381383755 8.089550629907144
Ga 1.3421155741138757 8.85633579898808 7.579940714648616
Ga 3.827367316760243 5.162627880839852 6.742449474876851
Ga 8.804820314353782 5.585375496319718 7.419474903222622
Ga 7.683807389319886 7.956743720842424 6.731076546550567
Ga 1.8267483838581398 8.576759156878925 10.24413737807451
Ga 3.603123805501174 8.368826688481617 6.298465160636996
Ga 5.948895155498129 9.82995787001949 7.0209773216933975
Ga 4.416330348200749 8.778043667290019 9.45449420020905
Ga 2.774993094532459 6.701032132968765 8.450888574763889
Ga 3.4377438154857614 10.658968562718604 7.8436783816723565
