22
Energy = -55.01297419 eV
Ga 10.706081472647869 7.644755349483733 7.266975312312751
Ga 12.28551456021624 5.408528275978415 8.191892087213814
Ga 10.733200732669506 5.1618845897024555 6.075733899966499
Ga 8.585244393901844 5.105618973755945 4.686267197984121
Ga 6.588952988034652 9.063463126221091 4.451642703975253
Ga 9.051163849056186 3.8054304482030963 8.079822041855937
Ga 6.4597109133053 6.416438946797473 5.225115519326493
Ga 8.970465503142316 8.038469792654736 5.160912925980719
Ga 8.173208696713266 6.327177290046007 7.258313527277311
Ga 6.864170431279765 3.9802545763535226 6.527387738821651
Ga 4.244977309431869 7.486591096804023 4.777301917324246
Ga 9.951435885485878 6.035925141143395 9.444109771905765
Ga 4.58493893104577 10.302278744954554 5.655375134375594
Ga 8.734982938191905 8.91528488312949 8.341650059280594
Ga 4.303138155107803 5.032124112326449 6.292165512491498
Ga 2.1122635379766637 9.015906921559038 5.443326078705931
Ga 7.57222979552361 6.988948849114853 9.88849199702729
Ga 5.537729870047308 6.299580830237683 8.461688205417373
Ga 6.503934515842355 8.707322383183758 7.215095407238261
Ga 2.074162412806645 6.413369130539833 5.998972372846066
Ga 3.9615120933784738 8.251100922299658 7.522734143777271
Ga 2.6039589237759366 6.214760013839828 8.64789757152613
