23
Energy = -57.53553189 eV
Ga 10.374169385246649 7.237130001497807 6.951810551179781
Ga 9.734789355533092 4.048527612245037 10.032776507247625
Ga 9.355344283308778 6.626158264647119 9.330402186386488
Ga 10.86902125201304 6.909744090700663 4.290178300949404
Ga 7.035401949798363 4.8983733516325465 10.13605517167588
Ga 7.64665600149041 7.529576373990114 7.291371746984066
Ga 6.82923634882708 7.6993645371113075 9.87372769863594
Ga 8.673191334112142 6.796085058844891 2.752343076051225
Ga 8.889849931945724 8.639795416915216 5.019015476960756
Ga 8.460457484289508 5.621527762219684 5.219011781029232
Ga 8.30029324572993 4.663811273075414 7.6465793765055405
Ga 6.778359165586809 9.672001900905018 6.000470339777423
Ga 6.381842813508703 3.898618126266661 5.966086048637515
Ga 5.8390178039097265 6.397671543022533 5.369751616008706
Ga 4.5151055206023525 10.831328952033552 6.578732801955709
Ga 5.67049536297449 3.1308960515839446 8.538089219047526
Ga 5.574253853375482 5.906629297349427 8.151014564145221
Ga 5.047674718344155 8.606541691174083 8.076345093886852
Ga 3.6954312703783296 4.286010679185929 7.021870443682691
Ga 6.6229581502079204 8.232643630335922 3.614412320833407
Ga 4.342939140648665 8.699823672115325 4.897470683991151
Ga 3.3681415714381644 6.792154861155496 6.500820161847967
Ga 2.351570372597044 9.25053980760111 7.043590995592315
