22
Energy = -55.07604414 eV
Ga 8.716082814057403 11.847548448969183 7.147213774057787
Ga 6.721131516114505 10.272205367823647 8.241158768643325
Ga 7.93140769652954 10.057297273495521 5.1229960959090635
Ga 5.336695995894281 10.272455421940517 5.970686955078657
Ga 9.062653550597155 9.06603945991497 7.594799637932857
Ga 7.157759428520468 7.778901215972217 8.997893272012925
Ga 4.667446056114732 7.922872766768343 7.559780743625784
Ga 6.966145790736014 7.880619735494855 6.112623744315326
Ga 5.203630772782104 6.0502771266234445 9.764051593634491
Ga 5.176852860507766 5.9936779248028005 5.708659549926883
Ga 10.177544777098786 7.652494600739541 5.557216675265464
Ga 8.131920444217489 3.70592390822461 7.418787910170548
Ga 6.295700189240503 3.2958420291359087 10.244457032456024
Ga 10.66942482750283 10.36429752135402 5.675222301324338
Ga 8.999058190577598 6.347496898300652 7.499925798753323
Ga 8.386048164121839 7.856418501673343 3.5852149888170177
Ga 7.96439693690901 5.256994260481285 9.77959446460558
Ga 7.765932381434111 5.483874586258628 5.0718934408395295
Ga 5.698519975266453 4.42107872363274 7.825480001222905
Ga 6.3805685124011715 3.1732639093578574 5.26804312706839
Ga 3.075598501284615 5.775410849121279 7.963587392314262
Ga 3.754766391958592 3.760301896356971 6.138958391838478
