25
Energy = -63.70009806 eV
Ga 4.151949279021022 8.672811793417948 3.399332044095703
Ga 6.3582159408872725 7.143329742876332 3.9661348779248247
Ga 5.990962838202884 4.142774309859798 3.913908432265938
Ga 6.585782909108481 9.95853572726454 3.5150349417137043
Ga 4.01489467450398 5.878220764034046 4.154837306782834
Ga 7.858037018809005 2.6090035041821675 5.161947526760573
Ga 5.4068683667284505 3.588915648586134 6.619205605428205
Ga 8.117539778697545 10.423680560361372 6.61593129127417
Ga 8.16672869491938 5.429792082157941 4.858808907616583
Ga 7.980255504938933 7.694260177017072 6.932625942494914
Ga 8.65863533288105 8.427721515000101 4.397200951971532
Ga 3.5711485765048674 3.047101461464329 4.573480531279807
Ga 3.079922880663327 5.103709413803385 6.524318903438427
Ga 10.368539054166826 6.777173260737118 5.624958600349291
Ga 4.5017413251031035 5.167052014994309 8.891486778878768
Ga 3.3188471367364287 7.997777174785256 5.894478717776964
Ga 9.697949129265242 6.0708502944734555 8.111076316121846
Ga 5.726425743315026 9.175505241789082 5.96493841185014
Ga 7.8861846816439245 4.3125375918904805 7.267323745469908
Ga 5.978082078383556 8.852945661082154 8.58495539323201
Ga 5.67036499298486 6.373922942533973 6.6056847529666785
Ga 3.5043652532870873 7.538797750238756 8.480816826287693
Ga 6.958484374000426 6.456326296550412 9.242508121588994
Ga 6.373836413999538 3.370155395980647 9.364084947439174
Ga 8.736881502231869 4.449743155903448 9.997563605976632
