20
Energy = -49.83895735 eV
Ga 8.598419851362154 2.245991749760979 5.479254475002513
Ga 6.786224467656892 1.633468274256095 3.6442033414855937
Ga 2.76208101807325 9.434532068315045 5.559763132300572
Ga 2.1912787772592845 6.849374138345449 5.663063142654682
Ga 5.429374887416508 3.8667376791651376 3.4699402519987625
Ga 6.765447193582381 6.607373892728565 3.4264564785631393
Ga 5.216931098347258 10.4476367127792 5.4081752472896865
Ga 5.995339006484681 3.055662264763935 5.984836197875815
Ga 8.11916167479312 4.585942539480547 4.332932257698862
Ga 8.064614581426381 6.322279216651429 6.397159686160064
Ga 4.619475912746836 7.908892117988835 4.237012951822643
Ga 3.4720456137727678 5.426223831131686 3.8852995370607384
Ga 5.508457966587778 5.696715027356523 5.749418090830559
Ga 7.152271988456637 8.56795631426483 5.442419886567722
Ga 8.165744476320677 3.836646166758251 7.541197439980106
Ga 3.5199782294912447 5.719720564256065 7.672961576281547
Ga 8.274018759443283 5.5565997312230735 9.588995805110775
Ga 6.365126042051741 7.067770120418561 8.572636690733322
Ga 5.638653683532082 4.3581299810371315 8.2477894566625
Ga 4.686840088573517 8.143832926697614 7.027969671299018
