23
Energy = -57.65486005 eV
Ga 9.710224066511612 9.245915119283714 11.09099597025156
Ga 10.687945280495029 11.221919185741365 6.613617184224488
Ga 12.433737165181197 9.832883967082118 8.793794594996315
Ga 9.950565987567504 11.16943875519349 9.24259829805201
Ga 9.13474262679759 9.105785770255466 5.623584450698184
Ga 9.413698479820866 6.4733139359852405 9.683428371106649
Ga 11.735820504973844 6.3728153705481105 7.7375192478631645
Ga 11.846637061303477 8.654358828217308 6.232225037237014
Ga 11.804756162715506 7.682728596191172 10.235130784158736
Ga 9.249740128692205 6.516030552050011 6.687522415617599
Ga 6.622542551138677 9.406443661093832 4.781462655676403
Ga 9.969015344342052 8.675220879988318 8.23147327994273
Ga 7.8003064478452 10.47630785596084 7.59875350299719
Ga 7.038376415525093 6.017385684584034 10.815651005100953
Ga 7.568151314856151 8.64983421428864 9.625179888725102
Ga 5.268011192576778 9.887372157899236 7.860766512461823
Ga 6.873199124203577 7.73694458286949 6.860086043615089
Ga 4.40739886889256 5.840747712056945 11.107980069972818
Ga 7.244157623972368 5.380832246682185 8.164815070039733
Ga 4.335389562311744 8.474733302779136 5.569016991895605
Ga 5.100220228040708 7.7279268584974 9.377904965868082
Ga 4.585281151757995 6.349447525363721 7.0211188624245935
Ga 4.8832970126494235 4.478412318230901 8.85774709732215
