21
Energy = -51.60192906 eV
Ga 3.1946595297802345 9.317802478053533 3.405159248264794
Ga 5.667881915712835 10.184884146585597 3.0867877181571672
Ga 5.397017754938352 11.293122649696137 5.487516837317456
Ga 5.544646104484287 8.062091645404633 4.568169817663894
Ga 6.571836941372306 9.430924505711365 6.862512535282519
Ga 2.895395568069971 7.02421045173931 4.673302091460045
Ga 5.900320595227196 5.7194312114393036 5.733236441655721
Ga 4.356351600949871 7.663752561375306 7.2257891043906834
Ga 3.3632947611146102 9.775053080202415 6.0828263762076995
Ga 3.2885376183471884 5.293270948206994 6.506552191024715
Ga 8.058684332289497 7.489095192630279 5.487946091524471
Ga 4.830522323331125 5.63160148483797 9.057568695256162
Ga 6.693673550021025 3.1382987842723438 4.957330273874468
Ga 4.954751661935271 3.546147991322121 7.196510843611375
Ga 8.630880124486332 4.968824108133656 5.541524009036663
Ga 6.91589954588521 7.195823897655833 8.088922737169677
Ga 9.084823535303341 2.2176670383370296 4.610453918739644
Ga 7.404483987524335 4.6855395779106885 8.07943772651029
Ga 6.908437202433569 1.8556491450739878 7.36741511607314
Ga 9.359062306272511 3.150345350240461 7.392757162513215
Ga 9.16690324013021 0.520052649965124 6.769479690619624
