23
Energy = -56.7679923 eV
Ga 12.338875493105435 5.397247213094567 7.967795723745036
Ga 11.942303562747176 7.098593452332731 5.863929885850308
Ga 9.459097407299275 7.633122799200961 5.158070294131721
Ga 10.775642885220526 7.723205655045826 8.193903921991149
Ga 9.983528451574601 5.229614925339434 6.3599549729108755
Ga 8.907584362197332 7.561350909351829 10.333702805370542
Ga 8.897428225158935 9.293270727294825 7.173536708024563
Ga 9.617012415457348 5.429113706988739 9.121389315701471
Ga 6.856555817102953 8.040720061904342 5.406099845612914
Ga 7.431671419920779 5.4891056751675595 5.632873987481948
Ga 9.688576525230253 9.999947037391768 9.650704096111127
Ga 8.609374956976126 11.9183919055772 11.049953276061748
Ga 9.39721577687295 3.038130193108802 7.928544245954788
Ga 7.495148493286202 7.156030550116319 8.05300903196579
Ga 8.467328856049258 3.0371989897320497 5.354155462602201
Ga 7.194487601491741 4.536280471078872 8.14721034611515
Ga 6.746965671487295 9.148507978196143 9.960222442844683
Ga 7.581463520963328 11.302775253816472 8.26776063035939
Ga 6.0632877555704034 11.754615371801295 10.535363144106794
Ga 5.7329174588728105 9.406872956812075 7.255294750163144
Ga 4.282539366060076 9.814765119303091 9.43851460079067
Ga 5.1773885696590565 12.046157730176871 7.726597702796044
Ga 3.4371527910025836 12.384630692763137 9.920061434340754
