23
Energy = -55.0611004 eV
Ga 12.981405743286402 9.29182692736576 11.368931231954454
Ga 11.967008166966677 9.705752143253589 8.982025645929738
Ga 11.095964747587013 7.79899033032401 12.37495695895508
Ga 10.440286907125014 7.714433241621695 9.858960007663667
Ga 10.843474840071382 10.763071179096038 12.016627964436998
Ga 10.247645264913185 5.2919416722109975 11.9468244613167
Ga 8.688018331344946 9.268772277176739 12.218362549482707
Ga 9.516983803572545 10.380940643933728 9.738382726219534
Ga 7.4123493845007165 8.26805230046501 7.264385193075345
Ga 7.300165564226779 5.5607467695978405 7.786222123225985
Ga 8.829879954317152 5.6115391255597125 9.77803474792662
Ga 8.524449749519526 7.122581623429635 5.240206915174835
Ga 7.948619876748395 6.886659755900991 11.994473679937679
Ga 7.7194109356452625 8.37737284668042 9.725683228013034
Ga 5.11121883867304 6.486554976490648 6.680832967075909
Ga 6.870342398508286 4.9346662499386245 5.2716316448077984
Ga 5.933096267761432 8.612766385323376 5.169134344766351
Ga 3.389570453819704 7.803005771420247 5.133042008549844
Ga 4.707726279461383 8.634414497895886 2.7831460537966395
Ga 4.397246245640924 5.431461637215395 4.057565604474354
Ga 6.482781325813267 6.797402378315887 3.2412516345966256
Ga 2.359279859732367 6.653889053048144 3.02714222524654
Ga 2.25288198130491 9.055175892867155 1.850052982105438
