25
Energy = -63.1869857 eV
Ga 4.62324832696737 9.641982220149863 4.919518619442359
Ga 5.602511877453787 7.01328293199045 4.434199934128323
Ga 8.385409027545697 3.4459155452867716 5.869315952977524
Ga 8.429836521754442 5.762557760331753 3.932277934285923
Ga 4.014146838315344 2.7119584673524932 4.259732998454377
Ga 6.116734786728539 4.526416104810037 5.031284576796258
Ga 6.017408312360727 8.351320945697374 6.85749894284371
Ga 3.2742700154250985 5.2983756148889904 4.833462841310816
Ga 10.119336446724285 4.973960010403402 6.936457313721373
Ga 6.954458360030034 10.793488656854127 5.772535300260907
Ga 7.850577210669126 8.586595315905035 4.683852498152041
Ga 6.258532414510618 1.7030300546619437 5.912626467188217
Ga 4.347487982054801 3.544614972384736 6.804257247558655
Ga 2.5403099930725217 7.793284667968387 4.051449473403685
Ga 7.593945578891294 6.2104434873491225 6.68900824716162
Ga 4.318863316302327 8.416721786999874 9.113981743133658
Ga 9.988328885903599 7.2955674778387944 5.822728308429039
Ga 3.4932731727492587 7.577488732214533 6.659495199988486
Ga 10.185246284850471 7.196699591522988 8.942060120576272
Ga 6.356095152740545 10.466552275937307 8.547877433849637
Ga 6.689322310075098 3.5031170737497526 8.125286898564802
Ga 8.560013704388302 8.97401434862232 7.555714631057935
Ga 5.137176426898387 5.841566891942238 7.847601795853325
Ga 8.41698498207356 5.105536982850802 9.142831558714255
Ga 6.8107601219232015 7.349786132694612 9.339222012555043
