23
Energy = -57.79952079 eV
Ga 6.896886227115124 12.700992743025905 11.219760631093118
Ga 11.78606920609043 7.655969790712019 4.552118838696891
Ga 10.124884649382459 11.496763953303125 8.13736752517831
Ga 13.375526526901428 8.154277936642364 6.81237646191609
Ga 11.306076395606713 6.298219897414906 7.019461092672476
Ga 7.473234476523952 11.348677033577038 8.84789183368452
Ga 9.96866338728143 9.423994624175252 10.478412768957353
Ga 9.4790515643232 12.119653652364823 10.67035861997051
Ga 7.590870232187254 9.999852168358755 11.433229137323691
Ga 11.013062889109058 9.63239222157478 6.542746230772866
Ga 11.704913486211478 8.363355994609343 8.943888604546334
Ga 8.679654277816779 9.183715163803065 7.971637916588906
Ga 5.122963041187411 10.845170395407324 10.421977667624825
Ga 5.982109784926454 9.22344542415936 8.322760925128875
Ga 7.468298218591086 7.732314717043509 10.248154620700063
Ga 6.958450480523002 7.237515254937949 6.937034997172601
Ga 9.241905053386215 7.7246588752827 5.773676780836167
Ga 7.393628319986177 5.313223189170136 9.269595125688031
Ga 4.878189788650647 8.237232938235913 10.870145225897485
Ga 4.953852710579568 6.46775008155881 8.804646105638549
Ga 9.601410507592355 6.707593656752829 8.940201171216701
Ga 8.80522527089338 5.105490348059328 6.8374215157955645
Ga 6.072810312740918 4.519935933976378 6.9497536712283114
