25
Energy = -62.85774414 eV
Ga 3.6677576102694576 6.3678076884693935 2.4935262874859756
Ga 6.1521182431593475 6.840033702736236 3.193167599748031
Ga 8.618940527038843 7.82238555963054 3.3636383845987257
Ga 7.816603738810059 5.083714303905411 4.564461754834946
Ga 1.4916897438196695 7.570755121204194 4.899659448071975
Ga 3.3646817049717637 8.847139151708959 3.4212860834753864
Ga 5.670811853868196 9.577203878770352 4.5914124364225675
Ga 4.959987742481074 4.572828176463444 4.8034942642911815
Ga 9.646311901515139 7.193082306712583 5.788307878557423
Ga 6.477685732875931 3.214185950557291 6.350293376907458
Ga 4.2598127017298 7.1835965993432325 5.3261254619694345
Ga 2.4326569721436604 5.084049483085783 4.469829869787402
Ga 9.785276129682874 4.417218187350249 6.1590897559735724
Ga 7.008976919546561 7.632817147757446 5.809672347319172
Ga 2.516168480093516 6.504452944219354 7.264518968180909
Ga 4.975320523035487 8.852544452704338 7.335429114348943
Ga 7.617585218949972 8.074678957323993 8.450629938327289
Ga 8.456041744177098 2.754681198065678 7.9337004940655484
Ga 5.017441602304111 5.630539238717555 7.446188752998564
Ga 11.007228035564408 3.623939902784007 8.553411635953946
Ga 3.851884341218834 7.342462128220708 9.530920397790457
Ga 6.284454237409225 6.177525623955121 9.822535729838446
Ga 9.958472021126655 6.503982390430833 8.365070033312278
Ga 7.587810826022695 5.463031012597371 7.358554720652411
Ga 8.474595831344208 4.765659276444209 9.80538964824672
