25
Energy = -64.31888782 eV
Ga 8.978049881617556 6.845260347554561 5.942597381633049
Ga 5.695264068793309 9.261317538628523 5.942597381633049
Ga 7.538283670661139 8.150190075253363 4.0895213276942055
Ga 8.532269699682946 9.79172875219612 5.942597381633049
Ga 5.925487737050551 2.8829467896021606 5.942597381633049
Ga 8.097742391156117 5.38540582230157 8.113814385071773
Ga 4.975320289570158 7.315981391011883 8.078317816115238
Ga 6.229350351003555 6.143814898926708 5.942597381633049
Ga 4.975320289570158 7.315981391011883 3.8068769471508634
Ga 5.539954499706257 4.317387523173053 8.176835276220679
Ga 6.766993318097629 6.6618976414510716 10.067398900050287
Ga 6.766993318097629 6.6618976414510716 1.8177958632158104
Ga 8.707437148762647 4.022973895371241 5.942597381633049
Ga 3.5017723690765132 7.8574249732418275 5.942597381633049
Ga 5.539954499706257 4.317387523173053 3.7083594870454166
Ga 2.831679567246801 5.662192523715418 3.717979869897215
Ga 7.69085994957429 2.522037207164573 8.030304308636463
Ga 8.097742391156117 5.38540582230157 3.771380378194327
Ga 7.69085994957429 2.522037207164573 3.8548904546296354
Ga 7.538283670661139 8.150190075253363 7.795673435571895
Ga 4.357816246135615 5.564198795616964 1.5666056632660987
Ga 3.8839018398540395 4.535629568098106 5.942597381633049
Ga 1.5141015806889564 6.065255817831631 5.942597381633049
Ga 4.357816246135615 5.564198795616964 10.318589100000002
Ga 2.831679567246801 5.662192523715418 8.167214893368884
