21
Energy = -51.61033967 eV
Ga 11.196060349175651 7.102808787372851 10.015363939354641
Ga 6.131785940879514 6.036676132121353 11.637966811335652
Ga 9.426104691211183 7.155195497205691 7.815633850971673
Ga 6.7604541153392645 6.5217937322926245 7.70144353419578
Ga 6.721782155237193 4.410312822122667 9.496546793941807
Ga 4.4095888698872665 6.0506062036674155 9.211768006729871
Ga 8.539022966752334 6.243723886139114 10.081287635423045
Ga 8.323553307978186 7.135301351243344 5.4528202456295345
Ga 10.2868621179206 8.785999349090613 11.990904491960835
Ga 6.155546083948903 8.067530932846859 9.856805488277482
Ga 5.790169072669091 8.083697162940155 5.637388399540585
Ga 10.905688913345557 10.769905220863688 10.416344191572367
Ga 7.909574299725474 7.838615928135665 12.225040484701239
Ga 7.1533723018407205 10.42342614565626 5.324657761712507
Ga 11.160457046807666 9.156647974319638 8.283661745737893
Ga 7.298020565884314 9.33867224392275 7.706816154864398
Ga 8.772283367556016 9.281713071813883 3.5376531112851106
Ga 8.712361978708998 9.253274528081366 9.792839643432735
Ga 5.26635451384691 9.75185668385265 3.465275383426502
Ga 6.857933731573482 7.46258040995874 3.1898074056760803
Ga 9.735803483415719 9.4038394665335 6.148522515597282
