24
Energy = -60.58583656 eV
Ga 7.659406335835978 11.602058174171574 13.725655031691025
Ga 9.888570573758086 10.435404904084228 6.413919155665966
Ga 11.435980228195811 10.77926497702566 8.389130364591155
Ga 10.135395997450024 10.167278783513607 13.438312781379988
Ga 8.754924595673854 7.824295807337453 6.361914586713365
Ga 11.185633680087498 8.132594013583605 7.361102561347197
Ga 8.53331978368098 12.380411491187974 8.65560165156131
Ga 10.90244377255468 5.3983091868994 7.446173308240217
Ga 7.217805572432784 10.74314189911853 6.945884816668675
Ga 13.347482558959031 6.5142559149288815 8.225772008452868
Ga 6.546915641067598 7.742836539157827 8.050590062750311
Ga 9.008867712346019 9.433488625830076 9.001143172544829
Ga 8.187180474947697 9.68781687576606 4.348991822538046
Ga 11.15464159741893 6.054847074624732 10.121643424599025
Ga 8.896927821955458 6.653423016142942 8.864359409342663
Ga 6.23892387179181 10.292727704793421 9.33901092260225
Ga 7.820192922717647 8.936096241874052 12.78087649885615
Ga 9.978604409253824 8.079957111560235 11.381320432984552
Ga 6.127077634234273 8.6197014814226 5.677222562136981
Ga 8.481269787755123 11.183180041146501 11.038663191695568
Ga 11.045840874622552 10.637486450462825 10.973975724578734
Ga 5.8560417749788565 10.740214231837694 11.859359737555042
Ga 12.352258261514638 8.472637587981763 9.780386267510526
Ga 7.168760085809899 7.909524025525057 10.56954655894843
