24
Energy = -60.23644567 eV
Ga 9.674946149121043 6.180972418273658 6.096489370118109
Ga 11.726848203930237 7.925473090065267 5.330989739302098
Ga 9.178810208513134 8.243780098073128 4.249911190949529
Ga 11.122298640269985 7.933829179212642 8.20105171934179
Ga 10.183757799311115 3.505609538404771 6.997733603948946
Ga 12.198352844008394 5.514882601891364 6.900502096884293
Ga 7.271254411102254 7.064886527444289 5.932926764941359
Ga 10.259690175766238 5.535740113837281 8.946998812674195
Ga 9.577855217971065 9.301525131938856 6.616755843477026
Ga 8.894480532140374 10.858807654753898 8.668793465802468
Ga 7.747549570740487 4.535472548893265 7.221139397832045
Ga 8.424826419735458 7.668909729614743 8.673918368241168
Ga 7.943668290159107 5.25642367508116 10.026136551537586
Ga 5.968813312784336 6.336831490215923 8.10275179078726
Ga 6.520949016864948 8.998545550166963 4.069311860866816
Ga 7.004971108704489 9.905596071162206 6.726110473586663
Ga 5.393361342340004 4.64735519626316 10.308692865374672
Ga 3.835015359890526 6.905214545204827 9.998269295518474
Ga 6.749274342468573 9.656498439349004 9.549788643530123
Ga 6.43990540196801 7.433567528024452 10.697519004377396
Ga 4.791352455113513 7.59874520672814 5.715181498690062
Ga 4.650003624486455 10.5324808030004 5.97826841591137
Ga 4.597911722413377 8.68600862444824 8.217154647226346
Ga 2.427505679908822 8.939868789364262 6.384272077223598
