25
Energy = -63.1538172 eV
Ga 5.285533818506566 3.0701114844005346 1.7206628739428769
Ga 7.214870533691127 6.597606107619217 1.9888620453166772
Ga 9.419887730069535 6.344295506548406 3.858154476825249
Ga 4.471670650706841 3.3990610710896627 4.243238444714539
Ga 4.564610924647327 5.5554345482971135 2.306206675009343
Ga 7.524781588963853 8.203537663440969 4.4640185714978875
Ga 4.7886802410355145 9.864552823249753 5.276914166578844
Ga 5.18339534498 7.993702960072688 3.325171544933767
Ga 4.071503114709847 6.118880488665171 4.93822690780656
Ga 5.603528680056844 7.678368679817852 6.471870279779117
Ga 6.789575101754136 4.973433110523635 4.1302166614233835
Ga 3.5380325675674498 4.260011793735678 6.8637581914203025
Ga 8.92327514813779 4.55394730323877 5.828980525789238
Ga 3.117480458659317 6.933827639871091 7.668777272725676
Ga 8.401364755164964 7.117354245828479 6.76445219526461
Ga 6.229793111569858 5.239083197280869 6.750174047652041
Ga 7.463271702880723 9.906843312808054 6.526924184327638
Ga 5.106053743373576 3.697831797890961 8.932351600561502
Ga 5.762766689828273 2.48119073083367 6.323688756815923
Ga 7.734818847488463 3.3230260956277826 7.93399397483251
Ga 6.842611074706215 8.589174595671421 8.831521717555514
Ga 4.274573673143005 9.437929844272949 8.175751710317588
Ga 5.290093224736874 6.413992306882032 9.128507224322481
Ga 8.133634238550622 5.911725151653692 9.024734433069996
Ga 6.718913930497293 4.789798436105838 10.977562412942481
