20
Energy = -49.95457446 eV
Ga 3.0439134141466755 6.44049425202448 2.249939399922514
Ga 4.522527290668482 5.192016645814937 4.314904255790025
Ga 8.288531770408005 7.840127283765815 3.295345308530665
Ga 5.7343691995427735 7.15511559907299 2.7049180294886317
Ga 2.107022187822592 6.2397194159764835 5.068752851178268
Ga 8.983752021860518 6.86108975967335 5.626277836035085
Ga 6.397900388757533 7.271075437585935 5.423144653928542
Ga 7.230113810827322 5.057804029092413 3.4131668973701133
Ga 4.029305036110045 8.150107452792891 4.481288971965674
Ga 6.390654676164039 4.4201027249595395 5.917286431736796
Ga 8.118342851111656 3.1538084451729356 7.385025184669258
Ga 8.974386888851042 4.056168748560941 5.060218971524027
Ga 1.9468107609007201 6.323557975619926 7.781100840929652
Ga 4.192699267607877 7.552517381174956 6.990165955087073
Ga 3.8364653078112445 4.490987878642568 6.80936371881741
Ga 7.3396999627958195 8.504921565694987 7.689358196930248
Ga 8.61798568609708 5.8307144993746265 7.9179195105548565
Ga 5.604095180508416 3.3018951542007793 8.339234252420814
Ga 5.927942724058864 6.152141216833972 8.230877516452411
Ga 7.438421065395843 4.7305740254118955 10.026650708114019
