22
Energy = -55.26559222 eV
Ga 10.351043409749371 5.527141445873505 6.81711832987361
Ga 10.14260202796052 5.169833396833946 9.441138681799014
Ga 11.067953355389388 7.207782853039216 11.100957755116859
Ga 10.363264998735618 5.892852231103921 4.06194562504689
Ga 9.13869720007602 9.071216420210645 10.720675937961207
Ga 9.210385451917452 7.866596042895035 6.157431327274247
Ga 7.813920022792917 7.323026029213567 3.9857821452329283
Ga 8.048963524557879 4.981173765249735 5.537428985514593
Ga 8.169032907816733 6.50598877233416 10.521836451518006
Ga 7.716492545316753 6.118873113493136 7.9634454844414435
Ga 10.419502789186826 7.836128227136483 8.511285145676561
Ga 7.8837297334352305 8.940742447733689 8.285828728700626
Ga 6.150694901665351 5.202960389398661 3.2699402910501902
Ga 5.758976710796315 6.094762813434985 6.070509242780661
Ga 5.935480401347093 7.665867804379182 10.56303847817915
Ga 6.736602304045061 8.875425519252296 5.923541836791923
Ga 4.990167377889964 7.700093439226973 4.092779225130931
Ga 5.096210953321658 7.521513705198415 8.075607819722489
Ga 6.773428215480723 10.220023484318268 10.338422634549024
Ga 5.729687462713816 10.579013747011192 7.862931807143295
Ga 4.04205391352484 9.293982966999835 6.093021199902391
Ga 3.9289223428610143 9.377836279925507 9.72107281453979
