21
Energy = -51.5069703 eV
Ga 12.621874135744678 4.976682414812196 5.426080608141289
Ga 12.779308129500446 7.167901837814159 7.214361536148311
Ga 10.260740626654112 7.84545495962113 7.854205275780775
Ga 11.236236761129405 8.01885143164212 5.2658108876044345
Ga 10.87145666909666 5.226374614816919 7.57021154643921
Ga 9.996833770827687 5.724251672988505 5.074600602498799
Ga 8.552249097471606 8.057494688286035 5.50144798532593
Ga 8.331178267177677 5.714229087052626 7.443060660171094
Ga 6.343211566310326 6.735645069208924 5.655534807386961
Ga 7.910969836984958 8.860082952598134 8.114657107002873
Ga 5.49923253340493 9.809754839284693 8.323042288465002
Ga 6.084747153930667 7.0004559947363845 8.50493679291106
Ga 6.3259706836810645 9.624355444580626 5.675483023913471
Ga 3.5997100949674965 8.433616786137124 9.474022837531594
Ga 6.122472089938582 4.381423499156959 7.2940409688012595
Ga 4.181727749382544 8.09866489046451 6.555866662632997
Ga 3.9216917707003693 5.630136600224078 8.170390064742453
Ga 4.304110466036562 5.221320123260463 5.351770850646902
Ga 1.7538618197459603 7.190736438646843 8.084316601776043
Ga 2.1598773341624327 6.812742877561566 5.491872167319321
Ga 1.959303239322413 4.286332120812645 6.742165175249544
