23
Energy = -48.87146417 eV
Ga 12.748196367828095 9.321091282987233 8.409782653207705
Ga 12.085100708215284 6.839504561639338 7.056696738561351
Ga 10.20551279669593 8.155885275561282 5.5244002544820265
Ga 10.305395502006732 9.269777557880015 9.442141488123267
Ga 11.092687789271316 6.485277013823405 9.376394712725613
Ga 9.42469516986498 5.622492778319732 4.783398781153917
Ga 8.725729149179546 5.631590201443348 9.005223825280316
Ga 6.407985493935772 4.854109492382587 10.97973246524449
Ga 8.741074434282138 8.994850155276742 7.4237577361507485
Ga 6.263416321940723 6.163682719843309 5.015969344626432
Ga 5.818642528640491 4.35553384763621 8.195737239995971
Ga 6.9492963323447325 4.256782865035878 2.8956715430010873
Ga 6.635075700075735 7.294702104900747 7.73677867441734
Ga 8.029065142828788 6.737014143497739 2.4616032792887697
Ga 6.435318020986603 8.531973765425878 10.128636233319076
Ga 4.781179448150977 6.79568617907299 11.388293044554
Ga 3.597898380893802 8.15099639703309 7.3404423472157125
Ga 5.419186865035394 7.5828703586914274 1.2165059062304453
Ga 4.485763423307539 10.077583278436217 9.378333414344471
Ga 3.144413255095376 6.590922100952939 9.452228281659206
Ga 4.665430140860204 4.932151832154826 1.6398494844937215
Ga 3.978239861979097 6.618418851318118 3.66580163604349
Ga 2.130757408916456 9.273647464205498 10.27188392650279
