25
Energy = -62.99530411 eV
Ga 8.504483659016255 8.503483991450013 2.3156144765782036
Ga 9.719982415381871 6.840160447341818 4.243267192596129
Ga 5.727267568503289 7.126348150024565 6.255801405472156
Ga 6.282421236675228 9.657281683016132 3.434836138336704
Ga 8.480503914679478 9.056964599570588 5.075769101230929
Ga 3.772676610182429 8.79708577449393 7.117843933913211
Ga 6.744837390161214 6.922521357313457 3.9160088363564842
Ga 6.020948055022044 9.872264409316411 6.121192968932766
Ga 1.9836783333534531 7.964483186445398 9.063788724207132
Ga 7.780249962611536 4.86053920819199 5.106756846374373
Ga 3.7787669642749218 10.267421806732852 9.53323762336707
Ga 4.21999662349996 6.523628862041736 8.542020569844928
Ga 6.058503367174869 9.038435966688581 8.914933919569503
Ga 4.460913679700205 8.089205941174573 10.862267388083856
Ga 8.364202222279692 9.608327152588751 7.659202981721234
Ga 10.581609275843714 5.069160798916526 6.039012751992498
Ga 8.466506550928074 7.669500197660999 9.437818527574581
Ga 6.474924289858072 6.422179050799074 10.74250744059984
Ga 8.497657459771242 3.848880089395278 7.445681082315814
Ga 8.395430016631307 6.933016402323238 6.737836180341906
Ga 6.615266816258864 5.443742030477191 8.200870617623472
Ga 10.34421826654171 6.183685081776802 8.462145887114058
Ga 10.8057473236583 8.50347457271204 6.902588709628108
Ga 8.596097383444777 4.792856374374376 10.314099008646949
Ga 10.742410861142243 3.4707011871644946 8.965479878841348
