22
Energy = -54.53559543 eV
Ga 11.718177821813548 7.739800959224529 7.558435782525443
Ga 9.858389566426581 5.75096482406041 4.415758562782767
Ga 11.614747687991267 8.130695217494118 4.5709254416301
Ga 10.802902185449964 5.469055154446212 6.818010180094079
Ga 11.07151089586157 10.196889815790717 6.580640800704349
Ga 9.31088397488472 7.970877211846654 5.901851666376461
Ga 10.271666256502616 11.79108788117207 8.616789696954301
Ga 9.49014577212246 8.975254145746115 8.481860647123879
Ga 8.728526805042314 6.308307974743299 8.19915588722298
Ga 8.520705141758926 10.577141097894351 5.73670306686078
Ga 7.1391582917464405 5.198977583448298 10.117007046630443
Ga 7.256529575016553 8.359720433576912 9.610160653630063
Ga 5.868023309341964 6.130695685762305 7.858542443057222
Ga 6.8969210444570095 8.487487125469064 6.614195132488549
Ga 6.405239264218344 7.108265796485495 11.735520470776274
Ga 7.4905670622708 5.857518003185311 5.680333911312478
Ga 4.484629802978082 5.105203725765733 9.852568448011011
Ga 7.716368623974063 11.02169514165023 8.452838141625806
Ga 4.65995446992715 7.882624748622592 9.711182625788464
Ga 5.352394192192816 9.997212896648712 8.094370212567261
Ga 4.142483180745897 7.97856027233445 6.641394944985651
Ga 3.6658052256435845 6.5724147875949965 12.000916652378649
