20
Energy = -48.58976638 eV
Ga 9.855236723531823 6.600348966654352 3.9373865514048028
Ga 8.21129686881738 7.765979119354006 5.492282655773654
Ga 10.471090819435332 6.7949518111704945 6.580200494369508
Ga 11.20122940168755 4.321609958282588 3.248248533221703
Ga 9.76403608144406 4.337138311140112 5.658582027680311
Ga 9.148878979201507 7.785606632350973 8.56149963229673
Ga 8.53776928049381 4.120272943906578 3.024363559334234
Ga 6.9282333231432975 8.930323682454624 7.4235928895134835
Ga 5.502991519474192 7.618402364279884 5.293435555069928
Ga 8.26587131863507 5.2343477215393355 7.476568240099988
Ga 5.7845630471559195 7.2131090521307915 11.698286184298256
Ga 7.283171591114739 6.020663465749322 9.761061833402108
Ga 7.167092142767048 5.28274238807126 4.899656012284557
Ga 5.734732205259298 5.871020814945674 7.367999421613558
Ga 7.354477500257961 8.915505758833685 10.123666886159382
Ga 5.009563468023081 7.795606766274345 9.069501974072574
Ga 4.439452082046709 9.509034794881947 6.7877885271608065
Ga 3.3813624229080865 6.6834996217455505 6.773930085212162
Ga 2.5165456000373045 8.467968138926473 8.668880612943685
Ga 1.5609224659677057 8.890392414692904 6.249547239881483
