25
Energy = -63.17787449 eV
Ga 9.504361730293311 4.441637785970268 3.7465271761251433
Ga 6.857418517316448 4.527249988919884 3.3047352644314056
Ga 6.664473035362457 8.882418521129182 3.4627469582593506
Ga 8.310888194078865 6.915699398223559 3.63090457698081
Ga 5.6457647257593 6.678667139979898 4.792059045767985
Ga 10.114239770285886 6.101950921768274 6.011428716308678
Ga 6.8789794754277 2.2920448908763764 4.747997339608681
Ga 8.027028239672417 8.005169838302775 6.012428703905521
Ga 4.266667907843761 8.115999688002878 6.900205314969564
Ga 3.094571558184019 5.98302090484 5.73348754969276
Ga 5.996924865846651 9.75960584184422 5.82380355345101
Ga 9.316503128284147 2.821592233466058 5.816658653913093
Ga 7.543870520606226 4.856525828711971 6.0485525284959385
Ga 5.848006100477843 10.871730488207207 8.300979242062013
Ga 8.158155022992874 5.8234936082708515 8.339024445773664
Ga 4.893518186072465 4.053041208345252 5.565396285356416
Ga 6.590543423080554 8.063066102557341 8.22665852081111
Ga 2.8892516652307814 6.248480338034464 8.559868021317078
Ga 9.962148079437833 7.940193856318818 7.938627067604831
Ga 8.494312679254568 10.134321813113745 8.026654889993093
Ga 5.444696759339619 5.568051678412259 7.7184978930615324
Ga 8.39240839783699 7.699218861033437 10.316304280815006
Ga 4.300716148365748 8.295182694127176 9.729277860659522
Ga 6.500610647270758 9.534420202841174 10.630235238225357
Ga 6.02284793776155 6.106122882785314 10.335847588493321
