20
Energy = -49.96267547 eV
Ga 6.121118903952505 7.044996093681687 6.739587593574527
Ga 6.6911836327283565 8.115682361237347 4.180686326474519
Ga 3.975564712997721 8.371015421353212 5.126971066098463
Ga 6.313761658691319 9.776491286590618 6.337242711720083
Ga 8.692901983889112 7.991668555220182 5.9065112522190795
Ga 7.864033670892143 5.568310719835287 4.797639198518682
Ga 3.523051530036259 7.097866565408849 7.529874435779894
Ga 5.155422261678592 5.976106816256934 4.263370651118052
Ga 8.432423942235584 9.735617431129608 7.920376273051309
Ga 10.677536869040662 7.700344843581639 7.867479911033036
Ga 6.886867553105853 7.989203684064734 9.181713413552478
Ga 2.6197250887068426 5.516764035366316 5.398755445188266
Ga 7.196223511632717 4.426581481182688 7.239826138451138
Ga 10.217013985048581 5.566258975575438 6.034410111363046
Ga 5.491957947708374 5.765875775594727 9.128852402153576
Ga 4.601457066793854 4.525887677357262 6.881679168965432
Ga 9.39176714405517 8.36073263295789 10.223449008393127
Ga 6.207973156394199 3.4673448434699483 4.82110181890739
Ga 3.6355646818483196 3.29908197928991 4.3354905820695855
Ga 8.666808207552956 6.0600299575964565 8.452277370839191
