25
Energy = -63.24443279 eV
Ga 8.392520558547135 5.287977633432399 3.3070180498153743
Ga 6.67276818220581 7.502024022700687 3.8417498528457745
Ga 6.174319079288841 4.631202113680919 4.662894760544321
Ga 4.140531060165877 6.829242619347759 3.994267501274672
Ga 10.911768653197033 6.2235828901909285 4.8082037641728785
Ga 5.107882689978999 9.065946977746828 5.573267076608851
Ga 9.254713378788795 8.219559992093549 3.912058393023907
Ga 5.808614070103318 8.735001102059762 8.333360446064388
Ga 5.914074114472917 6.581684473938449 6.622260431814651
Ga 8.395517635574652 6.19752462938289 5.921715177346269
Ga 2.771639606622558 7.774228539199326 6.412330552674794
Ga 7.705914673865839 3.6657791373924806 6.588244887374195
Ga 10.248763760965778 3.946198106335437 5.956303309029251
Ga 1.638283549111214 5.9382174849055795 4.638142808161564
Ga 5.421727680633433 4.223343906872019 8.050076030252658
Ga 3.4835546605378536 9.878481535129193 7.861516070364039
Ga 3.858847538792522 4.725948233922236 5.945440356608714
Ga 7.833212824364599 8.894688541239246 6.3278373292961705
Ga 3.973505829280098 6.600144293294296 8.538490054764738
Ga 7.923316590474816 4.3363342078055 9.449082071681689
Ga 1.6812878710955101 5.459527638289867 7.424069472564498
Ga 10.022771448503324 5.585843714072587 8.133877737040612
Ga 8.043647371785294 7.329260274306885 8.59251967186818
Ga 10.39019469974827 8.0256663139104 6.859258153599712
Ga 6.118702915109617 6.230672061964915 10.134096484421816
