20
Energy = -49.23760089 eV
Ga 6.80229408250311 6.884589136345994 3.6633846802153402
Ga 5.01013585867843 9.053189775195678 3.8301271177034932
Ga 7.738728412257363 9.324379201257063 3.6716747674081396
Ga 5.590594801473054 2.904456218074629 5.318191597528004
Ga 5.751359931689591 5.742896234980444 6.148503281337156
Ga 5.264746076555104 4.722295232400951 3.6924002515367347
Ga 3.7462163076363 6.889793746828956 4.019320995794341
Ga 6.130025409189305 10.303762812232053 5.93620480789377
Ga 2.912406459789859 5.5262746570535315 5.997866795598619
Ga 7.743133656959992 1.1661414472736176 6.307159341489228
Ga 7.5086224703675715 3.8510087102098853 7.213981020345489
Ga 8.849576702209776 10.40916264160561 5.9724098303154305
Ga 8.258673261854415 5.1841418844525915 5.071980714270642
Ga 7.599511278665813 7.902240431434283 6.183643663444607
Ga 4.622125588226369 8.24157086993743 6.612311625634729
Ga 5.687394936347957 1.7712243595993515 7.857228845798325
Ga 4.135095893659251 3.973266113180095 7.582013728802232
Ga 4.555655415183224 6.625852333081904 8.539212627333086
Ga 7.41401714723129 6.467043301479301 8.218935135805864
Ga 6.0351944556283685 4.412219039481635 9.518957317851479
