23
Energy = -57.28978231 eV
Ga 10.093023990174897 11.76890773142324 7.839278729421472
Ga 10.068511853692051 6.791668401114549 6.627403608785027
Ga 9.363117680112257 9.022992903734242 7.779432142050177
Ga 8.210488802133948 4.9255667662872415 6.680910668870606
Ga 9.560900192474989 8.048273919090335 4.23849458132421
Ga 9.807135783246823 10.511107125165099 5.4423800703162835
Ga 7.484749670540179 11.262866796134064 7.321992050664209
Ga 6.043073494330235 5.26810327173989 8.369847759526206
Ga 7.399553655785475 7.343077191602294 7.4870473152996135
Ga 7.4100482403075425 9.255705995553521 5.395133201128643
Ga 7.361534089968413 6.631313817995322 4.65512852477491
Ga 6.930919735132801 2.755113265726405 7.467554146622898
Ga 4.907042913471179 7.3397425755131485 6.07397249253329
Ga 6.987708337627717 9.398819691304507 9.25075633825167
Ga 4.259922208217524 3.4671296207672095 7.240979095973868
Ga 5.341177573150246 9.705349335869169 7.032562570201267
Ga 7.407966152063475 3.1331225135949157 4.720705431538594
Ga 5.41828536052808 4.918812952675048 5.285073692034042
Ga 3.330437771997035 5.863833019899348 7.6581135763411865
Ga 4.8958448373867025 2.234724004347407 4.785461189598419
Ga 3.1664665710645137 8.609125966446701 8.108921977892207
Ga 5.2343926619183465 7.429044571811598 9.476786449124704
Ga 5.225079760138598 0.7259257182521902 7.0637559259346325
