21
Energy = -51.28791041 eV
Ga 12.069355644032843 7.715502207790303 7.859642064672361
Ga 12.173311981251345 9.019394231249219 5.513140699345835
Ga 11.69236525030793 11.562332936920878 6.11082387047865
Ga 10.195356108576464 7.370305819272782 5.558780780741377
Ga 12.098758687549209 10.387946159740146 8.439286329043158
Ga 9.759826484504359 9.767354006922844 6.918857338871131
Ga 9.532974046763556 6.847692044750882 8.151711280990861
Ga 8.483690234177878 5.53814576288502 5.798202213669504
Ga 8.657206330901689 4.157872641659383 7.9790275579615875
Ga 10.184662822356698 9.06125232478054 9.641407409911846
Ga 6.773330974521742 6.227140932756375 7.745989821471324
Ga 7.834535194407414 5.1818612517512745 10.240025254521617
Ga 5.187377115907489 5.482296008078104 9.765730791825197
Ga 4.681986959977362 7.3368188200203805 6.769764886259721
Ga 8.183753613247912 7.770843831743113 10.381536549230118
Ga 7.49257114876963 8.863474065732817 7.395937378407027
Ga 2.616125268151038 9.123922152415288 6.775365120699566
Ga 5.20512778178663 9.987044610059474 7.188903585778499
Ga 5.862184072035749 8.410389454278297 9.555762019451379
Ga 3.3589399927754653 7.216599408578644 9.148706587978513
Ga 3.6449796339474556 9.782976133418504 9.40430096903197
