23
Energy = -56.68402908 eV
Ga 9.726594161739886 7.600562778499109 10.656778473385526
Ga 8.334686158385967 9.433915487342924 12.15138236596598
Ga 8.28690347340262 5.381211742761664 10.74861109466327
Ga 10.088428206109961 10.01588164953711 9.711168442351095
Ga 8.285944326689007 6.911103535369406 13.20141485091394
Ga 6.4414748219647695 7.488729508750496 11.182707316502743
Ga 9.619414603954207 9.224943575255876 7.030287868844942
Ga 6.30538144702912 6.25583734378784 8.858183947888229
Ga 9.241405489527281 6.549752859786425 8.334918032010133
Ga 10.21456270186997 6.951448176367564 5.811582240440698
Ga 7.494849143738401 8.762816761710628 9.136027826592475
Ga 8.577011449575961 5.239127384559867 4.612410684190471
Ga 7.585780947362907 10.996911172616171 7.601510159884714
Ga 7.708440399995725 4.811278410030685 7.088398505573968
Ga 7.713672203531182 11.304256727378126 10.24665163208185
Ga 10.324105497804004 11.740854200049993 7.778548428256934
Ga 10.052276230314995 12.802607991250413 10.27352979911046
Ga 8.892267233301652 8.800655657974861 4.252525459765299
Ga 7.353099373124551 7.778639206489328 6.612316582152147
Ga 8.011432158975575 13.464858056423322 8.333531907727242
Ga 6.73494578106679 7.142785772127502 4.194120593066527
Ga 5.243879289713995 5.980560620989846 6.3111656862622105
Ga 6.248623377554477 3.9746903725170593 4.761846534511527
