25
Energy = -63.95777475 eV
Ga 9.278579026709435 6.0836258013683295 3.467006707512457
Ga 7.35948910312129 5.407908443365633 1.6116293632067784
Ga 6.92605124782952 7.514416761087063 3.5944294896148943
Ga 4.299101770141814 8.107015221502252 4.222297399092337
Ga 4.891843904316867 6.095502191906074 2.4697659732033306
Ga 6.732170805042095 4.580360489897022 4.235977809446067
Ga 6.178457322443632 4.8174467210223275 6.838423727644488
Ga 8.750102923412316 8.065919496406002 5.420600632738293
Ga 3.071006896177861 8.349688525679264 6.509139736919041
Ga 6.032167860672469 7.173521030998515 6.158398726706327
Ga 4.089295623806086 5.341422403583002 4.984869480580495
Ga 8.775179649087926 5.281550241075011 6.037606555693704
Ga 7.692208586867262 2.680641945635532 6.238244492894608
Ga 4.88641975187883 2.700096602289442 5.655887203732713
Ga 3.453877115149575 5.8208146804518215 7.492170772919554
Ga 6.464075222171259 9.738523942037773 5.397044619958407
Ga 5.343341246460222 9.15438506794214 7.765405453858483
Ga 4.435864018550176 3.3894437955584054 8.352773131139006
Ga 7.958201767187678 8.533551706762974 7.946771724562746
Ga 10.440826030713152 7.274464964555709 7.394822136679721
Ga 7.137480027026517 3.4000205455935757 8.898094203423032
Ga 8.364564752070397 5.864217378445111 8.592311471104189
Ga 3.4554793725313218 7.949220237082842 9.520873696853638
Ga 5.706652430080575 6.225661278110307 9.00491748899777
Ga 6.3744648999446385 8.547481881036026 10.28743935491062
