20
Energy = -50.4603117 eV
Ga 7.651299527788472 5.454482827355458 4.225101091819543
Ga 6.878529333900478 7.215841044873918 2.2630844747446135
Ga 5.768925937001229 4.581801281938456 1.9856075453578979
Ga 4.658495763014292 6.377156830617567 3.8187277161213524
Ga 5.513716537805881 8.96646977090534 3.773605907859853
Ga 7.0862534527801735 2.9111392171823733 3.806940571973687
Ga 2.84088731181768 5.554095573333318 6.200803254882431
Ga 4.8305600088537615 4.0277804771243515 4.784006197147362
Ga 5.8545742950248485 1.3739472633407297 5.652299933251267
Ga 4.29097699377842 7.9239121633729654 5.965005810579304
Ga 7.661262761145291 3.8667326520406196 6.41126904138755
Ga 5.98143399613255 10.41571875958172 6.036901095235084
Ga 7.392506286275204 7.727051454956082 5.3202220683668875
Ga 6.9288233432141615 8.559161623760232 7.7109977602960456
Ga 4.670247212736661 3.191412875405578 7.258063057839094
Ga 4.4808715119867015 5.22684267358671 8.839182629356698
Ga 5.845291208861341 5.84877319963687 6.599238082715508
Ga 7.029093013788622 3.706354725858645 8.931928036777128
Ga 4.31706887532297 7.768304145362091 8.552472130901162
Ga 7.2956347734160865 6.279473584411835 8.840995738032552
