25
Energy = -63.99283334 eV
Ga 5.722372256065799 6.776660812614621 4.673210025537439
Ga 8.531936054375533 6.234818422510247 4.2153140273622824
Ga 10.273590576454549 8.200853003447945 4.697779281814822
Ga 7.594577895870012 8.521514135630367 5.376280128558075
Ga 4.859781321432701 9.22959849973664 5.835040751214178
Ga 6.985174080030317 4.320460507406834 5.223759436787003
Ga 9.398725004583891 10.488801555095993 5.636234269963851
Ga 4.966410067866901 5.441696747738912 6.925053336369074
Ga 3.123496223708058 7.097941409393882 5.401980894080656
Ga 9.023403524698564 12.098397288636967 7.773593649305303
Ga 10.381777669434035 6.803882831129651 7.03109089159534
Ga 9.758050351883433 4.279277307604856 6.070131981416911
Ga 6.743637535904465 10.746095322182631 6.76593426434189
Ga 6.0772675065949295 5.20944827702832 9.277211676746639
Ga 7.188086008581072 3.263972522105462 7.659182209231353
Ga 7.9022625640992095 10.420007731857792 9.525178923482512
Ga 3.863951177403898 7.596922866841164 7.9803250381582025
Ga 9.74887022759003 9.223621115528882 7.903921023475453
Ga 6.526710857511003 8.372170541352968 8.125455345123108
Ga 7.694616805826469 6.259215986178088 7.03375055012735
Ga 5.1218408335447965 7.415661649905374 10.277001904712703
Ga 9.104946539250461 4.6858131650803205 8.946569340130925
Ga 8.767579521178584 7.326844754539102 9.386271253642663
Ga 7.259991720888682 8.587347598946742 11.252114723182093
Ga 7.738652230290359 5.756684502574774 11.365323628709021
