21
Energy = -51.30685947 eV
Ga 8.927754363001773 8.157982098001904 8.6627969718451
Ga 8.885460467410397 5.689162008193143 6.998662955385287
Ga 10.76429910417566 6.234630531839428 8.788400775131537
Ga 7.35789222884598 7.985899795121164 6.368238813823522
Ga 8.101107573594676 7.067355085290669 10.959050012210849
Ga 5.638218873932583 5.66004252309643 3.111687746998487
Ga 5.843384985014917 8.157905402776093 4.3132671417743556
Ga 7.170869253333733 5.5149946433250046 5.127023868236884
Ga 8.344010828500323 4.673056040171869 9.397758907746796
Ga 10.193328921065312 5.351969475752783 11.293226540098644
Ga 6.355033285093162 4.0776855634430635 7.600536456075592
Ga 6.560132484501983 6.6819996248027556 8.827859875547931
Ga 3.400935036794251 6.67798966455292 4.965688112156119
Ga 3.960725881747767 7.736921903853247 2.488039363744851
Ga 5.479270423416638 3.5109470468671677 5.221492893472902
Ga 3.297752470499049 4.201417121838837 3.6008000438282264
Ga 1.628213973923164 6.318162447846479 3.1362298689973067
Ga 4.991422307358946 6.389560291003277 6.853085804799517
Ga 3.295234805612081 4.124413975785106 6.7797543473831565
Ga 3.998905233286204 5.133981294390423 1.1812615632694639
Ga 2.043405791388034 6.918925716354087 0.5528327575256284
