22
Energy = -54.5156381 eV
Ga 4.863817950816265 8.89741011711603 11.146758153028978
Ga 2.977784544598994 7.463850189452147 9.830354428063133
Ga 5.561289793659846 8.568457447283961 8.646908418894267
Ga 6.908127114843534 7.155554282798901 10.642243325614734
Ga 4.718997073585912 5.5109930093660795 10.21860055483723
Ga 5.15736440701336 6.657033190148032 12.688859272086946
Ga 6.0590413393180595 7.628269469466131 6.324523337201233
Ga 7.634399686731895 9.82622089941553 7.139645465749831
Ga 8.646689538332039 7.798854108754753 8.856000035999964
Ga 8.023428542217125 9.183650196109124 4.686776254325516
Ga 6.731948822713527 5.556926570739847 8.388431834617489
Ga 10.33469683615091 9.233397693329144 7.228215457178219
Ga 4.15212387428088 6.237553077891149 7.545694286939495
Ga 7.682917256374983 4.447942527141058 6.376653008311619
Ga 10.70740286484412 8.020305554144675 4.8037267024313195
Ga 8.839520375483746 6.969716485590187 6.3646998225971325
Ga 9.111758943368418 5.407880558303446 4.297600247349597
Ga 8.894637219139199 7.682119137889695 2.7057978559761287
Ga 6.931884528911741 3.6262365439629662 3.875320581428169
Ga 4.944248885933317 5.146828206367076 5.377075263978956
Ga 6.669990485421607 6.699721344550637 4.1066964471657075
Ga 7.7111880075686114 5.420669390044751 1.7639526438189543
