22
Energy = -54.13475898 eV
Ga 8.807685380055734 6.985261894374008 4.592367631746069
Ga 9.715902017712253 8.632382212961506 6.671973383396779
Ga 7.163102348544735 1.6967152918422153 8.546050193703575
Ga 9.24588373278214 9.752245834963684 4.130382680549215
Ga 7.750574026659346 6.808506012267273 7.429134747752259
Ga 8.021768125241584 4.681089418251152 5.3944752728142635
Ga 5.5293135206478405 0.47307129196390624 6.737421189945073
Ga 7.071511722094903 2.3843858560758795 5.7279467784744735
Ga 7.460162788390052 4.2401631055909945 8.161859428391885
Ga 6.133985539569999 6.666618677722536 5.065778489465624
Ga 6.826520985793042 8.790183792357904 3.5662383331531764
Ga 5.068289705047589 4.049863455246134 4.926782315342137
Ga 4.859810950474232 3.0739853733303253 7.442771213602208
Ga 4.337409798126445 5.643572061334255 2.932334424663596
Ga 7.12909311726253 9.246065144236916 6.341162722097348
Ga 5.26709403727939 5.724338401660092 7.613231392885046
Ga 2.7205707647697763 4.5013873842679635 7.800050722280659
Ga 4.654212012932472 8.248188411784092 6.870158065455002
Ga 4.9367621499325285 10.331766921570226 5.028817370110878
Ga 4.050343721140139 8.05415099281014 3.9981603004687583
Ga 2.916948162970808 7.0877022515355055 8.48666683620924
Ga 3.1727704053138024 5.918999639412991 5.518961225308201
