22
Energy = -54.5746752 eV
Ga 10.234802005001436 8.569172805070579 12.648677917132513
Ga 8.488508279780772 10.85630508529106 9.2620797225308
Ga 8.119938862840085 9.774534972054633 11.631487171811292
Ga 9.869012167322964 6.205028895604609 11.543075216275941
Ga 9.278851160531346 8.03922841076824 9.67461053143036
Ga 7.396919584336738 7.182852842245108 11.987522809865924
Ga 5.752071810839395 10.740667243409776 10.67815524856226
Ga 9.239373763474987 10.854967006091087 5.270426211078387
Ga 6.455101262686332 11.438969803179805 5.70206060449841
Ga 6.0934400460832 10.240688125642144 8.015592919126272
Ga 7.0993706931393135 6.882573408547406 7.780923161938245
Ga 8.848352023249493 9.197129670505628 7.289670060630722
Ga 10.819580955587027 5.1847519265321225 9.441320621379056
Ga 7.773626031617646 5.442849761197968 9.864045967640225
Ga 6.344634428294365 8.259692495949308 9.850499110911507
Ga 10.532370507993583 8.122517934978086 5.433334089383029
Ga 8.368488633121897 8.29507457331553 3.9417719923177095
Ga 10.231534175562055 6.669253744744896 7.5362249763072535
Ga 8.351821833594643 4.223295999537494 7.476580025245099
Ga 6.566587423484854 8.664044649431167 5.840311678336301
Ga 8.304240573570347 6.18409934313392 5.579395090246434
Ga 6.596801864764844 10.106409692220558 3.3692151939211064
