25
Energy = -63.08993616 eV
Ga 9.24334622750001 6.330953083522573 9.605998091381158
Ga 9.898842338792003 6.4356923333128195 6.410911690502509
Ga 10.216004058412707 8.37927023254408 8.069087838182789
Ga 5.814906182956088 10.392883405236697 7.657603687861959
Ga 8.40356901929587 10.245410941489359 7.915361931066304
Ga 7.253608039589529 8.165666695631957 9.225158533683055
Ga 7.882842742941593 8.227748016396433 6.082166238557936
Ga 9.763996113388824 3.979592751118606 7.44006125971531
Ga 7.8314043281028 4.064693122904587 9.591725122718843
Ga 7.404606851206626 5.947374272981651 7.4611848067189115
Ga 5.088228437663293 7.806594977120903 7.708926135997149
Ga 5.806246373529956 5.907055197184338 9.85075814079269
Ga 4.01971188165482 3.0443456634718196 2.866791770259442
Ga 6.48764380410609 4.200488946969039 3.343328660463159
Ga 4.34161730409397 5.760713488342178 2.7100495340522475
Ga 1.902611965633188 7.009372721724511 3.6206891056211417
Ga 4.41284832916929 8.329489011734092 3.1423693102615853
Ga 3.1255911759607895 5.0286849269431375 5.077085205636275
Ga 5.682585740503528 9.379142737492627 5.183450732844845
Ga 8.236096184824765 4.479279923786952 5.219425203643556
Ga 4.988162522218389 3.154510053052922 5.412102930090658
Ga 6.02188414128016 6.507123732545788 4.8444706539041995
Ga 3.3535648940069396 7.666229993259856 5.772175583633225
Ga 4.792933372225208 5.160539824895931 7.306248352499438
Ga 6.8631256595164025 3.233121634910976 7.318847168484421
