22
Energy = -54.74330105 eV
Ga 6.042175414649579 4.256359360426834 4.61564205543408
Ga 6.857574031253929 11.47217610144969 3.6071862568855235
Ga 9.048079426466215 5.926040297137926 4.918105011394633
Ga 8.108907772324812 4.237305347526768 6.683418995406117
Ga 7.288668355358984 6.31116728234256 3.0434401347792117
Ga 6.987895539411531 8.900284637680445 3.0488290561706326
Ga 9.444483827862358 6.1576780994107745 10.971555634498076
Ga 5.700574018263276 9.663865921361952 5.393432694014651
Ga 8.186671847112637 10.986667514916507 5.78957912143647
Ga 3.9819549001733385 6.1152545777004015 6.6223674613516685
Ga 8.802536676720957 8.570050182293153 5.066163897672278
Ga 7.5501356706507385 9.406474404517216 7.758332318717744
Ga 8.736006016763536 6.131135531023308 8.483209942458114
Ga 8.067028523508476 4.122007659386005 12.232722872417234
Ga 5.57473907353764 4.2729599027399745 7.52890185497306
Ga 5.170108023923851 7.158199856928431 4.528306867230121
Ga 7.206064284807062 4.210729991114934 9.626047815164346
Ga 6.935955791817565 6.8960256932437325 6.50314263473618
Ga 7.729378068496449 8.151730103722654 10.0015926520444
Ga 5.618181156915832 6.557215936902069 9.024432918598842
Ga 4.817514855950355 8.551541950660795 7.518980475889571
Ga 6.4889937725503986 6.2537448299976255 11.422577478094025
