21
Energy = -52.06400252 eV
Ga 8.7417071299158 8.809685908759377 4.557966232989951
Ga 7.447584301496036 4.505189553240249 5.569967419447256
Ga 8.143972559354685 7.912630928587368 7.930421142425866
Ga 9.263786331417611 6.504740233366224 5.87318367008555
Ga 8.352061275644266 1.911859630200361 6.312755346414546
Ga 9.754512564874045 4.038854910283666 7.0307846389187585
Ga 6.683558900113762 6.999192526602162 5.206370855673508
Ga 6.510488826974664 9.553326365885807 7.016752693298057
Ga 10.108795317919178 6.148218380966167 8.644862320418815
Ga 4.776643268829679 4.998709500577384 5.507322805860844
Ga 6.027416982567363 9.215162759998083 4.124343016393771
Ga 7.371299853156672 2.7897800797985735 9.02393559565028
Ga 4.76003214608072 10.99557392972095 5.65801568823462
Ga 4.01366622629067 7.016213080825156 4.16420381870755
Ga 5.424610151275382 6.983738162690425 7.6694820105023185
Ga 7.456161002204146 5.32685610557732 8.330795589727561
Ga 5.8066088007061465 2.732079665856253 6.72653303111393
Ga 3.1507216795861406 9.595342636868429 3.8856176893798966
Ga 3.8102654775953924 8.532521536035828 6.481116766349513
Ga 2.7279372869301888 6.016964092586626 7.275694277884673
Ga 4.784078707095005 4.531801921307503 8.436606120264637
