23
Energy = -56.99244324 eV
Ga 10.406966010569123 8.941348059407165 11.206687711939248
Ga 12.88012691511651 7.6474064583029016 10.345122599159275
Ga 12.477240760029925 6.054684904354529 8.225663262894876
Ga 12.587470802706598 10.268825745591132 10.03472490659927
Ga 10.479434211153274 6.341659233830118 10.440282100611906
Ga 10.571272538475398 11.41717347837536 8.785501710188397
Ga 8.678147647657388 10.808874792970647 10.545272970311832
Ga 9.83371630129023 6.503389251839846 7.570295045947115
Ga 11.194569552699305 8.650784900282568 8.373980792773695
Ga 8.506397466670972 8.237873961944794 9.50781075607247
Ga 9.201888192007173 9.635563468265504 7.111985943279475
Ga 8.00782609600834 5.4536564443337445 10.268050924121795
Ga 6.331059221492987 9.624861696942814 10.54339414570438
Ga 7.704913080179571 8.436371068884833 5.472473691295033
Ga 5.890545677634376 7.066121112712278 10.321508931740794
Ga 6.354811590835374 9.27931931091529 7.877182988602918
Ga 5.795877680368047 8.4244933469271 3.6085631687559467
Ga 7.255036677655021 6.56950934870584 7.765132790934412
Ga 5.758185620389574 6.478168987576355 5.757489684386885
Ga 4.418513810254349 7.100738263267002 8.165171453773038
Ga 3.10733016957328 7.429787160116913 5.925321445125381
Ga 4.798094088035255 9.524886878978425 5.80744528391338
Ga 4.038206339966261 6.426304855351995 3.666854460099409
