25
Energy = -63.76043899 eV
Ga 5.498182399174736 3.1596300554395538 3.899856716311548
Ga 7.614309513352954 6.977272090479271 2.898923182414606
Ga 7.699648035785153 4.231812996558128 3.1510487612697093
Ga 3.063987353268457 7.1494816172361215 4.09337581149078
Ga 10.191864295732016 5.041423720002368 3.6742265527911755
Ga 5.589686240580381 5.864921632828402 4.543696409955784
Ga 5.314129778768195 8.276218775981556 3.1590516864677456
Ga 4.701504467438179 8.415494692823955 5.931629264099942
Ga 3.2315933240436285 4.376184290359682 4.410386713253018
Ga 9.571708469570648 7.371428169945738 4.798684067508571
Ga 8.046786861942053 5.0801693777597094 5.725027644147312
Ga 7.1880505608793115 8.400592409117756 5.298609008271348
Ga 5.8614447015829905 3.5647176605741615 6.513419987737002
Ga 8.973476385270708 7.7400511725072265 7.438262329438136
Ga 3.7771330037077457 5.2711566730801875 6.8480937789951035
Ga 10.691777079710645 5.409287375866093 6.526607229098137
Ga 6.680222152907859 9.152995676033012 8.002760526256028
Ga 2.188236209918399 7.584230760163092 6.632609625608368
Ga 6.295958603755519 6.385732637465541 7.309900476585985
Ga 7.081783762642128 7.030072873280573 9.901819212635727
Ga 2.1230053572634957 6.17045824102731 8.912133542868053
Ga 4.266980184622488 8.083124418889696 8.591076962540875
Ga 8.67728001432729 5.231570082664322 8.471794192253714
Ga 6.537072032012288 3.92763462287286 9.131374104472721
Ga 4.6475166760612945 5.617675441362991 9.648969677847047
