25
Energy = -63.60421564 eV
Ga 5.941605847152201 2.0469345191804296 2.6664890841034725
Ga 5.676759215704753 5.224830657245219 2.3505560544807587
Ga 10.167475480806464 5.315853359549494 3.9222373462830493
Ga 4.001968596143332 3.567944599187736 3.698910953175824
Ga 3.3534128849974043 6.2580334975626455 3.327582197131533
Ga 5.626794063882378 7.718154635901638 3.125866125063244
Ga 5.4808412394838015 5.6342381162475474 5.249518589180954
Ga 2.2597194093382984 4.87005364787692 5.355001768163461
Ga 5.573984812253227 8.558477377653395 5.8271227570514466
Ga 8.08672542101584 4.589318582932811 5.936558816537902
Ga 1.005747089875935 7.236504423030853 4.450114427154158
Ga 7.733738963129208 3.9517398923540874 3.3340119914695943
Ga 6.206682229151644 2.6646390830096722 5.353024378004924
Ga 3.05549926060227 7.5927725475949455 6.260261692719048
Ga 7.846480253005475 6.856823387289516 4.1112299799379795
Ga 3.336293843769057 8.987669991497697 3.865630655802121
Ga 9.84926290251575 6.615533068731815 6.255366356151535
Ga 4.800947469332307 6.53988891088314 7.764539812631137
Ga 4.058564949026259 3.6573437963627566 6.805096315182388
Ga 7.322043574034191 7.234738376675914 7.140870919425402
Ga 6.5124104191016805 3.7517803521468225 7.8122723878518086
Ga 9.173917298866092 5.330455226721728 8.510706270616033
Ga 4.31827679124499 4.539849663423346 9.533050669601707
Ga 2.188526040904501 5.594058486486687 8.07344715039355
Ga 6.670046687587957 5.910088543378687 9.518258044812534
