24
Energy = -60.27809921 eV
Ga 12.493906623469528 8.678169888760486 6.695229425112871
Ga 10.199947420695946 8.331916940066574 4.905574000647693
Ga 10.236028704534045 10.23310831386516 6.996576359276417
Ga 8.003839147130117 9.054430893555574 6.164498614087363
Ga 8.275539731260068 7.726956732780454 3.2524116124820837
Ga 5.948746893668687 6.937581802132481 2.0884029233144243
Ga 10.61874865439901 6.838925079797464 7.248440358381829
Ga 4.087605640302018 6.1592250684943455 3.968269249010048
Ga 8.689135895732521 5.9875763986533235 5.3875854410617485
Ga 6.012116908704575 7.93823366609254 4.735754838745581
Ga 8.995077520654409 8.683763829574392 8.792268373884797
Ga 6.963642333101019 4.92741714776697 3.687268253831895
Ga 8.214364463527499 6.005562302559528 8.053076312933428
Ga 3.5627359118866546 6.940718398478563 6.471011203622092
Ga 6.130254891232677 7.833044775288562 7.470273114899167
Ga 6.1623273926506315 5.451224631908522 6.143115146008773
Ga 4.667938594584632 3.6300014285604627 4.670566154938005
Ga 6.980627511382106 7.398674216352666 10.105076460110238
Ga 6.073813785687159 4.8445713611409404 8.757360656126636
Ga 4.312748293008088 7.127518368752255 9.059468107228987
Ga 3.9686240180505528 4.265637944565421 7.164239400758666
Ga 1.6924310458003538 5.86219810503026 8.11319561451542
Ga 5.448298770516594 5.651170612874005 11.383029553734378
Ga 3.4642191743278232 4.700527631582887 9.870345475628158
