20
Energy = -49.41083602 eV
Ga 4.942069736730868 8.695421362012235 8.170511809960445
Ga 8.099227881255166 8.856961540702073 9.848432846941442
Ga 4.897701764859266 5.559745383880621 8.971386590802629
Ga 3.9257331749025566 9.433361661505792 5.846812795019224
Ga 6.433568137213573 10.845645496632988 8.98750370270357
Ga 6.146415383898618 10.930048770746762 6.296938462397722
Ga 5.900926885653154 7.540485870141981 10.238357526590008
Ga 7.751393160726514 9.064627663376683 7.1782087386495395
Ga 4.869975968990256 6.617847988788049 6.434869039142279
Ga 6.302467072212137 8.384744142731174 4.867934498279768
Ga 6.765203085634053 6.334542701059482 3.298061049459208
Ga 4.87704337844829 3.665439682792036 6.993346661378869
Ga 6.81778404481325 5.125259309816237 5.6559276094483355
Ga 7.565269339231302 6.541114660657709 8.086089191888291
Ga 8.64865438215599 7.182293396661638 5.547172247209498
Ga 7.218209030114363 3.967965643575894 8.29914751675534
Ga 9.46337485664427 5.0495504464326935 4.282510125371972
Ga 7.479220420502562 3.723870671459019 3.022785541238754
Ga 6.902328798044045 2.4670522859686996 5.505962069161861
Ga 9.266487083248 4.246878923439363 6.763105346023814
