21
Energy = -51.74882964 eV
Ga 11.35477137026972 7.910935893078523 5.4669010335885355
Ga 13.233545298522438 6.025160743974646 5.144245499192228
Ga 8.647544839031454 10.963471290331363 7.642318767607668
Ga 8.934437896050015 8.850673857503557 5.942954664683989
Ga 11.431386989122233 4.4261643247557 6.480551666836422
Ga 10.471051901743623 8.40459428155545 8.197283383107873
Ga 12.340155892868486 6.761472256446068 7.743721196350709
Ga 8.531035196722293 9.019727766276496 9.68440552875887
Ga 6.579144479577476 10.922340005031064 11.262394524707847
Ga 9.948428443956999 5.682848041109766 8.583559651028432
Ga 6.865147950110219 8.151082352222899 11.445919305475266
Ga 9.484515089912327 6.050149366458549 5.900896497069332
Ga 7.599942611512321 7.126867537263281 7.6466092828763
Ga 5.51259580433185 7.106252619195042 9.230156507325754
Ga 8.034868735299419 6.207573071522345 10.202344711312662
Ga 6.28108113303814 10.006698527475804 8.660392431585313
Ga 3.97670161310436 11.504199668612179 9.618773793707401
Ga 6.354695129026077 9.129027360676327 6.249455790671864
Ga 4.823964935127685 6.90040450899242 6.652499971177752
Ga 4.44150202252013 9.082545838380412 10.677428868039673
Ga 3.7864688190982854 9.112791282548232 7.877841320355448
