20
Energy = -50.13302585 eV
Ga 5.3113369591379405 6.192356162727306 2.2785977864856948
Ga 4.757806658959698 3.6094874868675304 2.9382112462640397
Ga 7.6964868174784815 7.293941055986354 3.1623895222798866
Ga 9.40918750446164 5.951276991355606 4.706282017877263
Ga 6.635504040172049 4.929288949555954 4.39591453302799
Ga 4.127308903877642 3.7403679740285773 5.452533175410054
Ga 5.55952365365125 7.655740926020162 4.830203895351741
Ga 7.729992341152031 8.852637203744834 5.661273511046287
Ga 7.482323047316318 6.0946744237312025 6.563480080007278
Ga 3.456725004524198 6.103964881106672 4.3022417540292865
Ga 6.525348817167733 3.5471576110055163 6.674622731228988
Ga 5.13797585562053 8.536270784493876 7.35791925116268
Ga 2.5113930832058973 5.032296795212889 7.34145751531525
Ga 9.68104459744881 7.72514216887424 6.975016037748915
Ga 2.798886616452477 7.596709562316991 6.361693468409863
Ga 4.417986586684515 3.301712358033129 8.532346642466937
Ga 4.964907677411157 5.937917693781663 7.071711847627888
Ga 7.346864735022471 8.01218643249732 8.526959579152058
Ga 9.160719024209563 5.755981393105763 8.818699237758828
Ga 6.4010948768447795 5.2433059463537175 9.160862968147933
