23
Energy = -57.78240582 eV
Ga 7.943094990551418 10.496749916941122 10.026070054868526
Ga 8.97701544451806 8.301520358773391 9.177168808850025
Ga 7.997863865550389 10.008877150607393 6.7877585675389325
Ga 5.806014776263302 9.241866133268141 8.907449705512708
Ga 9.510439906049447 8.029801507904534 5.974350044626963
Ga 11.022102186961323 5.759845312818425 5.118357312853556
Ga 10.620230534466954 6.644904653114392 8.012261530818837
Ga 7.114031581902007 7.471598378817717 7.356884525870814
Ga 6.240054221466242 6.838502397707785 10.226564450469976
Ga 6.8574574073714 11.982200752026731 8.168375617697167
Ga 8.19755237555542 5.543664740496203 8.804081227890345
Ga 5.7064371258643 6.124754602918578 5.081229904793087
Ga 5.720786737023009 8.957533220223633 5.666645339169934
Ga 10.126595983189183 4.169617973485136 7.435716788091131
Ga 8.25452486833561 5.637003148589512 5.767695969552715
Ga 5.78059612349384 4.956992959996184 7.675439337405587
Ga 9.396603482505556 3.2459277825335966 4.909676286895627
Ga 7.693779718984253 3.1220224714740565 7.426567423644376
Ga 4.381063190375615 7.142384538979036 7.893160310063885
Ga 4.752092322631847 10.98135274540873 7.045375556918845
Ga 6.5010257144694785 3.5215049484191767 4.935327005111856
Ga 3.4861710289825125 7.556970938599577 5.117779820534666
Ga 2.8428081088188204 9.202533338740166 7.415087351256813
