23
Energy = -57.30220798 eV
Ga 11.073211155808822 7.3518470494752775 4.025401472911174
Ga 10.756711909402016 6.742264646480889 6.675679574537685
Ga 9.248137992535385 8.932463843659402 5.266447868678277
Ga 11.240341836278134 9.478983735218778 7.230226247635735
Ga 8.84380115623769 5.772232697438442 4.893962804012124
Ga 9.940367296379911 7.560804877857354 9.118451137504008
Ga 7.627932093670175 7.729106702048195 3.441628427130211
Ga 8.2680272652771 6.103741948276756 7.477360915586651
Ga 6.902703445147853 4.989064944823474 2.965888257800362
Ga 8.43624485848581 9.341334734468587 7.660097396316685
Ga 6.734460225399523 7.977257333825482 5.977022467285717
Ga 8.135526292029304 9.310860656326444 10.227826498524223
Ga 5.116623151397449 6.783938029586089 4.29450914554609
Ga 5.569844541320309 5.586906726751447 7.9872981249714465
Ga 7.442404497109576 6.502784262999015 9.864400071860473
Ga 7.080390131691229 10.132597644073389 12.869982816713554
Ga 5.3404563105032 9.499878348408211 10.885967793067374
Ga 6.531184449011809 4.748754766681219 5.696493652980257
Ga 5.9725345064906366 8.645082545048968 8.43944890883709
Ga 7.14852450964201 7.531380714438451 12.212436663631115
Ga 4.131066735618566 7.587590197418841 6.712726472042823
Ga 4.716006048162985 6.936568892578871 10.227351411548424
Ga 3.774211124250465 4.789059268409736 5.896085471489529
