22
Energy = -55.05056459 eV
Ga 5.986531885761429 9.42136612955015 7.513859797075322
Ga 7.87457210385343 8.585559107360357 9.27447701315994
Ga 8.189840534804416 8.740656263907567 6.230760341729293
Ga 5.4631030564967595 9.673940201399839 10.2244898931778
Ga 3.69021718659366 10.197149246748182 6.020941693757138
Ga 5.756506496423475 8.83427911527771 4.771900526869335
Ga 9.294020856171569 6.694403409592227 7.831864847620666
Ga 3.3686618014587064 9.15635254313463 8.523529494765482
Ga 7.324251627643846 6.2567209828604735 10.839780074712943
Ga 6.658305555065404 6.706792599391707 6.999300886977659
Ga 5.1479104126855955 7.05400842788889 9.313209128591886
Ga 7.443645335434297 4.707900722061905 8.66240468893178
Ga 7.730861147432388 6.890229393002867 4.359965223492563
Ga 3.9608653464777936 7.341480016852976 6.716938349862006
Ga 4.616594264634216 4.891106175676745 7.864519695096027
Ga 9.270296421138996 5.134842783034942 3.1478088522372976
Ga 4.9772377021760965 5.991644909870424 4.793380064175473
Ga 6.503392435981424 4.584111971045049 3.371522071487529
Ga 8.413158459522379 2.775639104226782 2.0193154156633772
Ga 8.982647683576017 4.965438400657681 5.917040563036603
Ga 6.4066207138516305 3.9565875426690713 6.1253822506881335
Ga 8.080777798113917 2.644510821095552 4.65431601936509
