20
Energy = -49.21363863 eV
Ga 10.585225819837243 8.355283700755885 4.982245613731911
Ga 11.181130145285714 8.374031511554474 7.53353548475815
Ga 8.640083223615767 8.608161989856846 6.945250456194351
Ga 11.982084025027188 9.462433976257794 10.010675456002598
Ga 8.001908603687438 7.784508264441218 4.442261569133754
Ga 5.660367584531308 6.783164217575502 4.576224513223267
Ga 9.317579275360766 9.813180063997887 9.366502573439488
Ga 9.798245388989844 5.794664376809751 5.473706748123862
Ga 10.417203944130556 7.279473968680899 10.225031051735103
Ga 9.84423678084327 5.966123797911768 7.993494167217006
Ga 7.390360733611507 5.8185233246920065 6.778486584877212
Ga 6.039069933834028 8.473429184856212 6.682582995133913
Ga 7.836411264700901 7.211095916574828 9.353823607154697
Ga 6.793829815814133 9.706413213003914 8.854841930884895
Ga 5.481205872734729 6.266851131307076 8.625860498313257
Ga 5.056960149825327 4.824213369539432 6.196081014801795
Ga 4.204372097401026 9.016198469218313 8.849184706068558
Ga 3.1018622471479 5.231354867628779 8.241265363235517
Ga 3.7139513288337436 7.4507954962609935 6.5981481404019435
Ga 2.3518349764668494 5.153464209390715 5.674117156397942
