25
Energy = -63.50594298 eV
Ga 10.559732827336619 7.427055762233592 9.291592262936383
Ga 6.189772719961596 10.010461674459371 3.421160987154269
Ga 6.903782140617981 6.564961128941126 7.077325551457744
Ga 5.5026998766958455 8.72743073778383 5.82298246831543
Ga 6.0708232349391125 7.3037778981588435 10.521227840065327
Ga 8.35095186455323 8.778501249923577 4.465640881809902
Ga 6.381637454957523 4.0106162551066955 5.7719981422269235
Ga 7.079877529959917 10.893451992847242 5.783183378499888
Ga 4.537183148803447 6.1472136131130934 8.611751904066026
Ga 8.282376182955371 5.880327708574046 9.41116438012316
Ga 8.792983771683815 8.812697788241122 7.077325551457744
Ga 4.537183148803447 6.1472136131130934 5.542899198849313
Ga 6.373700799163901 4.5765311919951275 3.1732856172909116
Ga 6.189772719961596 10.010461674459371 10.733490115761079
Ga 6.373700799163901 4.5765311919951275 10.981365485624416
Ga 7.079877529959917 10.893451992847242 8.371467724415465
Ga 3.894040417428912 4.0462154894498505 7.077325551457744
Ga 10.559732827336619 7.427055762233592 4.863058839978967
Ga 9.851456697693182 6.221820754691788 7.077325551457744
Ga 8.35095186455323 8.778501249923577 9.689010221105455
Ga 8.282376182955371 5.880327708574046 4.743486722792203
Ga 5.5026998766958455 8.72743073778383 8.331668634600067
Ga 6.381637454957526 4.0106162551066955 8.382652960688423
Ga 6.0708232349391125 7.3037778981588435 3.63342326285001
Ga 8.833296074177145 3.776912675290193 7.077325551457744
