24
Energy = -59.9126143 eV
Ga 5.3679800832707185 4.812193312253464 1.5367337360482005
Ga 5.326986262019097 5.54368281100319 5.067099823840842
Ga 6.400737172537715 6.899660875462064 3.0403022438172003
Ga 7.682096126685985 5.750878296546826 0.7775111487407381
Ga 7.314462311220026 10.706781864004524 8.880104394906086
Ga 5.277786001964402 10.14999051990998 7.226242000918262
Ga 4.219432925180031 3.4063257596369887 3.5808936943783283
Ga 5.745243120358253 8.284177134568035 5.296531437171691
Ga 9.035372054786984 5.567332385705137 3.0759341526291073
Ga 8.369514668172522 7.230796265524931 5.0147285480863175
Ga 7.973004519736963 8.935217019217705 6.9613111460476835
Ga 7.060788416512941 3.7711060232319418 3.2482783452729826
Ga 4.4542634938838095 7.55589228416207 7.553876973676974
Ga 6.355388022150746 9.78062832180334 11.418156049324098
Ga 5.019441579295699 3.0807689497265787 6.058264464651049
Ga 4.382763008958187 9.216942353614863 9.653173415632708
Ga 8.021288206376786 4.5715152317322065 5.6965934664223665
Ga 7.350391242054022 1.8905201901833733 5.161055547114216
Ga 7.011328948382707 6.334863465169618 7.32700504732959
Ga 4.47604359426572 4.9631902040329585 7.80206005677944
Ga 4.322739022900809 6.488091044564368 10.10204544897823
Ga 6.916534281628464 7.984337824934717 9.33079499161304
Ga 6.9732645110709575 3.5132765257152863 7.967889941534298
Ga 6.687099610663248 5.296564393154021 9.954463678844668
