24
Energy = -61.38914773 eV
Ga 11.341237972520007 8.102152513418613 5.211813322035957
Ga 10.537296421526785 6.670412361370251 7.4825392382125
Ga 10.24231968379793 5.21849069555306 5.153276920318915
Ga 9.19569616929839 5.3925580922532035 9.839212803119922
Ga 8.699559355629585 4.569535254953546 7.454913691352974
Ga 8.724070818988364 7.629676939646142 5.2086824345432285
Ga 9.894191467322486 7.900705012864243 9.615942699096397
Ga 7.263077250501003 5.464940844546175 5.402424500457962
Ga 9.299561323083925 9.122704989220065 11.983126961076614
Ga 8.038717209052669 6.643441269151339 11.954949672701698
Ga 6.222191427165738 5.973714929068747 10.037974337683782
Ga 8.764870432660791 10.541920211033064 9.465404104733505
Ga 7.050782435391203 8.614640176382713 10.405590887232561
Ga 9.962003579967593 9.388124890156032 7.2253154524270515
Ga 8.73953788050196 11.984004150651868 7.159830855674107
Ga 5.005547147598039 8.207280475867147 8.91313040033675
Ga 5.662440703899376 5.498716741838848 7.586424752380903
Ga 3.6875479411656773 7.283603297212898 6.829058757180039
Ga 7.722993424683222 7.3682061707352355 7.991986286865581
Ga 6.540515728883088 10.182251559752064 8.00389204104786
Ga 4.42371696343959 9.965990186690917 6.353978162982044
Ga 4.608326510410403 5.777323204414233 4.8281437740930615
Ga 7.72191095212654 10.090334670698322 5.516020651138151
Ga 6.175015116972933 7.970642088413256 5.8749550592067665
