24
Energy = -60.4086638 eV
Ga 10.86641462709058 9.703207845233914 5.598732776345789
Ga 8.579611762450643 9.141149758428465 4.293335338784129
Ga 8.798240467801532 10.150296655388486 7.174093879122989
Ga 10.77622114189057 8.475619233571988 8.525720343183554
Ga 11.92158719078208 7.359633084208393 6.222927684811718
Ga 9.28889961708246 5.479235154145309 8.58234600045553
Ga 9.285815803127132 10.418044557396426 9.942475201435554
Ga 6.519880379400885 10.479478034682261 8.465757786039593
Ga 8.126001031596646 7.97888733176349 8.911760949113905
Ga 6.913605974826646 11.655928924722799 10.967310887635483
Ga 6.552377537545125 8.724139964891876 6.390480091497658
Ga 6.925528436230552 7.047118315922569 4.301162240385264
Ga 8.49852048824059 5.063698988182624 4.995143968505876
Ga 10.279862730204083 7.004115678331186 3.8194053373042385
Ga 7.18492979869466 8.918085522590841 11.084420238815955
Ga 10.814054957509981 4.888936321011737 6.413487399177853
Ga 5.230477281752869 7.878365191397963 8.576389153781195
Ga 4.52807203292252 10.207659696651596 10.251515821493467
Ga 9.182839365452676 7.398553054325447 6.389006645305184
Ga 4.934128778044849 7.761108233154337 11.397708128419804
Ga 6.90949127911463 6.0996344741316255 7.08299560969725
Ga 6.957380982180036 6.02155071521988 10.269845405922895
Ga 3.5741210564492514 6.110327908217551 9.993844084693414
Ga 5.255799016560334 4.744288788720443 8.545376493995255
