24
Energy = -60.63379415 eV
Ga 7.88954425082987 5.965462562318938 1.726592871432705
Ga 7.9161721137502985 4.583445535656416 3.987681935169581
Ga 8.378088838244532 5.384100150491495 8.712394277096223
Ga 9.123288566294509 7.061646964385335 11.001109183244672
Ga 9.110741034216797 6.105918826004834 6.207113551080601
Ga 7.40999345560928 3.923758589702509 6.4373141763493615
Ga 6.354730174001421 8.109464780966409 2.393416862856162
Ga 8.41941879483922 7.38634486510459 4.127821053233042
Ga 8.55579713328583 9.130918602384446 6.168258965416359
Ga 8.928251033542047 8.082272837450759 8.541406000389564
Ga 5.562509498030534 6.157417107548117 4.158912260176938
Ga 6.834358765407768 5.6276123159244404 10.960767701872582
Ga 5.660359115478097 8.752021264207055 5.081810508998122
Ga 6.374467008588183 3.553159130389714 8.695935239853448
Ga 6.369664806415658 9.671331203761895 7.716806076036711
Ga 7.680976224170708 10.068170939347905 3.680717653611428
Ga 3.6210903637548966 3.342119476879954 8.179361136893057
Ga 4.8071463118795315 4.706641866790775 6.239850073380906
Ga 6.672361010197439 6.940332555878364 6.813505581134645
Ga 6.444762797087355 11.347690063411518 5.711359101506588
Ga 4.5504025738349245 4.319449562767543 10.53187718045793
Ga 3.8665424762319933 7.472836287674877 6.477197258943803
Ga 6.351651476293437 7.995135462873669 9.749562838853434
Ga 4.898000920154522 6.107927113592711 8.605737487789966
