24
Energy = -59.45673135 eV
Ga 8.909567018635975 9.19672147541144 1.2510636772238695
Ga 6.958076163887294 7.520824067660321 2.3196756258369495
Ga 6.706096187089958 10.440942833898752 2.291304829757375
Ga 8.61897366568123 9.13653711014876 3.9705225959492383
Ga 5.707293965703303 6.548390907349005 4.19166532574528
Ga 9.632106451348312 3.855567723625483 5.256512919609217
Ga 5.633796870364325 9.314328235818307 4.41683376258347
Ga 7.46253739422237 8.186972458547288 6.001990433700095
Ga 7.088882853235239 4.976612387780905 5.827565723675172
Ga 8.056865314260039 3.4385807875295265 7.637987900027868
Ga 8.749953755185299 6.391242654796208 4.1891189764609615
Ga 10.834550033392825 4.187209960362193 7.996090627540016
Ga 4.428469702488482 5.661589586931244 6.239605160314771
Ga 8.906883660203507 5.372304774669608 9.382212419901684
Ga 4.302276966520501 8.320874673286406 6.426526615499446
Ga 6.9184490149132145 6.701818863657135 8.084180559046898
Ga 9.49674688774285 6.443632297976138 6.881795646083278
Ga 2.5306640597318504 4.6077774674116645 7.73574518464321
Ga 5.523028349392684 4.1595860686470765 8.067803213126794
Ga 2.1140817664046496 7.645593320596945 7.817999933802532
Ga 6.506431727014629 5.266550033389334 10.39155096793889
Ga 3.9199286863414207 4.674623053561024 10.160371926112399
Ga 4.508774742822325 7.003328137731718 8.868265674094259
Ga 2.1926719487559834 6.670815524829086 10.353398193726637
