20
Energy = -49.4560377 eV
Ga 8.046643504632382 4.225303664276664 2.7066483004128896
Ga 5.767270349402277 3.1266685559567673 3.5368686168137757
Ga 7.7426945143096635 6.671206881679802 3.698201693043328
Ga 5.059064705022505 5.253919656157836 4.892768687595377
Ga 7.635264721616247 9.339116868525927 3.3500756792615998
Ga 7.83614916124106 9.588189444471073 6.008949168020104
Ga 5.654317756762924 7.919931999493481 5.028665386672504
Ga 3.737082192462115 6.639274418940927 6.722680227979636
Ga 5.800042096586705 2.767003942444226 6.203972819591306
Ga 7.783867938170871 4.547802279270569 5.366895303350497
Ga 5.876760830825868 8.149148201426875 7.541865997512214
Ga 5.49094279031261 9.282902777506228 10.204157447666987
Ga 8.274320447164136 6.9666209719290695 6.398986320502255
Ga 5.870200481507956 5.27557071037839 7.659681341362938
Ga 7.096429266142725 10.389445463729205 8.456690799135831
Ga 8.425658491917009 8.108000576216602 8.851685745226554
Ga 7.880662551916658 3.2608538527990274 7.693553413534162
Ga 3.4654386028105915 8.20806977420028 8.823930220912636
Ga 8.34103456198851 5.489270615678147 8.837002657679415
Ga 6.129556865795911 6.705101175508083 9.930122004315338
