20
Energy = -50.10227143 eV
Ga 6.62544246773464 6.7738390333454905 3.7901773084412187
Ga 6.995007590935543 3.958739087599506 3.940303608178295
Ga 4.964331368579557 8.582239124831974 4.838566792784426
Ga 9.230879538349015 5.521322552090545 3.6406692857897696
Ga 5.547788527019832 3.954118764251976 6.309826575531405
Ga 8.179045806426345 8.292541691410737 5.211739081770341
Ga 10.2591086985915 6.6583669864986135 6.025075851159184
Ga 3.7403172259916437 8.797245437497374 7.561105777221496
Ga 2.965083412726574 6.913563220533501 5.702077357175458
Ga 6.772215828936576 4.891421578282756 8.574948587662181
Ga 6.442200406150683 9.48986396014931 6.906275018915097
Ga 4.360485323013088 5.258190487186887 4.186311417336437
Ga 8.072867126665605 5.097262287156177 6.2247889683019775
Ga 5.4953514535963 7.173337276347445 9.209669640444499
Ga 8.223282412395527 7.464362672315666 7.784323833569466
Ga 5.853748207920734 6.719791709723014 6.491666082889924
Ga 3.809284312425968 5.460461791307123 7.834009238375129
Ga 9.822522033397494 5.335522529680405 8.449418131624055
Ga 7.1129979523846565 9.323971088919608 9.443102879398403
Ga 8.155267692582605 6.961066106696126 10.503171949255266
