24
Energy = -61.28599521 eV
Ga 6.1624095338462395 4.480894419771456 4.025132379497381
Ga 8.214905329015046 6.121072457332421 5.036626040033144
Ga 5.64523622277088 7.135386816034966 4.2575085550491965
Ga 7.168241044317081 3.6958564818881086 6.439580268756914
Ga 11.14970262447021 6.691208872961858 8.211176414961887
Ga 12.024748699104759 9.033598886819025 7.291659974482508
Ga 5.562165352835612 5.816854427048584 6.632963276946735
Ga 10.210260605445228 7.625674994406278 5.780399090262041
Ga 7.6901898913159625 8.693513316134796 5.557823847702135
Ga 9.85235065057693 8.479930720629863 9.581443138981292
Ga 9.599251327447218 4.801460879803225 6.986496388839755
Ga 9.693938240738671 5.28632807642298 10.047738857998525
Ga 8.023585560979377 6.64616291599576 7.792240453787231
Ga 9.530596837963955 10.002423535412962 7.351180507974337
Ga 6.573586616117223 4.5255021846441865 9.081566928862426
Ga 7.2404682510554235 8.96264248793863 8.477853355380821
Ga 7.632780055859131 6.931549990678802 10.420512559777292
Ga 5.051348281979575 8.534364395279844 6.472208606069667
Ga 6.912744314379584 11.059219092171583 6.563990128550981
Ga 8.121439442004997 9.62792238124702 11.191445461117091
Ga 5.482224296901661 8.874645372493076 10.821029630218803
Ga 5.196163011602452 6.968115902260371 8.92156180387002
Ga 7.821916742043755 11.548810213668043 9.24777356730527
Ga 4.950018313640044 10.231369143110122 8.4961399632836
