20
Energy = -50.00843058 eV
Ga 5.976240923482626 4.98192399420752 1.9347822844125255
Ga 4.049394259887116 3.8723463754212157 3.434900954727261
Ga 5.287748989184295 6.488548369964308 4.184325892505088
Ga 7.797613893884389 6.509559136283333 3.089469564664931
Ga 4.544325521187586 8.647043280867504 5.523590702171992
Ga 5.230229200525534 1.7883711965578615 4.56726507187825
Ga 6.823151171818308 9.013967007788414 3.934706457100119
Ga 2.9433497956365215 5.657543859050102 5.043894338330455
Ga 9.182298331545747 4.697117422790709 4.732693207486843
Ga 6.6997705584097735 4.024747557509895 4.371014440979133
Ga 5.038480738566741 6.112221146900974 6.893143924891111
Ga 4.62828927929684 3.544804408351152 6.488515006360654
Ga 7.438650607395846 2.0299610084071715 6.116322731885879
Ga 7.5094525871924995 6.557063659536472 5.859998428151513
Ga 2.657106772727089 4.735928913110001 7.809262977978923
Ga 7.068949943332154 6.529246688341915 9.034767311806428
Ga 7.087018809854919 4.325280528691627 7.448012142012998
Ga 2.496350346903641 7.321221197767507 7.109641192853786
Ga 6.615455280465604 8.573666409365735 7.228145879353386
Ga 4.402322854867785 8.065637705251136 8.671747356614036
