21
Energy = -51.62225031 eV
Ga 9.539593706468526 5.821002954352402 6.898896795288199
Ga 8.212988183140022 6.248003112263833 4.285484961834453
Ga 9.944140030644034 8.062822034946242 4.8925026056849354
Ga 8.646348542732106 3.767712665267243 4.985444812963964
Ga 9.54769092850774 8.548138758893561 7.611774226262882
Ga 6.842462799595832 4.92350109963842 6.651059841440383
Ga 11.833989019223583 7.304634715994808 6.83399497190728
Ga 9.854639481430144 11.130531607441059 8.082506074697381
Ga 7.304849912180031 7.884825216384891 6.105993276637285
Ga 11.726833330835506 9.979865201931965 6.436841389887246
Ga 6.028383185576227 6.105784851343407 10.980081925799585
Ga 8.599521572417876 6.569019743533157 9.222533354323847
Ga 8.232670854857966 7.3128953970170105 11.716846112496864
Ga 6.009528202716548 6.727129542851183 8.286548512943885
Ga 7.286671128720099 9.891181175090221 7.686250560441854
Ga 4.7321595438286606 8.943782867382115 7.39990854682232
Ga 9.053807982988989 9.166886048659729 10.101521423165975
Ga 7.030110301569263 9.797873609026672 12.244037752028301
Ga 5.997903522410632 8.675293672419782 10.073873163381116
Ga 5.26301961268292 11.08908013951114 9.117767131683149
Ga 7.788088802111585 11.496495012970676 9.853431246550826
