24
Energy = -61.55435579 eV
Ga 11.01896526542856 8.763849404073955 6.401261809681433
Ga 11.171245550401167 6.678042584587519 4.650728320730671
Ga 8.993689754905335 5.735176024654925 6.241369390945122
Ga 11.32993461492199 6.295332316443631 7.583456170905293
Ga 9.024515577821397 10.7335645241075 6.555464721732135
Ga 4.185641759604914 8.574935519988733 6.508124966178568
Ga 7.145800225952032 12.250349573101728 7.932323265070442
Ga 8.735734300633997 8.260829047897873 4.92309167948845
Ga 11.057391237065547 10.570491701024821 8.453271772258935
Ga 9.865157464381083 11.519016089962333 10.688188573642845
Ga 8.632164167729226 7.932403052786354 7.731305790930458
Ga 6.63406634283956 9.688822315180458 6.221839393869455
Ga 6.447986524333491 7.005378659117306 6.008112331901679
Ga 7.265125182135455 5.244650871769573 8.174326587247897
Ga 9.267291515052598 8.988992414128008 11.59063092373916
Ga 10.755814482006768 8.181149122598873 9.571572495666699
Ga 7.265410522103563 7.859268738332323 10.2227213767633
Ga 5.659257512596346 9.896774439751551 8.745083782358103
Ga 6.705730983044443 10.497257956629834 11.357609209370937
Ga 9.508127142420525 5.757670875669777 9.505645159101578
Ga 5.2820531098098344 7.219325544060846 8.548008246454488
Ga 8.310480623711362 10.050853781561488 9.109064254639092
Ga 8.809735302448203 6.286373000201443 11.990175808715597
Ga 6.3181411951473025 5.396342663298443 10.647078346411526
