25
Energy = -63.09469081 eV
Ga 6.2408033206959725 7.079758134657294 2.8654696124931234
Ga 5.5367748271224935 4.389709707378013 2.3431277047002985
Ga 7.688717779578825 5.113602886986026 3.831266201622271
Ga 3.869390591285276 8.638100998447095 3.558362432627584
Ga 3.9504710878330647 6.609913716957248 1.4358554488194504
Ga 6.313773154664219 9.784340832413365 3.5063897257666823
Ga 3.8163399799436935 5.832039780112711 4.078040138961448
Ga 9.172453365633121 4.749010518026645 5.8439898092243
Ga 7.946350949759929 8.072572476181001 4.780355181117827
Ga 5.409940165389993 4.049099031844257 5.0966236349713885
Ga 2.5083795080296123 8.04963951527703 5.744601704676411
Ga 4.023253967682509 5.995070050068773 6.6690472866680075
Ga 5.40470335860452 8.21774302810514 5.720693388301117
Ga 9.492901046396428 7.372789153064507 6.819201674442343
Ga 3.6681137823360124 8.387138775922347 8.202243545918543
Ga 8.654334522957535 4.171126306539496 8.226431165658736
Ga 6.56604562884888 8.816575792337344 8.017361403166438
Ga 6.8308967106553355 6.143690188991582 6.559227091080179
Ga 8.017314071717472 6.86787304461172 8.991326564178648
Ga 5.960500201971977 3.6740997329085547 7.539863804833318
Ga 9.242254791884635 5.229605811699199 10.726172376726003
Ga 10.861484089681694 5.921396157517724 8.536428567547137
Ga 5.2690345821948394 6.2249549026056865 9.002403129627533
Ga 6.646272196979766 4.069523342668025 10.02308923894306
Ga 6.610787078975332 6.241916875502244 11.58371992875153
