22
Energy = -55.23648045 eV
Ga 8.579725375862061 7.670192861863847 10.448642557175678
Ga 8.29020902511724 4.362792843686495 6.279885293318953
Ga 7.590443918495703 6.057068618122138 3.9651409568018394
Ga 5.61504958836455 4.223235926136164 6.490292227232416
Ga 10.194719946849478 5.969323740715254 5.356970435447473
Ga 7.094370615546134 5.188669823590795 8.763367862482355
Ga 6.207546014243029 9.006487415082546 11.345604780020444
Ga 8.90568073160844 6.706757089626815 7.594049640013814
Ga 11.196203557454586 8.16342792464249 6.61737925134717
Ga 9.359494262863649 9.21520188315194 8.429788370824582
Ga 6.931701528634838 3.340095333120678 4.1773749511962555
Ga 5.9661974186652715 6.232224711004567 10.881020777848109
Ga 8.718712163773862 8.242674072747823 4.893863799121022
Ga 9.75755064933115 10.438313972847698 5.923389282903701
Ga 6.727664766532892 8.170976366363632 8.591892276268307
Ga 4.588636484037315 6.030670406371519 8.040893372106089
Ga 6.47705785772133 7.1036571997975635 6.2054241729391135
Ga 4.979253505418928 5.672209664955043 4.2497073775324745
Ga 3.845923785900187 7.547866993419437 5.675529052141689
Ga 4.23893775687195 8.181037734933948 9.445192450891414
Ga 7.106765511528753 9.856625553211313 6.401025727160288
Ga 4.610266181503597 9.602800713921784 7.206125649331077
