24
Energy = -61.17287943 eV
Ga 8.783571398849785 5.649270510048625 4.747234021944362
Ga 8.32293305709481 4.871233547512448 7.417138026302441
Ga 7.6208472567733825 8.082311828362236 5.324098485798567
Ga 6.863449354213675 5.039163312640535 2.909304254416071
Ga 7.251943629980151 3.3071869513151273 5.154255392901391
Ga 6.778755156233051 7.127115768876523 8.045745874784412
Ga 4.763626817031812 8.365982484942853 6.102991967519124
Ga 6.184038712484586 5.891964744354957 5.750564743574075
Ga 5.795680908907988 7.423748423993125 3.5090529530849137
Ga 5.555771741589684 6.263674126256367 0.7502985791915804
Ga 5.807342263088712 3.777285755967906 7.717515346940197
Ga 6.076241882595567 2.407769194463602 2.5095379262081
Ga 4.269431702458829 6.063096813284083 7.722081273712679
Ga 5.68384476390259 1.2519717561110308 5.760862095037547
Ga 4.106325145437002 4.581351849861962 2.418135045677659
Ga 3.265274542119924 6.4596089475290235 4.812418540078887
Ga 3.507104339089094 2.473606560977632 6.8502467164093765
Ga 4.673063389519969 4.087940387567762 5.016626102094314
Ga 3.4916782146942955 7.339852055865024 2.2837818852885943
Ga 3.0742656735601734 3.9395719989648543 9.173359027526317
Ga 2.080243524596752 4.830517747839825 6.746125356197488
Ga 1.385402478234793 5.758971690650323 2.0263984377785076
Ga 3.6950298401288673 1.9967486948460154 3.8552605572056775
Ga 1.9767588101096458 4.06485190676515 4.1924544135300215
