25
Energy = -62.9066737 eV
Ga 5.759328100166272 4.812610268100715 1.0967280631682426
Ga 8.18015592032261 5.748324246475583 1.638855571905647
Ga 9.144765253986952 3.904579331776939 3.2854905159549643
Ga 5.9103146649721365 7.092689304968388 2.7281534384816197
Ga 6.475498416565204 6.696228603311011 5.5603785580867715
Ga 3.9049579321498795 6.21738421215403 4.555506106176457
Ga 6.399631579431852 4.521629037563416 3.7562664321903947
Ga 5.565505585681509 9.029778392090245 4.299058360622116
Ga 8.168197359639475 9.117228197466757 5.1869314694777975
Ga 5.280763729238172 4.139869808906266 6.086473407296148
Ga 8.683381316520064 6.758476823650965 3.9974237475947074
Ga 8.26902025654163 4.410927537597713 5.8295206335654735
Ga 4.233512231166199 8.792309063030906 6.488910541383195
Ga 9.67429972393017 4.354575051443184 8.11892252423036
Ga 4.673306692751546 6.322181065867185 7.4873167739772795
Ga 9.14115346067678 6.972308822490657 6.6840834878490085
Ga 7.015594669900091 8.282383618569684 7.634680343670594
Ga 4.128342103955353 5.79316499494718 10.011426014339301
Ga 7.062196073719632 5.143173308448374 8.251193202745952
Ga 2.497774992432918 7.659712889615839 8.595386788194974
Ga 9.124622642697274 6.714856462863343 9.33792621979641
Ga 4.869121572876859 3.5637452121875475 8.660319506981491
Ga 4.879711106640946 8.961421328831628 9.112890905578764
Ga 6.635603579059395 7.095935217356022 10.067012832284858
Ga 4.400394201658854 7.97166036696722 11.6062977211288
