20
Energy = -49.87690948 eV
Ga 6.685246892249634 3.7882688951428807 2.8224935819661945
Ga 6.824473934263636 4.276493509950202 5.68002829341593
Ga 6.492381950755647 6.773462339537366 3.6180943548090103
Ga 5.8252188013869075 6.712222985623333 6.181920154001524
Ga 4.347793688399923 5.367638209818743 3.876011748562199
Ga 7.983391466091944 8.343782144845017 5.1710839624283915
Ga 4.732894606493768 2.878823325743084 4.75100051377414
Ga 2.9094941122637814 6.95132154728676 5.2422002091862305
Ga 10.593934626937502 7.381406566824621 5.5231624953061775
Ga 6.591696646503975 9.662960851450608 6.864574941321371
Ga 8.784295644156071 5.506220299389489 4.255401150931263
Ga 9.251739313982405 8.282248097337137 7.775318231696593
Ga 1.8772417799633887 6.297175168470383 7.634937906603995
Ga 4.1665922024820405 8.849468221218148 6.698652572681941
Ga 4.298337937440598 6.709623043676171 8.605856237889823
Ga 5.413200029174694 2.1876016024734857 7.264944639730837
Ga 8.508133546182908 5.896809306652224 6.877829612111334
Ga 6.819841470663488 7.514784734962074 8.59331678058926
Ga 4.066673598754568 4.671845587825161 6.7938902945970785
Ga 6.531386802845561 4.651812612764882 8.473251369389772
