25
Energy = -63.34787714 eV
Ga 6.116911214172996 8.07781505669839 4.715200582905794
Ga 4.030629099781081 6.546729704608569 4.24751092004975
Ga 10.801358110506497 5.567178403372135 4.727799193553198
Ga 8.432710111409868 9.76695220396257 5.63470586574994
Ga 2.6919757926798016 5.581737580007214 6.357269533425588
Ga 7.87994287166924 4.81854192615191 4.675789031989293
Ga 10.337477234594303 7.2795122997987365 6.947524117608595
Ga 7.464274120025571 6.983473369989265 6.8351644409461185
Ga 11.027697463734068 8.596146115887457 4.5761279674301
Ga 10.883172356777497 10.023937055897616 6.969661650923587
Ga 8.6656224304057 7.3163473838633335 4.358228656654497
Ga 4.748708171954232 7.335684661438022 7.045651713844481
Ga 5.540908498357758 4.870169602020333 5.766506123674977
Ga 6.195081544020997 9.663370151330437 7.0292937619328235
Ga 7.2329366370237995 2.906985477243792 6.854144837227958
Ga 4.3363952011315385 9.174188392404595 9.229835980137137
Ga 4.135693050997644 3.8423504068074306 7.968781989684673
Ga 8.777096874477577 8.901004777110838 8.407988350101713
Ga 9.19520980029357 4.86833078735582 7.119304134951391
Ga 6.916353786254104 10.323227379742345 9.635346318293195
Ga 6.5942166887035105 7.516518161231293 9.5634053023077
Ga 6.697980926471123 4.994533594448986 8.494948975840387
Ga 2.36357551780091 7.361960211994684 8.384567659638162
Ga 9.215174467378011 6.317823203324281 9.487196788320347
Ga 4.375366480565039 6.0219505444967005 9.624514553996258
