22
Energy = -55.18691791 eV
Ga 12.667121032841518 9.97432712990209 11.356517064474255
Ga 12.711052880615371 9.112997838092674 8.645163477479189
Ga 11.443781958786897 6.797781604041834 7.909378422944702
Ga 11.506414901947846 11.476975427209716 8.326787554846979
Ga 10.001740915658102 5.924515597670557 10.111196140824106
Ga 10.241336458968165 4.3142305347624506 7.364449432647069
Ga 10.304158467189723 11.179216791844917 10.67826805029428
Ga 9.081468358985758 6.681056255188843 6.535094595751237
Ga 7.9094840772421495 5.170648002930169 8.616398566208632
Ga 10.563358777783003 8.529378789802806 10.373957418026796
Ga 6.360623270151613 7.044686899211151 7.140647860763917
Ga 10.28394828035194 9.252596733002308 7.377112471775463
Ga 5.23522979208567 9.211369563149477 5.714889849115525
Ga 6.359351556087369 11.39493607357103 6.903681006894993
Ga 8.419934112072488 7.907945602396473 8.962400214233165
Ga 7.950242634778794 9.694393716025239 10.971377565607291
Ga 8.546181914183334 10.870068308979398 8.553332186122185
Ga 7.97037348706217 9.24203070801051 6.233336356285025
Ga 6.1734435936172005 6.88159647492447 10.08893720738603
Ga 5.9465438375010935 11.863942350379437 9.660598422682027
Ga 5.3506595507773405 9.297455326767517 11.092076256193218
Ga 6.04114727429882 9.283750705933434 8.507136576507317
