22
Energy = -54.33259203 eV
Ga 10.32011847408552 8.489465673322856 9.496115631653947
Ga 12.410510830821256 4.954093621085882 10.622060152462225
Ga 12.599102146882684 7.278193971395129 9.03728405793728
Ga 10.44391441676144 6.506225588184501 11.394008621650443
Ga 8.183068543152643 8.989107950800586 8.04064704057015
Ga 8.05878645896956 6.9822422441159855 10.361845438728615
Ga 7.387849639694542 10.341258345707987 5.939783283055332
Ga 10.6856103972821 7.070835092720299 7.132264736948628
Ga 10.178466193686448 5.215336974479442 9.020963914766584
Ga 9.071765979423152 8.038372235535054 5.426730008347476
Ga 5.9004775208428315 7.788290000467343 8.962027576935126
Ga 8.121787042388974 6.013207157719085 7.726440072671147
Ga 6.131809626165429 5.195921876417164 9.769784781137075
Ga 6.989555013576408 11.308265242207458 3.11937619657158
Ga 3.752210574156179 7.108517295890215 7.30905433203783
Ga 6.587740833841702 7.300624814272497 6.07977390482374
Ga 5.212140790720847 9.485246635896054 7.175594650990615
Ga 3.631148922997622 6.1851390473057 9.829379480164985
Ga 7.056320815162901 8.685330945312577 3.7679856201863684
Ga 5.536761153073367 5.09968534581298 7.179235267025795
Ga 4.9609247339349025 10.851270596704518 4.868250646449879
Ga 4.486491677816891 8.076678147981728 4.642790399592087
