25
Energy = -63.0034952 eV
Ga 7.06804606756747 6.13259802012556 2.9650357550550814
Ga 5.733698046713929 8.49591926922573 2.6020103363198075
Ga 9.285719889157196 6.928197714535867 4.25530609406385
Ga 3.327818785851841 8.870137054976684 3.6089438904453237
Ga 3.9353979192944593 2.586830455370634 5.154077278048494
Ga 4.800676507879098 6.52153572697189 4.378750932448113
Ga 8.365694074826925 8.791757099432493 2.4971159912793435
Ga 5.942922540038007 3.901313735707467 3.935940581442948
Ga 9.960683423036501 6.070219892091837 6.557012939755257
Ga 2.248364642369466 6.885915426181866 5.145515250705955
Ga 6.98726574151164 8.542929475205947 5.052948794889957
Ga 4.574331064019015 2.594276667417154 7.868039243479173
Ga 7.284556500065918 5.628340091770968 5.800474112932855
Ga 8.502972241563374 8.195041318312066 7.1926197906954314
Ga 4.524243613346777 4.93973096272887 6.404602848945976
Ga 3.0707082689887106 6.848634480233857 7.608321743472589
Ga 6.3557880102218745 9.76736465660862 7.69851682226711
Ga 6.790534785803613 3.046838552719087 6.30663709968747
Ga 5.809251919559728 7.079234820798104 7.744923351772129
Ga 4.386382191721688 8.881850875292013 6.140966339791091
Ga 8.78213844992573 4.053228310119613 7.790410847700832
Ga 3.725751055841297 4.903502315781746 9.224469052462148
Ga 7.120166829421554 2.2029821499650004 9.07298130833782
Ga 6.349277447201902 4.773562269274623 8.802481950558677
Ga 8.326771919009978 6.61722059408989 9.45105957838024
