24
Energy = -59.66300612 eV
Ga 10.806525284266057 4.7231642392344915 4.622596852698438
Ga 11.049178880581323 5.202747033342359 8.026483512458038
Ga 8.70296941109293 6.435486467946872 4.3629273291224635
Ga 10.545835905138647 7.060802645418842 6.1267513694037765
Ga 9.124654176904148 9.02154971981137 7.17659962027983
Ga 8.524165472807999 6.459882327368689 7.9774150514915245
Ga 9.002013022438234 4.170751233958249 6.647211105979344
Ga 7.447450774717744 3.9183476210059744 4.541892917202646
Ga 8.461358429351046 9.1280658987967 4.553981856908123
Ga 8.165630309757194 8.578121300869759 9.75059723224341
Ga 6.353775068519076 5.097387014905479 6.872049257388149
Ga 6.13085824774246 6.937204645186582 8.944786473594098
Ga 4.007730898087011 4.3356835908798566 6.390886360823267
Ga 6.5774010936130365 7.883392051796194 6.206590950774799
Ga 3.98249906634242 7.100389992744478 7.236939926955531
Ga 6.647864841433901 9.902855413263795 7.855558074832058
Ga 6.071122921238765 10.678260421188533 10.353410091619057
Ga 1.7396651869180686 6.024528640480483 6.141109938371629
Ga 2.3167227532302133 4.151500752799821 4.094711812575136
Ga 3.7807846229070896 6.742345012328239 4.556022116645105
Ga 4.94420708032093 3.9153693145809423 3.9309925929647918
Ga 6.175688448528727 6.446519019242007 3.9804841304387177
Ga 4.3810016140689605 8.964995773833241 9.059742354007623
Ga 6.063221072524826 8.10904377919738 11.442941550885859
