21
Energy = -52.74202944 eV
Ga 10.213843830633852 9.415376593257914 6.493100688233254
Ga 7.779670917801169 10.765721422947152 5.593701028839943
Ga 9.545087824189721 11.75542744100899 7.488763049244824
Ga 8.8986900991596 7.456931443092421 5.082809384860215
Ga 8.882239133599548 12.951377687926996 9.835576028409463
Ga 7.340020908464702 8.533158555408852 7.006582405429014
Ga 11.999000544806393 10.937038259600019 8.359697574337979
Ga 7.475882230281667 10.876938410450627 10.991103341335453
Ga 6.977606753486132 10.806250385352751 8.394701240647853
Ga 10.614641229874763 11.119015170582658 10.808171346820405
Ga 11.236032052256459 6.855676335582265 6.420164798627633
Ga 9.312916258071708 9.532215122493826 9.153452545148914
Ga 11.843189135328267 8.763947595921755 11.453640820661644
Ga 9.001785767071093 6.562878463921766 7.920067547298901
Ga 6.084174535935835 8.747392178563606 12.092977293426548
Ga 7.018024635313736 8.196239719265344 9.647007071280528
Ga 9.177394815425842 9.177840639129284 12.194277929222737
Ga 11.669996286999842 8.281695700125377 8.650088699975452
Ga 9.884684745442815 7.108840599728969 10.416324507799755
Ga 7.388210302267374 5.549739700800897 9.900566830543463
Ga 7.900439959418388 6.812909148736954 12.214433668547532
