20
Energy = -49.77593083 eV
Ga 4.774591950104983 5.59676710011949 4.03581310994872
Ga 7.962619243831098 8.322645449599813 5.262179091410392
Ga 5.6372430791497585 3.3046902182338 3.1800557397116695
Ga 6.221180444530955 7.626394958525196 3.2965346798747834
Ga 3.3208504966125627 3.0232037453191563 4.467616441439604
Ga 9.378943215339852 7.044484782845436 3.40456824073989
Ga 7.477464152781483 5.1961134260154775 3.0100899067578584
Ga 5.184264584410278 9.754204743082312 4.521649055304885
Ga 7.700599432757292 5.593366573696353 5.562295014816033
Ga 6.100244740380501 3.492327001021204 5.8393485471601325
Ga 3.5008479353317394 4.949373936715752 6.4272886339497255
Ga 8.15390256078841 3.916502247349064 7.8875749215249815
Ga 5.277586059232385 7.173248830272662 6.022357211134531
Ga 7.750127042504888 5.777305365407296 9.914308460461996
Ga 6.238465698787263 9.483072047160357 6.936094286679334
Ga 8.07554716470819 7.110537857542207 7.687419410274375
Ga 5.714427051679696 5.071551097364727 7.8814730284501735
Ga 5.83317101967252 7.840791862588779 8.908175955774395
Ga 3.4064606907368367 6.938410920309044 8.162748210594538
Ga 5.109082079869612 5.602626480042457 10.410028697203254
