22
Energy = -55.75056039 eV
Ga 10.515202040503866 7.342669204287114 6.438393766407837
Ga 9.245339575246662 4.874299370148287 6.3309839114716615
Ga 10.322214479504963 5.668633903310545 8.85993029022961
Ga 9.240155414591554 6.479597598755799 11.252336832991347
Ga 10.447217319870356 6.236173367020563 3.893282126256456
Ga 7.72493077903883 4.9894766880133705 8.692071933179799
Ga 9.436558119838898 8.153351254463999 8.77325883673172
Ga 8.661030328568941 8.302872682068227 4.482177134140851
Ga 6.559984516294128 6.683672049765125 10.408986588542767
Ga 6.157734882489164 4.430939436971371 6.6386035502177965
Ga 8.894513319491363 9.968112603415404 6.894139086533944
Ga 6.697463718151147 8.797515287676482 8.44193921514321
Ga 8.046742332418587 9.140179334903758 10.766399427648542
Ga 7.948744285014494 11.193209453599632 9.030255343975066
Ga 7.655556270316245 7.031603610332176 6.812709080547417
Ga 5.5679546651074885 11.032762308692536 7.616047202250184
Ga 5.196606265251529 6.540863494251079 8.11679658076843
Ga 4.506460611983647 8.686143921084682 10.090437940254724
Ga 6.428821818413472 9.296521688427855 5.662920436264611
Ga 7.612358309639762 5.712762447647851 4.413462680845591
Ga 4.000907428876821 8.704820149775394 7.1598668727066315
Ga 5.14559889588364 6.71064612523498 5.200905820810507
