23
Energy = -57.42796494 eV
Ga 10.046782022548502 6.439002347681301 9.001213167717118
Ga 4.509412933202806 7.254262369940013 6.568704546933054
Ga 7.262014099767606 7.121088119327454 12.952657967900553
Ga 13.430926220614353 8.752732269447378 6.68050218938027
Ga 11.502861424837505 9.46406715676128 4.962522998101908
Ga 9.066253114591262 8.934090834409405 8.160786972789543
Ga 11.560056290082576 10.008867205307041 8.251036100469033
Ga 9.883433337327391 6.747439830859419 12.014147001793535
Ga 4.43421506024999 8.996386004605974 8.65571769738238
Ga 12.808139425396202 7.284626842467088 8.873466788966711
Ga 4.991345399818638 11.096436260855207 7.165374886858824
Ga 6.485763401766774 8.93966857457079 6.128516031026714
Ga 4.56885680438309 6.063604264501075 9.082845943189346
Ga 10.11372508782388 11.19822844496004 6.530250816037819
Ga 8.948292920303675 8.784084059144046 5.365227479216398
Ga 6.935163395155911 7.350781708114074 8.210716042260295
Ga 11.036829340572295 8.71855115352962 10.451455653607455
Ga 10.921773008352625 7.4925342946138995 6.801700987921331
Ga 6.751821945509157 10.02666828993835 9.449258217512789
Ga 8.415051597725885 9.022008579391267 11.051016957126715
Ga 7.808442424907658 6.1860673447656 10.322034608613421
Ga 5.64125663328916 7.903599985448621 10.903995177749149
Ga 7.662950082049163 11.254677379815263 7.254701754659556
