21
Energy = -52.06578589 eV
Ga 7.339498554061329 3.0412300958701186 3.1575950054663924
Ga 7.307470838762505 5.682254950035067 3.4164703982097833
Ga 7.811878029893468 6.624933360490487 6.4668770029182445
Ga 9.559794681962954 8.717505166618421 5.5271953758706065
Ga 9.883799082905178 3.7519973833557936 3.6977434089621823
Ga 7.3530148419641055 8.281655105621851 3.94769196530403
Ga 5.540869356800687 3.7791710880050395 4.872175052759841
Ga 9.699898451803355 6.272712314278112 4.6116337114858945
Ga 5.407771261987058 6.499309140834108 5.103017921519416
Ga 7.615210619003285 10.779080318861224 5.0902919373953175
Ga 3.784253282041986 4.785152074741569 6.537504993738489
Ga 6.124704977150255 7.22714919848681 8.414023784255512
Ga 8.297795778002394 3.894617737299887 5.832098938918068
Ga 2.218613364927295 5.8211667797616595 8.40856110833782
Ga 7.839490924806283 9.121761157769392 7.507218344292675
Ga 5.600013729485762 9.11136310286902 5.927988407964222
Ga 4.81933153518794 4.966590152487356 9.17931131540561
Ga 6.517702430474079 4.348311779193621 7.472395208233819
Ga 2.6805879665003487 5.4518824366367555 11.049514177213707
Ga 3.744332068643465 7.554782232771418 7.081087674620162
Ga 4.067240992053373 7.56821926765006 9.953997923412134
