21
Energy = -52.72558941 eV
Ga 8.383106049689916 2.571005886978656 2.830389488681927
Ga 5.865983939919558 2.1924972105667586 3.748388668670613
Ga 6.534427646397142 4.0604115010615525 1.3761623000900778
Ga 8.217666426747735 2.8529063446978418 5.450551483583452
Ga 3.062989368405912 2.2621296102037594 4.851154597061455
Ga 7.281392753979422 4.87895712716836 3.860565362898142
Ga 4.857998590294366 4.5152579851571195 5.28787421068189
Ga 5.6561888110887875 1.8081156782047008 6.264667591468101
Ga 4.101539916020449 3.725954256851405 2.6159720252803935
Ga 4.139361325873933 3.3797657499858373 7.66996071239154
Ga 6.977819064641304 4.52732236682349 6.983148638811152
Ga 2.2947207905754547 5.004912929025118 6.737467295369984
Ga 2.4413210856208236 5.271232476631608 4.016144176378916
Ga 5.1795294875972795 6.296511677793998 3.19294626368866
Ga 4.888717292139718 6.02485648562194 8.18578213849543
Ga 6.792634955194665 6.85723994379451 5.5401104774491605
Ga 3.8616550894517347 7.073013548836962 6.0608939143241765
Ga 1.0568639679773717 7.328388505514226 5.46484461419106
Ga 5.85446685930749 8.578053430528335 7.431376452936694
Ga 3.047581903509373 7.942517011832578 3.624986822849096
Ga 5.286959107206485 9.017617427713981 4.732454773301486
