22
Energy = -55.74137859 eV
Ga 7.0137966177269035 9.93996064324623 4.546421717103743
Ga 5.817075957698983 9.006747531017549 7.024365820097244
Ga 8.252567061239217 7.158945874237674 5.602574640742983
Ga 7.089642719229642 11.55267062152436 6.686571887373243
Ga 5.674871029893411 7.594202582501365 4.763942687739938
Ga 7.106619309875395 9.967777061208032 9.119869569486104
Ga 5.614290198711115 7.734462814413502 9.381301081591259
Ga 8.925092273121937 9.470945000424434 6.721281863757214
Ga 6.545232768782058 5.0328279237228015 4.764391385272558
Ga 5.815338667348086 6.160949213736743 7.3196729166012
Ga 10.291882134103297 8.875125946313737 8.969334755312476
Ga 8.11668717102974 7.336784228892295 8.429335938095932
Ga 9.135848969216193 11.747090390879903 8.355765693018794
Ga 10.494529287467499 7.1313880180359135 6.998299237032697
Ga 11.292769600507013 11.238540513311808 9.987022325541334
Ga 6.821775633136037 5.274234554303725 10.074700523590222
Ga 8.791374644957143 10.40816457029016 10.938206227797405
Ga 7.634217620562975 7.995599046407655 11.146587179402614
Ga 8.137151067905318 4.710669980499823 6.974192273326261
Ga 11.06211185595122 9.075857637436048 11.719927504869656
Ga 9.740926901475307 5.0913076660299845 8.927418719887916
Ga 9.915399455968458 6.72930085770704 10.869007059375873
