25
Energy = -63.90608757 eV
Ga 5.155637077674542 6.437500349765818 2.8859517109185737
Ga 7.812614491265702 7.3372083785334326 3.168857319338383
Ga 8.794026206531038 4.824261592439618 2.6944341135321133
Ga 2.8970098697555526 5.905872572387109 6.844299701433989
Ga 9.143500621804165 5.1149268282832425 5.39756135213812
Ga 6.690825071405798 6.531333968181839 5.416172998487171
Ga 6.251958902316934 9.257211929417675 4.1768674444973675
Ga 4.201789122581735 7.6888473835983415 5.213140066864818
Ga 4.33549329113454 4.749590842034591 5.032482179141898
Ga 10.615338053497808 6.652267019074305 3.5851851696239065
Ga 6.6732429907812305 3.9796402450783503 4.006186449684339
Ga 9.253732448178498 8.022056337325001 5.607444847435794
Ga 5.51352279360847 2.1214962693817148 5.561110484387482
Ga 9.594472810712531 8.57799992596481 8.2792694703466
Ga 4.4422174166336905 3.5289778743302698 7.565011233641379
Ga 8.397310700606534 6.12969630951483 7.767176703403941
Ga 7.147880821046158 9.134214376993274 6.781355116156542
Ga 2.3081555981309863 8.031044716555153 8.349989482523519
Ga 7.147633096096759 3.97409494566854 6.872002392657712
Ga 5.528684391247431 6.335684524607342 7.686867784429361
Ga 3.765980328794278 5.247270987280655 9.449696466679482
Ga 4.7049170516952215 8.985338890979978 7.539996248646175
Ga 7.190349586378274 8.069575483684872 9.391621334297946
Ga 6.744022919350868 4.727997820992845 9.674444247905459
Ga 4.678694171633204 7.624900260787508 10.041885514689671
