22
Energy = -54.67458709 eV
Ga 7.8053861762371 8.3003461085787 5.017310656320248
Ga 5.730640426059623 10.166365727452787 4.962136435684566
Ga 8.017829860755748 6.032984117290068 6.650397383628811
Ga 10.215389187033644 7.3858118568485285 5.3645126111869
Ga 10.493378524411394 5.265268480164087 7.0991276743186535
Ga 11.718473351237085 9.31669406985587 6.934476815526827
Ga 12.74936109255845 6.570579094672106 6.127702078550559
Ga 5.160556553341765 9.639273945154306 7.66028203444144
Ga 9.7698298364735 10.26244430710963 5.264054696797683
Ga 5.399542140414169 7.537327777679356 5.921236446923019
Ga 7.709994440197177 10.623061425379499 6.9610384641719545
Ga 11.494500955433159 7.309666269409623 8.615176124964071
Ga 6.920834782003885 7.714493181045125 8.712600701721666
Ga 7.302429198865601 10.360478238787888 9.493502407017644
Ga 9.235567549838523 8.537206594207877 7.8126098891295355
Ga 9.195056218921216 6.236833918860681 9.394455069506925
Ga 5.5525409708491384 5.5882410276410015 7.441466555898917
Ga 4.226054835326327 8.060226509897921 9.430833242133007
Ga 7.576183092412118 6.613855019938343 11.353261805358427
Ga 6.212220762678758 8.873980457359483 11.202888844949227
Ga 4.51364715591178 6.877508651723692 11.970201875446875
Ga 5.655464010408935 5.376716453059334 9.965381309681765
