25
Energy = -62.23689868 eV
Ga 3.603526494880852 5.129350327249411 4.0700576105855495
Ga 2.1850329221889777 3.5747460653287684 5.737893698008566
Ga 4.325981967645135 3.4277516767665075 7.418234823810039
Ga 3.4648142763248266 5.891334421878112 6.78094197486431
Ga 5.524578701181097 3.5111039081013087 4.79351103252786
Ga 5.763545756099575 6.480707988833372 4.5164014876475385
Ga 5.2721976536182895 5.412381025152095 9.471547733248041
Ga 6.649569378257803 2.62187628700033 8.065650222401759
Ga 5.686712550838513 11.880597304921416 4.872433041356483
Ga 5.0710566923600355 7.668326378619501 7.52767965171726
Ga 5.381144851236874 9.226595832532047 5.161697617177657
Ga 4.483314459912912 10.525979867042288 7.345787555809508
Ga 6.3532864195687 5.248127676464145 6.850876757224972
Ga 7.901198396013072 10.60222438163407 5.626413175113945
Ga 7.78711461151172 7.896884757209348 5.289486032476471
Ga 6.956406355592808 9.590773225956587 8.04368242222225
Ga 8.138824581526919 4.535746390575531 8.962614623259336
Ga 6.619111155296771 12.171519575770409 7.6101214611577985
Ga 7.637718605823043 7.0552468646971045 8.3711098490741
Ga 7.87766442212212 3.01392950907859 5.602977480059794
Ga 8.823565494630536 5.621609691142014 5.841637473594681
Ga 9.525381061056502 8.870797913271202 7.165694855132135
Ga 10.000579236662139 3.4145131158014177 7.168375471056579
Ga 11.353873852102655 7.221695531583755 6.085288339103889
Ga 10.27927108469603 6.060735151308807 8.290349118502828
