23
Energy = -58.00574835 eV
Ga 8.532048671158485 4.287200095720384 6.261477073169092
Ga 11.028070146981477 4.923955614509482 7.212910142750643
Ga 9.393822710736563 6.868126607463591 5.8704717965534785
Ga 8.463571237479423 5.547653299503795 8.589995378262786
Ga 5.739733212429934 3.888333033027852 5.355725859647231
Ga 7.261826832216381 8.169893765878165 4.773173642713206
Ga 6.4328644009486515 3.712869171480521 8.015367551625875
Ga 8.538588489640045 7.33292782208789 10.456252298262003
Ga 7.516510716806803 5.652724546045217 4.026085715688618
Ga 10.601156618885494 7.290631929949273 8.391308904185333
Ga 6.217004758286005 6.338377951860044 6.5179755295759865
Ga 9.883340762467672 9.353866836506635 6.454160711455092
Ga 8.036777128119631 9.668629119731412 11.429012412139475
Ga 7.650329977626226 8.13517986117845 7.837099791136549
Ga 5.8221063500195 6.0022542682126 9.195805588038224
Ga 9.55974089360136 9.674791724541876 9.170193828560778
Ga 9.133396739649669 11.789679213637669 7.320104683032628
Ga 5.943006039286497 8.525102739517722 10.148436493740805
Ga 4.7823621417959785 8.630329481991154 7.287401720678418
Ga 7.12556631735393 10.436394454977226 6.153743083192783
Ga 8.370940386594842 12.118196187366543 9.872827483599961
Ga 6.38936280657882 10.570875866174193 8.59327567684219
Ga 6.038402926813953 11.521562932637147 11.249584226801883
