20
Energy = -49.49271492 eV
Ga 5.311651264274635 8.749775570778427 2.9814215909759434
Ga 6.828962147862071 6.263941178658769 2.202364117000392
Ga 4.09215836693713 6.145638706203778 2.482340467183949
Ga 8.46175301140816 5.7277453544566255 4.232462442510774
Ga 7.4914407527577405 8.43961132676134 4.2148601359008415
Ga 6.153548835415834 3.5804648795414216 5.99325910261034
Ga 5.703633487228152 5.894435438265616 4.653782377602326
Ga 8.690502010472079 4.651295835859149 6.582028179576692
Ga 3.5631857166015766 7.713221818934443 4.782568638874248
Ga 8.721066013713902 7.802832999676226 6.366396779992074
Ga 5.642054417379588 8.72340726351932 6.15555105762343
Ga 5.12092972097577 4.147211636881489 8.533853959000732
Ga 7.751715465379783 4.304706970541678 8.94416239856897
Ga 6.538170496431876 6.298524009838345 7.094711763898973
Ga 3.827637555187841 6.1580074411736545 7.063028964057267
Ga 6.666613024972681 8.878517146797568 8.412938321458936
Ga 8.844260802778795 6.927648865952297 8.727453789241272
Ga 5.975322769037682 6.5365139217064225 9.68229195776726
Ga 8.081226580908632 5.74292995366216 11.21727514455744
Ga 7.76168208613469 8.541084206649412 10.904763337456442
