24
Energy = -59.55847489 eV
Ga 11.391479608596567 9.195137161773502 3.930828179656808
Ga 7.536145061505862 10.289547218425014 6.840608056452484
Ga 11.361620467026746 11.051198673996575 5.9325466324493
Ga 8.91433953103597 9.995267411830847 4.756910674422477
Ga 5.312881998774024 13.079966139350748 9.491648497042073
Ga 7.914416498630503 12.620335154086652 9.048058050138117
Ga 8.238277226617184 7.653409448985064 5.64506906968288
Ga 10.627566449099744 8.611585684585679 6.697065414245001
Ga 6.07694868406528 10.389856651110973 8.934876433778516
Ga 9.829283696293448 11.031505822123695 8.013193363778154
Ga 6.516227797617304 11.550736349623675 11.523962636748704
Ga 10.207697867000748 8.529085271548118 9.378360472764705
Ga 7.503208520718276 8.143635940917965 8.657888420155187
Ga 8.79170093071622 10.507252777152388 10.412210228078628
Ga 6.507951814495594 9.003350494791247 11.240816490228683
Ga 7.477036464179729 6.637447779900466 11.113407341895117
Ga 9.623060938878194 6.398451704359577 7.606117756831007
Ga 9.456303681032255 8.422877435681862 12.210615667767602
Ga 6.410907696675455 5.956098905913851 6.4044029459925795
Ga 8.423049500074878 4.184359759163766 6.317294532417874
Ga 7.101961817763998 5.487066871037933 8.830953695265409
Ga 10.054206979050141 6.1213262693890345 10.295456258576182
Ga 9.435683448538063 3.976294498359656 8.745517702240008
Ga 8.371255904239662 4.086598362475546 11.275192888993438
