21
Energy = -51.94929956 eV
Ga 6.554668647471634 3.0348997707933107 6.452216049821872
Ga 8.602385851937985 4.742149324638146 7.411878063757035
Ga 8.826147656941306 2.621256141217963 4.9775974977047825
Ga 6.611749395824345 5.978969707948991 6.031399093920712
Ga 6.048900319466463 4.858720873950483 8.492134159665227
Ga 5.2317823317281915 6.130254907445271 3.5245337367217955
Ga 6.867914427315809 4.1498331627253355 3.7636294087569198
Ga 4.176034869635814 6.430194549778284 7.429220717063115
Ga 4.347911173028154 4.34647066913826 5.760895820679115
Ga 9.221845286526756 5.322219224773764 4.667568530707701
Ga 5.013050366091041 8.865940557162022 7.883878590163421
Ga 4.958705125706758 8.00295200521321 5.268236630385315
Ga 7.69931852181966 7.498678287943693 4.044341640022033
Ga 5.653655215191848 9.830811373798396 10.268862849271848
Ga 8.994087259285338 7.264628807419625 6.587274475786228
Ga 7.1797584045169005 9.229594422688042 6.084667007143564
Ga 6.997699260782093 7.282440385939273 9.066075010684376
Ga 8.680650872201364 11.264361139635437 10.144393274823079
Ga 6.965325511449938 10.881853785415826 8.147170821499708
Ga 9.023308957913121 9.063584169414396 8.500451450542556
Ga 7.916132044238797 8.76711168519552 11.066293518426919
