39
Energy = -101.79070929 eV
Ga 6.852936830225463 2.189857278326863 9.041435400181468
Ga 8.29887015342076 4.1342219449068836 8.081244384249139
Ga 10.466034304641472 5.344168878197056 6.726552712718263
Ga 8.093222180469446 6.690090999533705 7.3335354125403125
Ga 5.376007212592753 4.440652409009471 9.56602943055024
Ga 7.786465990111046 9.142024812751004 6.448577251366965
Ga 5.3964777289604795 6.7250672827907785 8.134134411568272
Ga 8.721971604418075 3.634364227004447 5.417337234414848
Ga 7.283611292215388 1.646780813086457 6.454411147776302
Ga 4.530859599611729 1.8175687469906114 7.832939851934228
Ga 8.804106128660145 6.234851448457307 4.614857801074303
Ga 8.598670212939219 3.951176034012194 2.6761293993056343
Ga 5.909489986045766 4.33842317767314 6.677528265802331
Ga 3.7240264918381794 7.948118889295812 6.449958756784555
Ga 3.2784728020286993 4.453789162253608 7.797991451159983
Ga 7.8818506937856085 8.58173742421683 3.741989009462617
Ga 5.4833980166666265 9.864225823796536 5.365367109344357
Ga 7.780574047910245 1.3865937564753241 3.7730320885143143
Ga 6.103764034508842 6.997127936629493 5.424432629849277
Ga 3.0824209517282166 9.730077405821572 4.289758706093594
Ga 3.954251959124539 6.384665090904384 4.139456349548766
Ga 5.0031215247380265 1.2288197390395164 5.15930361729031
Ga 1.0430356741491822 7.9263372410929716 4.2814139205498645
Ga 0.7264875279141573 3.707077702395281 6.688410275911911
Ga 5.369031824611611 8.628633564636703 2.889571212385336
Ga 2.378147016251785 1.4990357007698032 6.41528044306564
Ga 6.107341163132674 3.7711005389760253 4.072626304838822
Ga 1.9876671746630221 6.006259306474665 6.0324230991056
Ga 6.698484072464003 6.150589575758864 2.8197816604360884
Ga 3.625977335046727 3.755811739056264 5.233823778874997
Ga 6.189668335995014 3.9488416889029256 1.126869893886864
Ga 2.866957024210138 8.25290372846072 1.817615345973914
Ga 5.444566764440845 1.4662374613923548 2.3266011458382607
Ga 4.484929322313277 6.169452846045309 1.2384209768758858
Ga 2.804444729470627 1.405519039027241 3.6620986822449044
Ga 10.466034304641472 5.569771618426191 4.724065017434984
Ga 3.5977623478194465 3.766208712295307 2.384973188171916
Ga 1.7558994872253924 5.849637960662292 2.5830462996782813
Ga 1.212179099127562 3.583951869970638 3.8477858304107384
