35
Energy = -89.75687243 eV
Ga 11.667176471540529 6.020215955302323 6.509469678852886
Ga 12.11075448226687 4.079866576591497 4.765203310509468
Ga 9.699299811967437 8.292622442303417 10.029450340915963
Ga 11.55344657819623 8.065030870858942 8.112158426109266
Ga 10.136699656677402 6.082395445089028 4.1993301060031545
Ga 9.839128268029903 3.81262068835277 6.463028100800269
Ga 9.77421807210059 3.310293940198374 3.4887524851663834
Ga 9.435392128756579 9.586613714299364 7.356099599924479
Ga 9.906539363263631 5.7349268676731855 8.845524411588572
Ga 7.872550306514889 7.395401232423834 11.83062868388399
Ga 9.153968274542583 7.123460396832249 6.492286820117839
Ga 7.8415059344000255 7.439420548878974 4.160153848783123
Ga 7.733545613109463 4.50693112257499 4.831824337330039
Ga 7.226759737580713 7.764916803059003 8.653476613384802
Ga 8.250012319605771 5.275419296695072 2.226824293334855
Ga 8.199577131028542 10.355019555931653 10.251889323960949
Ga 7.562013487671099 5.346428912597702 10.089817756740718
Ga 4.895580620301026 11.90353525740071 7.216264234468124
Ga 5.4559865598439155 8.13516768332261 3.3432634338331715
Ga 5.6938019021298985 5.261765938346862 3.136411570098536
Ga 5.88032207013455 11.783029657936275 9.933065742554243
Ga 7.109007724550897 10.505071491588728 7.726404581223974
Ga 5.09608193955217 6.654079094628318 10.344951214575055
Ga 7.597543570484732 4.970141522923327 7.407915440913683
Ga 6.132214766228714 8.732563616479927 6.026000833753273
Ga 5.62720421343377 5.94434428930117 5.770440418202314
Ga 5.93377127223303 9.07030468446113 11.11184986948354
Ga 5.33524528608732 4.570997742220234 8.465735104397995
Ga 3.247985738180708 5.333990288580379 4.129536882344698
Ga 4.628844716599676 9.554332731114501 8.908939005118057
Ga 3.2413930680795087 9.86765218045991 6.581516995388765
Ga 3.4450330203249444 7.736956900917561 5.137757023228877
Ga 4.266124221920947 7.247706595211123 7.787253928962765
Ga 2.921656087400637 5.2492243151683855 9.520906298986699
Ga 3.075881201661831 4.915843150741175 6.781770283469103
