35
Energy = -88.93300712 eV
Ga 9.282731736344552 6.949675686205068 8.375284246026107
Ga 8.841946981503801 12.672213478703702 7.757109742602525
Ga 11.794277465169461 6.54728856851486 9.835935256744202
Ga 12.405283687674578 8.5862144913009 11.576103382458653
Ga 14.442983561086464 10.265982134798564 10.717478575976235
Ga 7.9847849771294435 11.438877628416416 10.108890552413033
Ga 5.043513116806552 7.362792000047127 9.961914053345685
Ga 8.577083852499033 10.783374706343752 5.268449611613969
Ga 7.925123877865273 4.5720936793643965 8.109350007746473
Ga 9.96390842714587 13.349179122074693 5.4047612964542155
Ga 11.531911856036194 11.9475263900288 7.0237028115770785
Ga 3.0229515951141344 8.943181943045728 9.334392494910054
Ga 7.738964992226009 8.631039558386698 10.009876003920981
Ga 5.767056120822533 10.716702066145052 5.491331194413148
Ga 7.443214756769916 9.33685901911824 7.3017125739118285
Ga 10.116221633641755 9.805778987754405 10.81274918121724
Ga 5.362701274817195 4.786477327118511 9.421411999910463
Ga 9.12625231413061 4.901933562154985 12.777574714102519
Ga 9.703284882764159 10.181043510478107 8.213270705046739
Ga 9.98590733561029 4.777217838648163 9.902711207780836
Ga 9.873337148241417 7.217711015352368 11.727399991581741
Ga 3.6636238736679383 11.136270502219656 7.887426460057931
Ga 6.573815706276779 6.759686990483533 7.676255448074524
Ga 6.3660522606078 2.349558193889671 8.868663194682748
Ga 4.7986650083433435 8.619359749540823 7.022127672417301
Ga 5.556498716696718 10.042299663133011 9.605165102759521
Ga 11.522623170904309 8.073421975032474 7.61795082317179
Ga 10.737986857124316 9.519501296946544 5.640318167794898
Ga 7.185612531989146 13.202037940448635 5.485074582812514
Ga 7.426368675966705 6.154730968086848 10.81924075131411
Ga 13.53968176606018 9.876017808857858 6.826195278281016
Ga 12.175933731940638 10.508620000172169 9.252679060084855
Ga 13.831243363736517 8.073030239607284 8.999432812046278
Ga 6.286927103271502 11.989111993078891 7.876011369808154
Ga 7.870951114346495 3.4635774872510092 10.841292273093062
