37
Energy = -95.98363288 eV
Ga 0.5972969544811104 8.266746761362025 4.778522802597524
Ga 7.656642266944265 8.868059302641115 4.6843278607039345
Ga 5.70885110466174 8.068813852761 6.4875365259782924
Ga 2.596423170777917 5.149042473759877 7.900740425786028
Ga 3.034524471888295 9.080038183560605 4.106071231284262
Ga 3.384384998028993 9.424316618719944 6.978937930594152
Ga 6.543308080488619 6.544133670405327 8.46878760414399
Ga 3.3748196579606455 6.887442526341867 5.721749330136335
Ga 0.996459563842566 3.2073413094884407 6.38563017797942
Ga 4.887063051239303 4.309335389769183 9.33698929934217
Ga 1.43939967579796 7.602665824097199 7.557367661749845
Ga 3.6643775143987734 2.630855972901269 7.112629744876199
Ga 8.904018990215391 7.213362305723332 6.411650813029931
Ga 6.91512051702888 5.901206936333091 4.852321082698801
Ga 0.7146608689378589 5.676914679491179 5.495836542266479
Ga 5.149044297250318 5.040922794192126 6.642616394607053
Ga 8.200684789327678 7.3309874146083205 2.654030522528874
Ga 5.156897332151161 7.566646394303643 3.3593415603300474
Ga 2.3974296171972482 6.5114381205307765 3.2037361689395376
Ga 3.1460027308395526 4.306815806362686 4.8771405477552845
Ga 6.324853118089943 5.346190574758481 2.0574411747964585
Ga 6.286825704123412 2.5294683167951804 7.616984730464508
Ga 2.375980537935212 1.4702873715430975 4.94706411215025
Ga 5.638108874743712 3.5898569457588603 4.4364807077550905
Ga 9.581005445482342 5.629395711154414 4.294000879466907
Ga 8.025247735623513 4.6909784403404196 7.23336280314778
Ga 3.8123124718346793 2.1420181630906523 2.7739881572175626
Ga 9.663731037893353 3.2736321583187227 5.596508489562439
Ga 8.1989735562317 3.4667116995069494 3.150832195837592
Ga 8.944869813194616 5.193865891126604 1.2092493654616938
Ga 1.1673135146112181 3.8150931308222047 2.976006256447956
Ga 8.90150770995671 1.9593281949994628 7.8537990230010015
Ga 4.985406297028241 0.7998547983764916 5.366171405956513
Ga 3.8156917635795677 4.6708456970580245 2.0132746043435192
Ga 6.4330429148466175 1.4916533670769552 2.8290725449936875
Ga 7.523978573504133 1.5977974002561177 5.353211152833954
Ga 5.337319085861331 10.22951360966253 4.760165977233433
