38
Energy = -99.03424363 eV
Ga 5.2664060736681 2.4792616972830492 9.608431110613314
Ga 2.886396410123295 3.430955333819483 8.320475826902117
Ga 4.269954046191037 0.8113826214835561 7.280990283722454
Ga 2.63006387503754 6.060644475245254 7.327756492679625
Ga 4.6560001548342855 5.343752592235875 9.345013158836801
Ga 7.214331725173262 1.5105490770073497 7.361823356632345
Ga 0.9852479520749995 4.125201936865677 6.4806889830809125
Ga 6.942442338446774 7.281982418609542 9.043890775660046
Ga 4.285824191670551 7.941999747101558 8.439857361206352
Ga 3.015890663270507 2.4984101239029357 5.465399920907451
Ga 7.168534176519303 4.262734701793298 8.476184436749472
Ga 5.127127798899801 3.464358247732021 6.845898246457061
Ga 0.7258519878678762 6.7146667301363 5.240585912150378
Ga 5.80704927615139 1.6417106089647242 4.8921681255240435
Ga 3.752609707509013 7.9111761301499115 5.695548468455174
Ga 3.1625194674853954 5.315757855880798 4.608738469500381
Ga 5.516693608413714 5.963974043135303 6.7455583161207135
Ga 0.7690203425621178 6.094862042281131 2.5199701796917036
Ga 6.447798524290786 8.534901002978776 6.419483145251338
Ga 0.9390212949112111 3.677699222696806 3.845316334400518
Ga 7.837232136128124 2.9572749943012226 3.0569321257363695
Ga 5.474053096650173 8.923747257130712 3.718500986569145
Ga 5.3021854966077875 4.138095267148247 3.7555839559916566
Ga 8.99054238030146 8.599843985077507 7.5452233854234905
Ga 6.853736557920668 6.3224575182886795 4.554874720619324
Ga 7.770388892343411 3.6508398746718136 5.702110333166
Ga 2.800918005046944 7.858580757782451 3.1673239651697975
Ga 5.597837524643011 1.7146982224795888 2.0469696123715866
Ga 7.895824596107012 10.126772282118557 4.634979721509579
Ga 3.118951084725282 2.4582174847840843 2.7662134302933765
Ga 8.423829731656125 5.997655630923349 6.849472894109279
Ga 3.1189461932105025 4.961090447703998 1.7152315727418146
Ga 5.1062666443082785 6.647202947050772 2.3907587419522582
Ga 7.570781575946656 5.6437370952704065 1.7313193939275373
Ga 8.05665751167432 7.922376367558506 2.79534969081133
Ga 9.606948958092428 7.683326437659233 5.011181453257476
Ga 5.547642918717455 4.223856363675637 0.8414757773987853
Ga 9.410831388815952 5.215772899217615 3.9005933960375234
