35
Energy = -90.81879438 eV
Ga 7.720848878792278 8.524930515493713 5.637517475848631
Ga 4.9240820470285005 4.234750376739647 7.651412905216943
Ga 8.793353944767285 11.214512183762968 5.123039607920458
Ga 10.173090488272669 8.929655691774038 4.270991816150893
Ga 7.344819642946823 9.749190943185033 3.1573387677338047
Ga 4.379354483591312 5.023698135169325 10.51615551265957
Ga 6.785738196321366 2.834216714658678 6.278793833465906
Ga 4.3073838693264115 3.0305328509013885 5.015469797782533
Ga 8.375184233178352 6.990595609472217 3.280488151706185
Ga 5.361314181881235 9.97291214289968 5.560461174790281
Ga 10.01961366695697 9.479165211271923 7.117898279888827
Ga 3.9597271125509734 5.40901679199943 3.246063803453201
Ga 3.326998169353521 6.284858592798471 8.39920236673445
Ga 8.548296248703947 2.715112054665987 8.361779957476848
Ga 5.7435143013500305 7.624456163974965 3.8343614338278105
Ga 7.3596238396100295 10.804657485809583 7.3401035776842525
Ga 9.776723465948187 6.8458232587277585 5.9293758595047725
Ga 6.6955302945295045 3.1462683963982077 3.3771869081760904
Ga 2.9998283510241692 5.179946375326551 5.934295954510925
Ga 6.69926701423008 4.022332329411826 9.678868103414656
Ga 10.781970592829254 7.2376594833131005 8.56123245720345
Ga 8.777230137832682 4.616510895803133 4.733755164668442
Ga 3.551462772794024 8.17233922998642 10.440260206940076
Ga 8.69368675829465 5.884769070161228 9.697078568207534
Ga 5.999747934550589 5.299963918310233 5.072655753825394
Ga 5.616276726897574 9.610549665731451 8.977815495436856
Ga 10.129814802335375 4.64848266475399 7.2623646743737345
Ga 3.3607729363184387 7.768078158987548 5.002262683615153
Ga 7.974602891962293 8.207415396323324 8.286747269859504
Ga 9.4288777714747 2.15411886214265 5.819355922727604
Ga 3.458054396614056 8.992058708556282 7.440877979486915
Ga 1.3116278406023452 7.1761752501089795 6.8466502504800895
Ga 6.073296106623952 6.9567843013128 9.65083334991727
Ga 5.5984438352486565 7.359342026065572 6.863640313241012
Ga 7.541636100398952 5.490914510737299 7.2254584519924165
