37
Energy = -96.19157651 eV
Ga 3.4837914450589924 9.634019250277623 0.14277475212589036
Ga 5.379175833483171 4.755946819578423 8.830487567775641
Ga 3.2589992783337616 2.968888686204232 9.565772061720105
Ga 5.928697860191466 1.6718435814198818 0.09378307762358791
Ga 3.587504107455037 6.081526415050714 0.8552621362421456
Ga 1.5359341499366443 1.4026934267350475 1.4185437090223085
Ga 6.571493561347916 6.454635267987955 1.7463182668009112
Ga 5.73632761351203 8.994740965474591 2.2776619693835447
Ga 0.744928666080425 4.404737975661156 0.6669371048588084
Ga 2.7248562529397216 3.902497190195213 2.4301373789962266
Ga 2.844912598741492 8.979528108801329 3.1530945641146157
Ga 8.070901017839436 3.972983593290571 1.142540469250051
Ga 4.13930833850991 8.193253680970695 2.8511334561979624
Ga 5.405596992414967 3.9223538212729574 1.7114303704519027
Ga 4.21671877136868 1.5201847446686925 2.2594544403302756
Ga 8.983291128271077 5.722555469230619 2.726799600790631
Ga 4.537793448939969 5.624464126875967 3.591875964348055
Ga 6.990773594492295 1.8323078985805636 2.8672014303743047
Ga 1.7830125153044485 6.52153542047989 3.1267382021846206
Ga 4.975432569216562 3.055772770290038 4.379393147747016
Ga 0.2424746411449267 3.1065359472799123 3.273622834248693
Ga 7.276927953245071 4.5802194903380276 3.959397951050734
Ga 2.519559754002626 1.7742072574179073 4.312254233965991
Ga 0.25230282543369376 0.29580436846259606 3.7203419415697634
Ga 5.100047246826031 0.3470628063754099 4.8428130961317635
Ga 6.234829448282231 7.21382274283364 4.947222574572359
Ga 2.691485350352139 4.324745104238443 5.07558359952826
Ga 7.13102236141722 2.373171791596808 5.92832919164401
Ga 2.341465099801679 9.700113433168738 6.335803792640067
Ga 8.070901017839434 4.098809786175001 4.772477055086028
Ga 3.807469268197076 2.3283667654771962 6.935073332608751
Ga 3.158395150972617 7.049400461632699 5.6173876723977685
Ga 5.221528710489699 4.902463886274783 6.472202396580536
Ga 0.4407008912802984 5.620815861934878 5.56098547675822
Ga 0.7945707464117784 2.6903930973688843 6.287265695982321
Ga 8.170213924896721 1.4950653244444347 5.389659503677284
Ga 2.389373139479458 4.99028731262684 7.7099198775482725
