39
Energy = -101.93489689 eV
Ga 3.7908834014279367 1.427027823023949 1.8380815896143217
Ga 6.23076017353305 2.1010827777104737 2.8276006391422164
Ga 4.97461684929714 6.00911381111276 0.007799403169258816
Ga 4.379582634001945 3.4840060305657237 0.4029450591162646
Ga 6.7053365317088565 7.383963073796326 1.5405243978089644
Ga 8.694622403500492 5.949138105722576 2.995320772200317
Ga 10.598135688120946 4.519558951657804 4.61660595704652
Ga 8.545827220517038 3.0733393090978343 3.517302588101231
Ga 6.451471120147014 4.610279480858436 1.9461805519747475
Ga 4.384430883709781 0.8500645179100084 4.617712842576788
Ga 1.6149725334554466 2.949274365689942 2.635232512954412
Ga 2.4723226003579755 5.22084694303427 1.7024147724198266
Ga 3.1198197836949344 7.823916316036744 0.999426624429972
Ga 4.892229305279194 9.11071732904083 2.6600265486522443
Ga 6.763490842626507 1.726516711364291 5.643713150369903
Ga 4.121803966091003 3.6414238028771315 3.7764254500492904
Ga 6.942657217076662 7.782474710108324 4.235084118663219
Ga 4.569100056997469 6.28572591585804 3.15954896031853
Ga 8.762898559496497 3.4143146621431804 6.3811192603874165
Ga 1.7556454934302015 5.1075753759005345 4.402088372506607
Ga 4.379119988793681 8.36351495118923 5.204405511978166
Ga 4.275264460249929 2.7572505830222855 6.529391988644855
Ga 8.731654497824929 6.268501664616152 5.716373212226228
Ga 4.247951915858969 5.621802819665933 6.090159502680477
Ga 1.9092498320528621 0.2486562100120578 3.4626064703179726
Ga 6.318678711748191 3.977459829032103 7.39802314311056
Ga 6.593392824170189 4.763886236213429 4.744784750996722
Ga 2.0107789690499964 7.7789081268948435 3.532660720583493
Ga 1.759854922743964 2.272442657815658 5.2789119715547885
Ga 4.246460862645049 8.292178910658947 7.87936179852829
Ga 8.338437117999149 5.492868948280321 8.414318881640508
Ga 2.089859377438961 1.6809589446299786 7.907930858964415
Ga 6.498865466301326 7.1295810386144725 6.833863640762353
Ga 1.9047496376506645 7.157490079731916 6.241997082662579
Ga 1.859937500600401 4.405348487479767 7.006774564018676
Ga 5.466270182817656 5.91875733467116 9.050774343356267
Ga 2.5418962484649614 6.427025423215979 8.845407089760117
Ga 3.830112012416759 5.540193833211759 11.086240282558848
Ga 3.4734773860072408 3.679433086839207 9.117479793456582
