33
Energy = -84.83056416 eV
Ga 7.782554079153417 4.18824801145445 9.599960904692129
Ga 9.109901836087763 6.472865474473022 10.297415989744099
Ga 10.573707243678165 4.339205632060292 9.4867579815938
Ga 6.28367135228312 7.529277883158601 10.306495895944611
Ga 5.263623442969439 5.202821495196411 9.7116857877489
Ga 11.330258866787155 8.188641278639798 9.959750936486689
Ga 9.018584689519155 4.472390367004464 7.064411541631707
Ga 9.380693618594622 8.870720848317784 7.739957343803249
Ga 8.563696829970345 8.975289044499211 10.546369339860657
Ga 7.5725297207902615 6.7469153204230174 8.022384998763735
Ga 5.710694682050645 9.117249841232223 8.122134852962779
Ga 5.640225061765321 2.4751407478913947 8.999640006594907
Ga 10.68763642881714 6.557473928812802 7.765438974336961
Ga 4.6836007118204535 6.706470306901483 7.717486670881487
Ga 8.548661816174647 4.575056284828683 4.418982482285701
Ga 11.134709386897438 5.228077910481404 5.360622661417897
Ga 6.4562663871574415 10.595609373424336 10.440894091831897
Ga 9.413654014215174 7.302255108876941 5.376025910089345
Ga 7.554038763414698 11.089825544637 7.872623246053196
Ga 9.820044275655558 11.041218129299185 9.297959629239173
Ga 3.788274906227988 4.070390305269134 7.544374923548268
Ga 5.93707908523728 4.03717978040341 4.124580784352153
Ga 6.480480370827813 6.481415590777854 5.619007672126012
Ga 6.438856001374817 4.1053602882742215 6.877875354969629
Ga 7.709552538972367 9.265487534957392 5.535021876161841
Ga 7.689388972297126 6.870290178434599 3.2263530852688715
Ga 3.7795434452744354 5.767980238260358 5.3767836602885835
Ga 5.668141945455019 10.95491291304177 5.945842210499447
Ga 4.899160924993752 6.170608977447436 2.8830845930451954
Ga 3.9411080812286943 8.61376257282759 6.138868305687134
Ga 5.70534669998439 8.624590337375158 3.942795983409315
Ga 2.77038650200898 7.915566669302091 3.53266055439059
Ga 3.6581362040748546 10.47239482704454 4.148969828060709
