37
Energy = -96.85197628 eV
Ga 4.868604541388496 4.900036068586301 9.68779990861474
Ga 3.359899372943428 3.6107547254109416 7.935443268649015
Ga 2.12349381062109 2.630833004106679 5.623209948606799
Ga 3.6469744805537494 1.1180710534749507 3.7493684368535156
Ga 4.83588455995986 2.2570902240855126 6.098424535826248
Ga 6.376403917142633 3.1908144862198418 8.08244737926735
Ga 6.358546409307643 0.9628597205192986 4.33395522432637
Ga 7.6230621507394725 4.579493460884181 10.138661085885984
Ga 3.242927682141897 6.7003720218276746 8.15905406215014
Ga 1.9752397329314024 5.353616843104697 6.25733077292731
Ga 4.864371774019342 7.6025034147786945 10.231386336157431
Ga 0.8189433930686056 4.2014944806658425 3.685746272655598
Ga 8.008241043301748 1.602658894073453 6.411770372397617
Ga 5.5066942471441145 5.62329209316622 6.979675258577039
Ga 4.043896103321545 4.43418187525409 4.590970713251525
Ga 3.061651895777306 3.4050501936916624 2.256832209170637
Ga 3.9119145914750564 10.047038308957081 5.575233494543588
Ga 0.8764946801268825 6.855424534941944 4.358316176630513
Ga 2.143184723869151 9.058823077055033 3.8535047384992804
Ga 7.173365702725827 7.020168902162412 8.923394828035818
Ga 6.872059663620585 3.9839821548862058 5.137185664251273
Ga 5.7041253709922275 3.041914343108837 2.699829038845431
Ga 2.8612119066476223 6.127864688706011 2.715185178231461
Ga 3.796866193436662 7.241961395897772 5.323289705017075
Ga 8.33913306255233 5.088422922546928 7.388676370784195
Ga 8.538024908265148 2.32545141914445 3.28851063552546
Ga 5.278728296161183 8.436190213130494 7.446543598698315
Ga 6.162217670817926 6.431782123222688 4.175887413900688
Ga 5.094587962603446 5.392666410523402 1.5601757848743723
Ga 9.660246041998521 3.5492254126270897 5.550769958926444
Ga 7.752380261213054 7.611689530725701 6.364909434901199
Ga 7.811199941070183 4.903063048486594 2.4725764897588314
Ga 4.664219691960222 8.283384645180474 2.6881493898482582
Ga 9.192031974000068 5.949081849562961 4.697599709119076
Ga 6.274980122731175 9.268888219802374 4.8122374799725
Ga 7.048788289846267 7.364310370865991 1.4752583405453124
Ga 8.519173350034512 8.335339934546854 3.6810699782200733
