34
Energy = -87.97174862 eV
Ga 6.018594515548977 3.6337485572177086 4.822113596750341
Ga 5.976428177567508 3.97144620754802 2.037884736475894
Ga 6.5958723465085205 3.2699746859150713 7.298403613676567
Ga 4.597396551697988 5.683985940984327 3.8334183201122336
Ga 10.841611874114635 2.628312205294669 7.9945909215891655
Ga 6.082950623429645 4.308648853751631 9.668469824240118
Ga 8.395883589404248 4.021996260633985 3.4300864632278922
Ga 8.719276096918266 4.305744688757267 8.5837866100403
Ga 8.093682106835045 4.690129692522616 11.372733840043063
Ga 7.022362000874803 6.491948666529924 2.438850309756433
Ga 5.041041263405934 5.6144520126458675 6.529304716744014
Ga 10.626653068999904 3.9988241675171228 10.447430245284092
Ga 7.445239350449536 6.146890844701966 5.081509269723123
Ga 5.375523391092235 8.257184601956578 3.9109969622688077
Ga 9.190886693839477 4.0502418532783055 5.9930113701439085
Ga 7.248373830501602 7.105670052691395 10.554861415960689
Ga 8.213437545503215 8.630388349456542 3.4262226429434772
Ga 9.881440640079132 6.588149397153467 9.825934843562425
Ga 11.712881719082459 5.306559730452575 7.968726622920602
Ga 8.320107369478281 8.559785779157751 6.087544639558886
Ga 7.2805372081596404 6.494163591669168 7.936000526013868
Ga 9.822358147419509 6.63946821874515 6.906345456809327
Ga 3.1496955823744535 7.528085662435743 5.61675634092293
Ga 3.968314358618566 10.259603547299399 5.29862204595589
Ga 4.58490782539703 6.337235403391708 9.063356367441568
Ga 5.580194896593958 8.357033844069848 6.784863825523253
Ga 6.709443653652337 10.457330772724864 4.920667589546758
Ga 1.709268243795413 9.646192823430797 6.706496846412748
Ga 3.2037522701006083 8.552158848248634 8.580847514380618
Ga 5.550825632727868 12.553188977822911 6.1597348180446305
Ga 4.40757586745793 10.822378430815716 7.932165790196118
Ga 8.875612132224685 8.865510775440868 8.812958533846203
Ga 7.130614790443114 10.592399004294977 7.684371126738141
Ga 5.807514533804782 9.013059835636028 9.57951358040516
