33
Energy = -83.98180139 eV
Ga 2.7119072607238968 6.592483718841185 4.137014120269742
Ga 1.9052943085158243 7.258979587857984 7.010502562859715
Ga 4.854368510549004 8.12375201252246 3.0885081944894184
Ga 3.4485045881457297 9.127405437912303 8.379170533481352
Ga 4.384267069295979 8.070585232165369 5.950955633779852
Ga 3.651815628661814 5.154806990696927 6.322485345703113
Ga 3.72036696693849 3.968306033949237 3.7104358229323777
Ga 5.93437730885794 1.6187627108013996 7.193033760651977
Ga 4.979009041050491 3.9137636604543333 8.385871939271672
Ga 3.952667628260194 6.365885502100675 8.779803667098975
Ga 5.256416338111601 10.698048643092411 9.649904907446949
Ga 5.365428774586943 5.666667558671865 2.068427000478263
Ga 6.687133949545278 5.615199888781564 9.779470691261437
Ga 5.67997210217642 6.04716178611566 4.659424651875541
Ga 3.4293627835587897 2.3775776075437887 6.315260306223532
Ga 6.36713575963188 6.0559118413080615 7.1068383022180885
Ga 7.5537896305943 4.460958656130118 3.1921636887060303
Ga 6.0881890614421765 8.159672081086915 8.686783767109437
Ga 6.091483562881198 10.01496693961993 4.343975232801825
Ga 5.893768710300552 3.3896777118326917 5.207838475536621
Ga 7.891014966163047 4.03896044875561 7.6819539455866135
Ga 7.243349339066354 10.414254386225606 7.8349781328074215
Ga 8.642810548800757 5.847119780106737 5.439581807285865
Ga 7.860192917542661 7.437663513106054 3.223201335326631
Ga 4.80296520862327 10.68192654192937 6.572284955706733
Ga 8.49878216969194 1.313510175771525 7.499652950329844
Ga 7.415321940849244 8.236436116850527 6.0555458910002224
Ga 6.548949698159976 12.572984977522703 5.791400734138397
Ga 10.216997922522733 3.0449753382931446 8.519322140586722
Ga 8.480887498462486 10.592879256396559 5.484832148093335
Ga 8.382133037599345 2.534686709985837 5.008409948207268
Ga 10.399145142507948 4.038666135914219 6.064050640498294
Ga 10.662840703755432 1.2801292293427693 5.690528787101128
