35
Energy = -88.95022131 eV
Ga 7.280956927649089 8.532931847292277 4.5666082861997
Ga 9.81875366018514 8.395922570445439 9.922066902950762
Ga 7.879732876091337 7.44476747093855 7.402495856770808
Ga 6.229127713190813 10.914074807079428 4.269758862035095
Ga 3.3639197522242243 8.86651115441395 7.632530776760401
Ga 8.46262737583166 3.4730803974828817 4.721389026266923
Ga 5.265707845828253 0.720848999307022 8.450358237019998
Ga 9.922781412265023 5.806218786464471 8.80694319712846
Ga 7.311553716961595 5.977661181443794 4.935535221418731
Ga 6.111089342960629 9.945503028946462 6.9253661985684225
Ga 5.788972749922874 12.759519325120651 5.973760537059239
Ga 6.7911040665998765 2.6750782048992936 9.326369684635592
Ga 5.735091918409003 5.573772593832052 8.942788032269748
Ga 7.9975282825992995 10.010352210896508 8.764654723370704
Ga 2.4018790445303386 10.132053609342412 5.00569624844941
Ga 9.817984003004524 7.989153416283802 4.535843083580154
Ga 4.4234343056583585 2.0252966171451434 5.751970807154712
Ga 10.581029001636228 8.005197088750672 7.346016747295993
Ga 4.345719850509818 3.2640289945717855 8.183482214134008
Ga 8.947430706521356 10.070545100933964 6.265561659843111
Ga 3.888329431659268 10.185981525925367 2.8216216818055457
Ga 4.440269442452432 12.759519325120653 3.6624199646749185
Ga 4.592349868005601 8.584327539902795 4.889256606172262
Ga 5.615764556750154 8.515256883701653 9.18811996191199
Ga 10.049945161306907 5.4828137720454295 5.995491771999855
Ga 12.1740117485016 7.043333040407471 5.273303951881113
Ga 5.53032579816768 4.357813459173159 5.919537902832164
Ga 7.4361976175501 9.62263939871657 11.362594231689734
Ga 8.032568643176296 4.470044552663491 7.437656751687279
Ga 5.2550105018359 6.896463671166765 6.703855275769082
Ga 4.2371399793900295 11.596238666044494 6.148040718163631
Ga 10.786722114612047 10.585672218597333 8.3767969192428
Ga 7.111894036026098 2.102749013135603 6.672405112736726
Ga 7.417389552652175 7.126559317126491 10.579391190539743
Ga 8.087984993621255 4.634854316100217 10.211795207471374
