32
Energy = -82.15947567 eV
Ga 9.009439966217046 13.932129844231858 7.370082124321613
Ga 9.180402417771683 4.483504909969428 7.8327343295727605
Ga 7.345828762422662 6.919873014414223 6.980736408806318
Ga 5.122809292547439 8.642335309123022 6.934157325207228
Ga 10.099830611523926 7.006150342021388 6.441478841705851
Ga 9.835301750946924 4.8684731302168665 10.529004709293137
Ga 5.389254253116344 10.567731016793543 5.010427279901674
Ga 7.237378955517518 2.763044589849673 9.095882992291727
Ga 7.993423816994582 9.419541209078432 5.8968873242959345
Ga 4.429321728884542 11.555881884591829 7.238908008599929
Ga 11.545253089589671 8.025521300885622 9.713200253338043
Ga 9.8737461741859 11.52094847178013 6.4489450059834015
Ga 6.668549435906563 10.37994431176744 8.298168910771194
Ga 10.530074446346221 7.103688242908785 11.899449072325197
Ga 6.525544389838508 13.076874854191486 8.172750660453374
Ga 7.941771575886336 2.3614260674944845 6.422730079845388
Ga 4.725503805041725 4.0031907021468776 9.708057518782718
Ga 11.598076407015258 5.626840245867472 8.375667148685759
Ga 6.13777824411217 4.3872554809918025 7.160840532791734
Ga 8.77817983316532 9.440057298703707 10.267582314770996
Ga 5.211107265508529 6.132850799585809 5.305702492376237
Ga 9.07754167879796 7.031837602975919 9.029547813989296
Ga 7.845837168611923 7.256931890319421 11.708997433721793
Ga 6.449320861301451 8.011953987169129 9.447642048612979
Ga 6.10123138038588 8.263771981233427 3.8898835497702016
Ga 8.824202034137144 11.771134748043433 9.099761034054366
Ga 4.674680455533839 6.370477085866013 8.212922119012626
Ga 7.373645511954977 12.121017990409248 5.724901745091806
Ga 8.274107026452896 4.797486812779477 5.242282397874797
Ga 10.338919343955562 9.328712474319483 7.800355416932869
Ga 8.42601012761165 7.2627721319016 4.31660095192243
Ga 7.1354123245711945 5.381760518540943 9.950500197323736
