39
Energy = -101.51218301 eV
Ga 9.10097028368357 11.19818513473947 2.7903528623747236
Ga 8.222455042063963 8.729432561686604 3.3950879541059926
Ga 7.4561310616238545 6.499116495475681 4.49760488586791
Ga 7.107784539389659 3.8535703496125397 4.924844837596782
Ga 4.26136372282932 3.515404890045384 4.807025752235489
Ga 9.968590277953787 7.561732097754746 5.251247754493006
Ga 4.640248006396989 6.176748821927743 4.948299052615406
Ga 9.5273104416948 10.670693106935271 5.453449989671966
Ga 6.925367287897553 11.088370095046752 4.438344032582013
Ga 5.555611471392678 8.677776598321644 4.544668211959608
Ga 6.846554038362664 5.634498458630385 7.070595850463368
Ga 11.875578930883744 5.994452027384481 6.69525951571399
Ga 9.409365474955855 4.792223060528649 5.854384145148657
Ga 11.033293824144021 9.13363508489351 7.0679231698963765
Ga 10.27730173866464 11.657207923254166 7.9144832302181385
Ga 5.402238743477616 3.0529510004155727 7.258837289356062
Ga 9.486775993695952 6.7719462407557645 8.014585248061806
Ga 2.6040937877485772 7.601479092211507 7.516382097103976
Ga 7.757124093443862 8.886335251335394 6.543979063868786
Ga 5.300405246716307 7.8883045106261225 7.12962537943301
Ga 3.9035448751776984 5.346955135274341 7.58781807824279
Ga 5.475951237235877 10.62089963440175 6.615006239782724
Ga 10.44846105383174 4.071630062007158 8.271043457565023
Ga 7.1853106354618514 7.405259727194347 9.05571798600695
Ga 4.512351189575343 7.6131340369250715 9.84275910298064
Ga 7.651607397552585 11.473090988365248 7.993306969353844
Ga 11.670468999537016 10.206773159475032 9.679917306489342
Ga 6.297694752265624 9.753673824012196 9.878114724692132
Ga 11.164253225398443 5.437177696314645 10.444233294298508
Ga 7.9408560602856575 3.1371705314196543 7.946033226288385
Ga 8.381700270813234 5.081096384313867 9.950621899874164
Ga 9.059900518465108 9.427642724389225 9.382447292163361
Ga 11.924801205765437 7.5913305258323405 9.029185561994233
Ga 5.835627656115263 4.535310391622639 9.543820107064414
Ga 5.158290588156579 12.041185329095267 9.03641502993911
Ga 3.4247231816758945 5.233491417873848 10.47506347927616
Ga 3.557422526858773 9.896285495728074 8.43918317053722
Ga 6.349490970420937 6.412683647125019 11.630963219284096
Ga 9.366904224826962 7.399071063487625 11.149294107838193
