36
Energy = -93.53962687 eV
Ga 7.864258777862321 6.541594528727159 2.6564475811607986
Ga 5.74403718015458 5.699685034641569 3.9326757094795908
Ga 8.011397572964663 3.6764203067450723 4.879982625068296
Ga 9.969822633083401 5.649986761807467 3.9452606136623323
Ga 7.953130938351853 8.852737082583026 3.9454847205433823
Ga 10.319211379878992 4.902504388084801 6.535224932750352
Ga 6.92975534942569 10.359479882246042 5.98900732811116
Ga 3.4203696996932704 5.736618819066651 5.423561027809999
Ga 3.92598897988488 7.852916334001988 3.6510318971391316
Ga 5.777891975397044 7.793505047630488 5.719245692434442
Ga 12.423629831479674 6.262038537183949 4.791936026979105
Ga 4.440217431475285 10.182424139445667 5.1973568726898245
Ga 9.472942675282164 10.946695951734577 5.208132615502146
Ga 5.868039193915246 4.579502965264912 6.415812158539865
Ga 10.227321789814976 8.12556873184451 5.556414734043784
Ga 8.018431354221153 6.492085212459273 5.735480014395334
Ga 7.371812638077184 11.526161034165002 8.361000337660005
Ga 5.374134334855029 9.36608043104376 8.069229419403982
Ga 3.1306277042969155 8.299083601776506 6.595749573797412
Ga 9.177667532720942 7.1498060568056285 8.06309177951287
Ga 9.558141029271178 9.847316669145142 7.683156912710138
Ga 4.06186090506489 5.6585055896583345 8.039735758156413
Ga 1.4936741874551869 6.385614639503844 7.680283032865237
Ga 12.009888698734054 6.803180687242348 7.324841325293445
Ga 6.537708933412213 6.882114386626107 8.10207632367603
Ga 3.355167038191908 8.125322052473946 9.28922399746135
Ga 3.0720265866328047 5.764703846677333 10.621691972850995
Ga 7.591379589868924 9.067831130752035 9.681496878106218
Ga 8.154314224650072 4.314783457357273 7.975988257826841
Ga 10.654174757735658 5.193720114994323 9.4582579762923
Ga 11.352507577569797 8.464262804939649 9.13677379783532
Ga 9.688591146370571 7.760858983382359 11.001559444180662
Ga 5.755642391170554 4.232089332159732 9.546782613718193
Ga 7.393982050375485 8.165864771455897 12.322819097182554
Ga 5.523654037164213 7.069453491687709 10.737983114553542
Ga 7.974114835892924 5.867000157080814 10.322720799002362
