34
Energy = -87.37452939 eV
Ga 5.438997407707351 4.8468621020998714 12.005130575604715
Ga 4.2474755199316885 5.2161625213144065 9.497002610845056
Ga 4.001769567212246 7.377857054136843 11.303672555261194
Ga 4.381078224533356 2.654959580281329 10.350010028743736
Ga 3.3647736836531585 5.318975964346634 6.716147714902576
Ga 7.054735183175713 4.037022779386685 9.922968936707498
Ga 2.327917603751698 3.5126995476276495 8.402081840988515
Ga 5.410581823826949 9.682055263295677 10.119772625168203
Ga 6.568890079115318 6.791564413645424 10.268413315076764
Ga 4.3229835383957855 7.478906621873082 8.309852445177878
Ga 7.989676040074222 3.3164083777135924 7.595679122100932
Ga 5.2008770438569245 3.084328663116035 7.8416498702796
Ga 6.670091873506244 5.782109813971068 7.742277029516225
Ga 2.830578416873183 8.23272043918262 5.9292049587328215
Ga 6.848009945727901 11.08791322248286 8.144411896241435
Ga 7.115631972672139 8.388267860840251 8.294074254239625
Ga 7.876752982805618 11.879082254106143 5.627796084539153
Ga 11.938980302546186 6.927406791792466 3.7219852703227225
Ga 9.081378717510999 6.965775837636326 3.307940525773539
Ga 10.607315078799951 9.134602518791999 2.8367688754763005
Ga 10.456049351492602 4.797537830636367 4.23828857700169
Ga 7.570577861396251 5.0674169797138795 4.077946304914493
Ga 10.4950323936923 7.767852458400782 5.846073028075197
Ga 8.86386870218348 2.778685851765761 5.122163920062189
Ga 8.175588467599992 9.476170607013756 4.0792639202794065
Ga 10.506785238840628 10.705983767107035 5.1358914335102765
Ga 6.335640192288836 7.676025769103139 2.990778766590105
Ga 9.43341550114725 5.4303488882577495 6.633945703832388
Ga 5.767077696099661 4.20747763485096 5.636485084835397
Ga 7.717191919821971 7.293198986805305 5.811125907087183
Ga 5.09459869053404 6.907474663992745 5.307642616355857
Ga 6.010761813996528 9.572744513191017 5.585030651931646
Ga 8.974062571077186 9.608650114818074 7.002003686244685
Ga 4.273743309158791 9.947639021709529 7.549408578588246
