36
Energy = -92.51556742 eV
Ga 7.750382923952856 8.116136859983584 11.692252396054226
Ga 6.290712094795764 4.764549240778077 9.752939533477731
Ga 6.029362017026625 13.852935544217704 8.05475970637384
Ga 6.307722374928522 10.112181018916955 12.192944467870962
Ga 10.311800615576995 10.498657303683723 8.581315746547613
Ga 10.915353952524745 8.019451343688075 7.527102076290597
Ga 11.876897132829368 10.59232452956237 6.4409955027191526
Ga 9.068287653852412 10.74608094444578 11.002475399620558
Ga 4.036644741570685 9.62090956700483 10.606322436352732
Ga 6.413251704630422 5.437097918108425 5.940277442341621
Ga 8.498262659874376 7.229111941750261 6.1208083317575905
Ga 13.175453144880446 6.055412702293472 7.322108125339732
Ga 5.4433622178285965 10.644619446164853 7.142001082209812
Ga 5.2606970258174925 7.3330694225888795 10.391856557173385
Ga 9.614889850882756 11.826349969517182 5.9082167741686655
Ga 11.560193480319036 4.166031281025143 4.483712996449153
Ga 10.846485240532349 4.793156226029644 6.960660682859349
Ga 6.475174267913466 3.2766510173156624 7.549070286895439
Ga 9.95078677551468 9.225247520449201 4.917580006155256
Ga 10.884644652107799 6.7609785985886415 4.748078814596128
Ga 8.521325550778824 5.1883302872757975 8.04896992978795
Ga 6.890562675776737 12.415323958547674 10.866255119714204
Ga 8.014239675752204 11.914099320746091 8.542300321722466
Ga 8.751031216890219 4.961516035333174 4.70778638142524
Ga 6.556004394857356 7.225129313926847 8.113760517743785
Ga 4.628431244853257 11.910245095934137 9.282314198040485
Ga 10.966545250924415 5.99155257362963 9.407028837105
Ga 9.073427235228339 8.193362778684042 9.351247960568312
Ga 8.632260206867741 5.805465637359438 10.713080297847963
Ga 8.872060738136176 2.877338644742391 6.500159807662557
Ga 6.670856838547722 9.689324175410215 9.44216992203035
Ga 7.82725824149496 9.645692268060474 6.713500290873553
Ga 4.322808381387054 11.996679316085618 12.09799000128088
Ga 7.136855578286105 12.505553802780097 6.0095574784055215
Ga 6.39062730655283 5.776691066419636 12.392547522573327
Ga 12.931326452044312 8.279380179583145 5.7274769738387725
