39
Energy = -101.95573473 eV
Ga 1.1647129434694092 1.9341483340731445 4.277851222871982
Ga 1.0996339295640514 4.385693650886326 5.630156793956155
Ga 1.803472400696205 4.258172852349881 2.8279602234477443
Ga 3.710874944962225 2.2540330238334954 3.3195880440079306
Ga 3.3331234089771877 7.150142420236693 9.004948685080613
Ga 3.0043364054247594 2.320427857270682 6.331780269142645
Ga 1.42491006686995 6.821493728493783 6.765659025624811
Ga 3.1139189177340136 4.743243545439758 7.61040119548507
Ga 2.2104839572181794 6.689341566652057 4.136823236620122
Ga 3.9057313818675827 4.616683807395785 4.869128849902191
Ga 4.325265730930976 8.064704331349068 3.3265956215913124
Ga 3.873275900159961 5.625185259121792 2.0874610242324234
Ga 4.359390273911387 7.059383853901006 6.32134754407626
Ga 6.103561793541747 1.2088571419908567 3.012412476559232
Ga 1.918640742946253 9.252356829632792 7.907879950537644
Ga 5.580749128869711 2.5160266531109543 5.448778155363189
Ga 5.307181008240602 5.32902182170687 9.107494353823956
Ga 4.985664608302285 2.7704810644508826 8.224163308739744
Ga 2.7903024961485885 9.214875067799282 5.214338900327566
Ga 6.656853623357561 4.706347422564067 6.833696979278317
Ga 6.197843344164136 7.92840264164702 9.124491500840051
Ga 7.545781533924494 3.527013688115007 9.675163101404046
Ga 6.255486962622151 6.0744914732189565 4.559623505134357
Ga 8.081026668023506 0.8623344251849361 4.906195133972729
Ga 8.323150200872758 3.5825594789269046 4.897830424485044
Ga 4.61736099578817 9.55196527564424 7.636669916674812
Ga 5.813221500334605 9.490325274538845 5.195286259617435
Ga 7.520484939187911 2.0254599451284965 7.31159808899433
Ga 6.54629639049066 9.607321869209478 2.4727785773858444
Ga 6.261115740339634 6.768369057193657 1.785209543325894
Ga 6.005665164989479 3.969161753676344 2.7502016850491673
Ga 8.174801306438749 6.090764735493221 8.622838293942722
Ga 9.631645949879855 3.922550218994404 7.5331879322383655
Ga 7.2277365047384174 7.769237243266889 6.6533107002374425
Ga 8.524255987900242 2.5144867163758153 2.3550865539661423
Ga 9.163396120487047 6.039339107122764 5.746804530463299
Ga 8.212528373697246 8.060288345878266 4.150573814475503
Ga 8.763331317284015 7.724247825079075 1.4667591618805174
Ga 8.55211789080538 5.431395503816806 2.9135032943727768
