33
Energy = -84.70265249 eV
Ga 11.401306552494777 7.70514314593772 8.114220532284474
Ga 9.020763995927688 4.712956836759612 4.053830814352489
Ga 5.967370732840403 5.794882439483933 4.403594872261891
Ga 10.139007713218792 6.336059046650217 12.965112324434465
Ga 4.440592493542036 9.221525775075648 6.5692179314317
Ga 6.352583196838477 5.133014750433464 8.88961208329389
Ga 9.073135958439586 6.011973490496109 8.535831474825079
Ga 7.686345110681189 7.752783278192815 12.769742776244575
Ga 11.061077352250626 5.874685298096687 10.381819653557296
Ga 5.497509907891307 11.758364284440276 7.134204784523517
Ga 5.54735987413013 11.048653519024176 4.383274385096253
Ga 5.973196327082674 9.591900873900993 8.694959634209521
Ga 12.359187388123773 8.437827853050715 10.548707204167837
Ga 7.815301235430246 4.971804828565145 6.52736457531779
Ga 10.497878395179566 10.428582916890404 9.815611689891949
Ga 8.329651362635714 7.233984246468821 4.749604586861662
Ga 5.1221538707368115 4.056218735887148 6.797986086864135
Ga 10.234993320815837 8.565728594067846 5.8893080048705055
Ga 10.554146216422899 5.736528513693356 6.173836605732761
Ga 6.821211173112952 7.616542841941521 10.134865598401682
Ga 8.765249977231381 8.747630350421113 8.297308102608863
Ga 6.752814492443772 3.2587728907277502 4.741723010911182
Ga 10.536282297192699 10.907039487520423 7.08054278747392
Ga 4.2582770808684955 6.607725333663637 6.480947740365367
Ga 6.704666860762341 7.457120698248878 7.149112311151317
Ga 8.127714903868656 5.490206740011261 11.077633274171486
Ga 8.185546966045614 11.454873082718168 8.1780055293789
Ga 6.0911161353896555 12.275922912250369 9.810559265693524
Ga 8.785351834194966 12.649174989823305 10.546280901203032
Ga 5.916403592057473 8.393056660373613 4.4170279412535205
Ga 7.679160532937245 10.068239675133443 5.929697874407364
Ga 9.628945024979972 8.171453375815876 10.910644674677627
Ga 7.649711707791939 10.085096695764642 11.033967289547828
