36
Energy = -92.30563123 eV
Ga 8.60772569938375 4.888287181269744 11.269971863146045
Ga 10.73785031383492 6.375148604807861 10.410815362125579
Ga 6.026058638186794 12.878993839403558 7.205830008363741
Ga 7.771170614881843 10.806699278372601 6.3071752508600465
Ga 11.8840128281276 5.9265953287851145 7.929632855596905
Ga 10.817726372669473 12.875589463270986 9.135340405962893
Ga 7.023446663885787 10.59862710485161 9.229953543256512
Ga 10.881066935844343 4.42079698953083 12.458372026636392
Ga 3.437269309754677 12.462054650517063 6.687894782757209
Ga 3.927058335741485 7.852934719656503 7.337829536026593
Ga 11.03194336468681 8.871391974606935 11.510257301373576
Ga 5.75152627363719 11.110235635750085 4.77235692158918
Ga 5.9711410362655135 8.136187875623744 8.997479626446207
Ga 13.109471714213477 9.7394427705462 9.801162285533168
Ga 12.56300600562345 11.263250594548639 7.755336355875445
Ga 10.138703354210758 10.656122916721127 7.045116556042896
Ga 12.923779752819227 4.620376738811515 10.379248124800847
Ga 13.353588693564534 7.1800692196431894 9.960278621385244
Ga 8.439079268665385 8.501027986519585 7.599915573384445
Ga 9.139530118129658 5.876676953885469 8.163818860252066
Ga 9.514466122763858 10.541622185397586 9.913256800797079
Ga 9.520218360179033 7.069818403308203 12.766775634034504
Ga 8.488492241140815 12.716978063275713 8.193700315381259
Ga 11.045518846319556 8.402044567935167 8.372037758155463
Ga 11.701820588889861 11.49628249034489 11.319647708271274
Ga 4.794094516300858 5.577278899000357 8.152475170124562
Ga 10.525831469761801 3.7962606996915067 9.19924714691701
Ga 13.517264136441844 12.778351981497496 9.778551649638768
Ga 6.18035074692238 8.557879836026144 5.837070857706348
Ga 3.426992566645664 9.653735503988306 5.6443904452137215
Ga 4.726560207462284 10.511855686590254 7.9067959783651425
Ga 12.404895468626533 6.856467403793108 12.818723201304328
Ga 3.3345637670482606 11.79783343707698 4.0175207105604525
Ga 7.007039270176741 6.277880240324984 6.727676948088898
Ga 8.421208683040067 8.05457551644869 10.502333173579926
Ga 6.652804676711805 5.79613351420639 9.953720717270551
