36
Energy = -93.07545518 eV
Ga 8.900927811240175 6.790208609059317 10.662736276452565
Ga 10.912772020199698 7.998856209392027 9.358901963469926
Ga 9.480929580268906 7.379982577337652 5.516669434842651
Ga 9.814619372259921 9.485776790421365 7.430573418013946
Ga 9.325084600851369 7.5371165831655285 2.7908998336301445
Ga 8.554613534190189 6.850860586522608 7.94441572405793
Ga 6.610824977301753 7.746636057976414 11.804849222456754
Ga 7.638207923944425 9.046156789545945 4.3190820502260125
Ga 8.47929661577219 11.202573642918894 5.660390153497642
Ga 9.054748437475645 4.798836697828294 6.379632259785944
Ga 8.192563196256236 9.165174289154589 9.622844831457636
Ga 8.472733668222892 4.504417130339353 9.419891789864206
Ga 6.87249561780727 5.2069309692414985 1.2040637579352482
Ga 7.952720359811457 5.387943097778067 4.01438893508019
Ga 6.483323366659457 7.3482231591309315 2.678239896321826
Ga 7.413647768370673 11.371469390278763 8.245236986052618
Ga 6.054149072044328 6.485590642624228 9.372977246990974
Ga 8.407633841265374 2.557685240058086 7.541332720531938
Ga 5.920782301936344 3.997099338072842 8.401471720513033
Ga 6.179131000743439 6.273776123304519 6.20215329222624
Ga 6.6777269384721105 3.6775919604894787 5.756496899287076
Ga 7.079260206123984 1.955364528192985 9.90687179299897
Ga 5.5396588443068815 9.229430155306712 9.879158024515307
Ga 6.878870473775237 8.807491128595354 7.109698123096712
Ga 4.946408375729319 8.415320759448571 4.684400444712829
Ga 5.835485058926339 3.5673705121719714 3.112100599678434
Ga 5.738907510507469 1.413488998772034 7.424171353440879
Ga 4.521572977138519 10.581830761436498 7.88311536197813
Ga 5.769338165439664 10.876655215461552 5.526807433124415
Ga 5.166541962698314 1.6684233237475328 4.775567126003428
Ga 4.597646012422738 5.7969892118400645 3.784525525836958
Ga 3.7419324180900455 3.823839994054218 5.545324780887714
Ga 3.879389875896082 5.360658059256959 7.733740650143571
Ga 2.756106058502329 9.625135458626936 5.8065783062409455
Ga 2.6299724542564027 6.6743861225971 5.5716377328310855
Ga 4.203609507667692 7.948095111433034 7.588143911039283
