38
Energy = -99.21651684 eV
Ga 9.326852126858979 8.169452846474073 6.691020313025383
Ga 7.896753408030999 7.701782741205421 8.988691829904543
Ga 9.21077707077012 3.3273804126493203 8.359482216468985
Ga 6.624546257864247 9.715804820883939 7.49240534810443
Ga 4.949242663516778 7.392041529795106 8.23984183754222
Ga 7.723373676007528 9.616579866277183 4.884532575321822
Ga 2.9781340343335674 9.333737458397206 8.050668763991505
Ga 7.074517420534753 5.284853414904472 8.406018803641548
Ga 4.473997309208468 4.679948445499667 8.292450002613624
Ga 4.568082550167552 9.02392510925067 5.6839095387067315
Ga 9.00987192848879 5.426408673664188 6.484726906921541
Ga 6.76076900530779 7.15576486646815 6.247595138397604
Ga 6.496651287741648 2.6264954140722914 8.400792318073446
Ga 6.044747828981973 8.063717839543791 3.6101338758369703
Ga 2.407607577111861 6.447064085701716 7.9280728040812996
Ga 3.844908598034538 2.109062752064226 8.279790759050234
Ga 8.667927982949912 7.049386493915067 4.126921846827788
Ga 4.129928954434385 6.281043505231991 5.586326222945597
Ga 1.864886161057344 8.224761143034304 5.8044880112251445
Ga 8.074460485520493 2.8390649946360913 5.9601057395581085
Ga 6.516628031773541 5.0318618935220405 4.73050454378818
Ga 2.4893471648672962 4.130833224222496 6.566549243095206
Ga 9.861610563634425 5.952568484057843 1.9201596930708906
Ga 3.1272381014295223 8.11506759170661 3.203551699856483
Ga 1.3434630273661676 5.866299130463971 4.671516165125415
Ga 9.28073636522821 4.178590382841052 3.8752250276209637
Ga 5.320335887309039 2.7981313697314407 5.934283353741362
Ga 3.8208151271404955 4.045782102738226 4.051575066899884
Ga 4.8455203731756376 6.123540611317644 2.3259010846223362
Ga 7.28303188105787 5.3014648570931655 1.9615827568355797
Ga 2.8974894948808196 1.5132734254635478 5.8262705602763445
Ga 6.936755847092503 2.6283073503884147 3.4316613979105015
Ga 0.9409186631678497 3.2734412862715647 4.30580079290695
Ga 2.303483826968373 5.364858382003973 2.137101946816008
Ga 5.112491828252268 3.4928506738369887 1.4682350775837423
Ga 4.536424154759302 1.391002176524021 3.5708846148250957
Ga 1.6916088412161487 0.6709495272806023 3.565006498283673
Ga 2.5704916796374833 2.659328302746808 1.9426428103827245
