34
Energy = -86.95719846 eV
Ga 8.46117129124448 12.60310968803925 10.42020966486577
Ga 6.657279240303755 11.475204146398191 8.55750166550174
Ga 9.436158147170138 8.288496486789462 3.207545184587506
Ga 5.150116565156535 4.620636165623313 8.220149812872142
Ga 6.107387832315505 6.31806579819295 10.36233432133714
Ga 12.911226912905656 7.824463391228275 10.350632694228755
Ga 11.18657404748208 7.9443510242510476 8.282663459415716
Ga 5.388599147822104 8.294812215960288 11.882538689365177
Ga 10.588567870009262 8.777343533595982 11.226756649633082
Ga 6.058667355099136 8.790916352574264 9.154292981847123
Ga 10.705080898033781 5.998593501299766 10.292373771107691
Ga 7.935107883853531 4.812929489845076 8.782417857404322
Ga 11.971386520056155 7.268968596078228 3.1494432253354465
Ga 6.280842080480496 6.919694523224612 7.260341490402126
Ga 8.523892655732213 5.221582237684122 11.560865941928935
Ga 9.070374499140517 10.15863885190901 9.339366717797612
Ga 10.107817278264694 12.873454554650937 8.278191987101215
Ga 10.70856769590278 8.270546060520779 5.758351508811276
Ga 7.78328480920578 7.422570463312835 5.079381629631324
Ga 10.317405675133791 12.75447071760652 5.377428094126636
Ga 6.333738777518848 3.591263649730614 10.619179088720287
Ga 9.309212817360049 6.217636578257251 7.126894610731204
Ga 8.975047676452867 10.342166396524492 4.838790317258514
Ga 7.078258457928744 12.647817402110888 12.789034429542154
Ga 8.898925456686856 10.464152661445983 12.109295614848572
Ga 10.708230869937173 10.510503978246426 7.120583247806493
Ga 8.083522450074097 7.790143737410716 12.07124494518561
Ga 6.580023502238677 9.955746157730912 13.63101572269541
Ga 12.17385407590797 10.427114415001315 9.417847486029578
Ga 7.986841481050215 12.212542182091138 6.544170727154302
Ga 8.493674396642863 7.492869595516597 9.39116072529684
Ga 10.23267696431388 5.871737745056499 4.676774400502231
Ga 6.172684315929033 10.723523415249051 10.976455713947312
Ga 7.912103730711181 9.24773690464191 7.080757546287649
