32
Energy = -82.5348889 eV
Ga 5.6484680509460015 6.400248461536866 5.661009957053919
Ga 6.429322968564797 9.189255189997697 5.398188124863349
Ga 5.7453002480732325 8.033168646735392 7.857310620550914
Ga 10.745143180801316 8.338069113726181 7.452095586756532
Ga 4.030433574223563 8.843021172220778 10.352251046914736
Ga 7.956074257542162 10.372291286490103 7.5474414493808055
Ga 8.100590108678823 10.938875794232763 11.676291455135976
Ga 9.780911616485929 5.6020859251884545 9.138278753194806
Ga 6.760868917491829 5.422350621298919 8.129051647567934
Ga 7.970355366070264 7.132808897667722 4.017492736732577
Ga 8.583953580303401 5.92220467342998 11.603180357424707
Ga 5.6540585350028865 6.569241618405577 10.242957399594204
Ga 6.835003980268093 8.080244432183662 12.169629131646015
Ga 5.514365322480169 10.421230958153636 12.240511852759928
Ga 12.512338547758892 9.567542253138878 9.251510514150569
Ga 5.198944425146936 10.680022733198298 7.301066922119556
Ga 7.797507277815952 9.64401183363539 3.124196832788278
Ga 11.268483872658301 10.450112244477314 11.690325779411928
Ga 10.580934801197575 5.617095874631072 6.589903401761772
Ga 6.416523242304101 10.159192066923197 9.668479142411032
Ga 9.64784230944845 12.536303138437875 10.258928871779796
Ga 8.66861564848321 3.547930555990331 7.764844557299009
Ga 8.133791003097379 4.939115214828592 5.508674279265078
Ga 12.096047811687768 12.294229587873055 9.284378068993576
Ga 9.668373982625326 9.907195573025174 9.4981104221878
Ga 9.422437069009376 10.087591015272634 5.1936436501199745
Ga 8.126781058002432 7.779291844078769 9.49625086107288
Ga 8.298965851402057 7.459448404475098 6.777815495650541
Ga 9.48129643534793 8.586079911163024 12.120889866381972
Ga 10.561731305372456 11.281660083788152 7.286506435556345
Ga 11.204524781065366 7.505311024091738 10.396368748208246
Ga 10.578079588797694 7.531290495095161 4.7752958201822
