35
Energy = -89.64750652 eV
Ga 8.96653651368575 9.410823242964273 8.68398423510247
Ga 7.339069033369002 4.656631243146311 7.6166883477085126
Ga 4.826637718154265 4.539307534093883 8.882832934630846
Ga 3.52525035174735 7.1312598145967225 4.828487114771727
Ga 7.981747605649277 6.804818588528755 2.662318963734238
Ga 7.789125859410964 9.399735119607163 3.460394875132166
Ga 6.069794464536834 6.973244811186591 12.230619660722162
Ga 7.460538490197235 6.248857788819663 5.367092715080132
Ga 6.129469240277602 10.395546389710141 9.192976720936038
Ga 11.432851943419788 7.9220765791337975 6.4916179176322695
Ga 9.61416336377417 5.804787106375116 6.97334285949634
Ga 7.096401268801483 5.787706740661734 10.037435507562767
Ga 10.485348110601322 9.86279956029569 4.404590632541788
Ga 10.093827106112276 9.258886358098115 11.438969219066303
Ga 10.811127061539455 11.432199195472709 9.534103364315955
Ga 10.58978644579294 10.66871442291412 6.972597243544133
Ga 4.979583676135647 9.630023358047573 11.719558194094212
Ga 3.297986538600874 4.632896757967673 3.8560413999934235
Ga 7.129114299516408 7.628229372044259 7.88196630902574
Ga 8.363606920773162 9.079334381693121 6.053950469239582
Ga 5.667582410463297 5.835773872076608 3.3673515419200672
Ga 11.937535483409578 6.97833253377355 11.22052648828491
Ga 5.205831682211454 4.675476035592017 5.923623918095132
Ga 7.9450540288558775 11.749804515638694 7.3237483088643796
Ga 9.880629320068152 7.192748355889527 4.514210697751066
Ga 8.967066196822907 6.735436515377802 12.199504845978016
Ga 12.088015681502998 6.102170182197386 8.34749426055072
Ga 7.622558696643945 9.991866196609456 12.887768515164256
Ga 4.5035323402362355 6.918229639021572 7.247683954494813
Ga 9.576333216090562 6.789904671881451 9.502544464450482
Ga 11.663413954702348 8.858485582239211 9.142661679491225
Ga 7.495941265855493 8.554814111304456 10.620945268913708
Ga 5.789027192167285 8.45872821007362 5.045124832579685
Ga 8.242479588898306 11.410548012532054 10.530287963425062
Ga 4.8357291512284 7.749706697933734 9.691165095013728
