33
Energy = -85.31085191 eV
Ga 11.60157752452909 7.797427687226998 6.467531504047068
Ga 9.080593219812977 7.854353171862279 8.161231506322517
Ga 11.173371832957358 6.511982191977987 9.166339226132553
Ga 10.193541392960583 5.522906621095869 6.517022621783903
Ga 9.781663193291662 9.765866722478705 6.395523465622828
Ga 8.870022168202324 6.820719874916963 11.062458201067766
Ga 8.818976518807167 4.927898229312541 9.032685582387034
Ga 7.732708420079703 10.682958600628666 7.958484847502109
Ga 8.749123651966915 2.992679452239039 6.944352338231714
Ga 7.53089521358152 5.742335093767582 6.80797935541112
Ga 7.620566554916925 9.009888050330044 10.149647212315596
Ga 9.046444403348133 7.465167809221912 4.889952105436137
Ga 6.264327036751064 3.7152541838277737 8.486116975967189
Ga 5.236338156631729 10.671537787212111 6.628763709408413
Ga 6.687362342728542 8.28626429704782 6.957775573405206
Ga 6.49116083882446 6.447191286614449 9.395650323267
Ga 8.606657393342399 4.6558847545047115 4.315019026234327
Ga 5.1190638335388625 9.094816643149072 9.217448732216155
Ga 4.922341008385736 5.7455561869327205 6.940883532974656
Ga 7.403220875336378 8.324108339623223 2.705097559825109
Ga 7.599170948905328 9.992802961579944 4.833360277223482
Ga 3.693196239638068 4.20752499856172 9.499458997336982
Ga 6.229182976033746 3.499930539024067 5.642837222674583
Ga 6.382090583405519 6.33481391736273 4.555370679050599
Ga 3.6781583790156698 6.868957839382237 9.2438410411023
Ga 3.759642072431486 8.351589159606075 6.8288862727290125
Ga 6.109954055625738 4.195069999286611 2.7850687661642195
Ga 3.5484234371325085 3.389650438646496 6.86214451233246
Ga 5.0974049551039435 8.893852219456072 4.42861794496997
Ga 4.9353255224904595 6.893571826257643 2.3663921783314366
Ga 3.269244143758236 6.662032178776478 4.608137176459605
Ga 3.8231561744792546 4.06547911367264 4.289857912321548
Ga 2.1855008395544653 5.9155335402901965 7.051736007776215
