36
Energy = -91.94026105 eV
Ga 5.512653749561898 9.513133828977857 4.418849339489789
Ga 6.603478996585806 9.770507459451874 10.930908349061134
Ga 8.118663122710084 10.50300959917678 8.415222993481471
Ga 9.023869906707576 13.07731812978161 4.662948193883604
Ga 6.901171249565729 6.878720782146588 11.090816682287398
Ga 7.44872345390229 10.96025634520872 5.540224562060965
Ga 8.647344171473302 12.83919666245182 7.337368468550079
Ga 11.488956815747033 11.998366320609236 7.759815636801467
Ga 4.524663686069377 8.15708972415942 11.092952340589658
Ga 8.77234518406423 8.360959783849282 9.715127376043405
Ga 10.39198781366293 3.5454897140639754 6.053657904953558
Ga 7.753178652218195 6.246806672791413 8.497313080284146
Ga 3.2379474867985145 6.133674525708476 9.932473250740038
Ga 10.954373061749315 8.439863493060123 11.679620105056205
Ga 9.111175360648812 5.998451098637412 6.0881602851391925
Ga 10.116989019782373 4.923695089438741 8.625001039216524
Ga 11.357590311728313 7.3457273778441285 8.848803672258102
Ga 10.162519805925369 10.610242282998685 5.907316083614219
Ga 4.185596196763983 8.013215856015304 6.244065405114729
Ga 10.677913138196136 14.54890517836621 7.074474936919819
Ga 8.040614986511118 3.553426804363404 7.705152887322978
Ga 5.661298180605991 4.763098816253346 7.310901092721929
Ga 5.519752896039552 4.7635319601508215 10.006947777488127
Ga 9.538030959313101 8.394443236448604 7.025021737436942
Ga 5.37456315839 7.37419259945721 8.637002689286552
Ga 9.682160244011003 6.186145805370535 11.125671689615775
Ga 9.748687183800513 12.172323334869622 9.786370453471017
Ga 11.857682006628707 5.869619101936992 6.657823756333001
Ga 11.140706095991934 9.858850952441491 9.274552154866143
Ga 7.3683333385043674 4.134104772058231 4.961684455917947
Ga 6.733261264022945 7.071788392789411 5.877114373602465
Ga 9.091955546608322 10.424355110548712 11.630849429672738
Ga 11.696480994454607 12.647769057540152 5.155442651343618
Ga 6.002750543796919 9.5653811822365 7.336075613358365
Ga 3.3013234047863085 5.752658038455391 7.240476821483405
Ga 8.106946357178288 4.097865574367539 10.539835487130905
