36
Energy = -93.80429601 eV
Ga 2.7470364188799667 5.62692430088873 7.203319741423756
Ga 9.445329554558084 6.439221021554342 5.840107564502151
Ga 3.045684256802924 3.54075407627847 9.095494424465176
Ga 2.9077058224708323 7.480623833245635 5.318345359455745
Ga 0.8020134583071281 5.559382643887483 5.095624494680809
Ga 11.760768524615699 4.868945543808598 5.980781212935425
Ga 8.638976552963543 7.966233346804204 7.900353718405549
Ga 10.252182988046707 5.544698075467882 3.379584588685177
Ga 4.51381569423091 9.581840965837475 5.3838931391582685
Ga 2.7447249091502552 3.622650494402736 5.338938541791299
Ga 4.040118216788464 6.29533385579028 9.426329029653063
Ga 9.431260861425173 8.47429313216758 4.147519396077342
Ga 9.5455945722907 3.274709573383753 5.828774374840843
Ga 7.87472954381895 5.8763918269021795 9.769598943575266
Ga 3.046399196121803 5.570791501972548 3.2379101070873677
Ga 4.90339690665575 3.3948555354576904 7.047298858953245
Ga 3.2626881358817776 8.643656823971604 8.003651652307221
Ga 8.409669024697736 10.055641575557543 6.091090669000103
Ga 7.796137218730386 4.707972770920385 4.105187498754253
Ga 9.750554265863807 5.193229663543952 8.135232742313201
Ga 5.810209195371693 5.892626120059117 11.612034784829962
Ga 6.738986578116095 9.760275311640742 3.4918698920545004
Ga 4.865121660886674 2.7914267950907186 3.922755843681175
Ga 6.950382348436003 2.610435129577907 5.563339250886355
Ga 6.127451198545624 7.982690442961065 9.605430885245736
Ga 7.598835684282972 7.046063190880341 2.6374180183875136
Ga 7.785561139729503 2.863409271955591 8.179342304534142
Ga 6.13035242371814 9.683640236843672 7.625159503525217
Ga 4.952098905129256 7.659082507857403 3.304484428840715
Ga 5.8096889727087 4.083648658924608 9.485246423624302
Ga 6.272694750738189 11.6750072899691 5.583533571000301
Ga 5.561449517276869 4.9863789786231205 2.303276985015021
Ga 5.2267659235097295 7.059260181925146 7.0918438055259525
Ga 6.9898614243267065 7.740504556579202 5.3736283683248
Ga 5.210691446962535 5.349169052604597 5.056040295216574
Ga 7.200865984580703 5.2480348524725144 6.9853628578633264
