33
Energy = -84.58362703 eV
Ga 8.65064628896025 9.346409623495004 4.862043417223468
Ga 10.355304573091198 7.165937865111081 3.814760680469863
Ga 8.475396929218713 9.633442928943785 12.09236474745747
Ga 9.275506504018413 9.17249687698565 7.375654450380294
Ga 5.9209613705387305 8.670484247916042 11.33762924704589
Ga 9.966515377595144 9.054928069323449 9.8716529544905
Ga 8.009311319606054 8.703213440439402 2.404645542172246
Ga 8.074247056994507 5.974839778544352 3.005760042548784
Ga 7.366609052829216 9.73816182669686 9.378862995708628
Ga 10.087688402129215 4.550270321165243 4.941756858458172
Ga 6.480441167200028 7.592017160778726 4.571777739523412
Ga 9.039968806121045 6.652026407760094 8.548683897201004
Ga 6.666692107635881 7.832518363492054 7.3560353427735015
Ga 8.406179538422842 7.004620071226565 11.165219838710552
Ga 6.162703572277461 10.373094957230752 5.928902317738384
Ga 8.713150362576053 6.7181169284704545 5.924354108538559
Ga 5.250021474188411 5.289684758439838 3.438564364309727
Ga 8.725891198235367 4.19094641592968 7.4948965561482375
Ga 4.970920416155835 9.64307380079213 8.392590364530434
Ga 5.674904506625077 7.325894234735803 1.7421241761252335
Ga 5.141363300566137 9.702579241890772 3.3991065554660973
Ga 4.145891940776194 8.369632589466924 5.930032020168463
Ga 3.81465603152529 7.6905914233232835 10.116993699073065
Ga 6.220468919933342 6.506559917961003 9.649836736455454
Ga 8.179961688667706 4.551332534671188 10.17422775575894
Ga 7.448178079029929 3.7661621024616703 4.261059391261791
Ga 9.204397079563906 2.01920897812139 5.677407627217705
Ga 6.106208723649697 5.365525672964168 6.145331606300973
Ga 3.6632204103057315 5.010997833385742 9.87581373110072
Ga 2.365951051387187 8.528267950206596 7.968958540126204
Ga 5.861080393263027 4.04954830560884 8.645839058483569
Ga 6.665908624799696 2.6093647732305865 6.580576949397249
Ga 4.131108599476016 6.259361550291361 7.5741543389411055
