35
Energy = -90.18999747 eV
Ga 6.41280192255785 7.591888360189074 5.364932771180083
Ga 5.372606889297896 10.657038831049316 9.870691478789459
Ga 5.81960743144883 3.7946014763079177 10.820444066198814
Ga 11.603324194583013 6.395149639800832 7.495033033373542
Ga 8.348479975106887 11.330609839280008 6.444060878527537
Ga 6.1330896804144865 8.317622581297114 10.902851105606041
Ga 7.122348122770269 6.903213648398361 8.074613648114873
Ga 11.647425967143137 8.865710204386238 8.703144116114046
Ga 10.965873378857808 10.213067718263362 6.440138854236562
Ga 8.231670151033828 9.618275045264095 9.451652752679923
Ga 5.128187425710817 6.152526929153519 9.646097033125672
Ga 8.05468160464847 3.664410036590198 12.279980262873991
Ga 10.854697640439806 7.434701081122964 5.0815616538400326
Ga 8.704529203504228 8.509510536001958 4.144443596144727
Ga 9.15173398066831 12.218306521055744 10.991155131824305
Ga 9.619419290952056 10.981743369664953 4.103425673098275
Ga 13.332624888091605 8.42523118141747 6.528042721424483
Ga 9.284585118873903 4.142390689992087 10.05225805425241
Ga 6.498025026642118 10.281079718376501 4.52912273287059
Ga 7.197770995462701 10.651172942160176 12.001660736874058
Ga 9.607576538395481 7.1931338894285295 9.592067322056606
Ga 6.398811630523912 9.639660097860038 7.374283112500981
Ga 7.454869418255195 12.229026674128129 8.731706802580236
Ga 7.587511718963654 6.098488206978039 11.049780894644702
Ga 8.505016721987477 5.934023741825628 5.316761335098872
Ga 9.378220278204854 5.123697657993984 7.597969893093924
Ga 8.573739276065249 8.358837020706854 12.246589471641446
Ga 11.875625126478424 9.60255515111201 3.9587280163488305
Ga 10.614591221399905 9.723887163515887 10.928815459600257
Ga 6.286773797323199 13.043056879928116 10.974772107628942
Ga 4.357540814040137 8.403812165590203 8.606207548608097
Ga 10.24371611892544 11.476547969159242 8.61982194737348
Ga 9.778592175720853 10.668470928141819 13.29892046872799
Ga 9.060869658012077 8.39020298835231 7.018139129476394
Ga 6.99231513577574 4.052246092401727 8.511941886192773
