39
Energy = -100.14312373 eV
Ga 11.820780898822772 3.218537777308648 3.881200255116228
Ga 9.386169562124326 4.622818210131955 3.1105752122140795
Ga 6.822377597403443 9.438790696820423 3.6291672571208493
Ga 9.046782134318553 2.0937205810978834 4.141501736430675
Ga 11.722340144739617 10.561147665492074 5.447589489671947
Ga 11.320609945553024 5.662732081720406 4.8513370989156375
Ga 6.284614460463171 7.315744251298637 5.297171874185167
Ga 6.595759870656813 5.393965355784215 7.130569691985798
Ga 9.354599609434342 9.388425936368204 4.827593706141891
Ga 11.291874676748387 7.90667477026579 6.152649803143492
Ga 4.16406870191279 7.058185199507031 6.844619653799603
Ga 8.088109226953426 4.264968426811527 5.398702858400725
Ga 7.281211969801937 10.500394760211028 6.22852913981864
Ga 10.644286695432875 3.3385425567466593 6.222374910301273
Ga 2.1571359700289214 8.947685623470147 6.508319125414267
Ga 4.686426532208382 9.657851441205715 5.5497494015414714
Ga 10.140458784194184 10.152437284902861 7.606571219162635
Ga 9.380129972630154 12.118215857513583 5.682809570277176
Ga 8.710676711223089 6.918097522143764 4.41250710495607
Ga 3.2852642899334548 10.849633552439943 8.121194388189464
Ga 8.297228812042073 8.044661782496851 7.3601401262441515
Ga 6.163129284180304 7.208603711831015 9.10064767698666
Ga 8.72963610773168 3.537037577075636 8.187216059964804
Ga 3.320841874657491 8.306491296982623 9.168088686763396
Ga 4.168133276959416 5.361200578229105 8.910086923846144
Ga 10.26253560613991 10.193289051023248 10.414563530527921
Ga 10.846437172589189 7.882153050018673 9.00576546793144
Ga 7.945340196490092 11.110149630546877 8.81638833475881
Ga 5.730393193026526 9.510908346676628 8.103582799440183
Ga 6.620657948056969 4.228419221798758 9.730203820410887
Ga 5.195355441715146 11.570005150081396 9.91572626642369
Ga 10.135949046503022 5.78947342176145 7.416663115987924
Ga 4.119484923117223 6.81012996454364 11.28353934072326
Ga 6.811780507448734 6.333649650316079 11.74014992297374
Ga 7.498302205584776 11.180202414866592 11.49165880931894
Ga 8.702622268052496 6.117634182113775 9.541139150410727
Ga 4.589132231160201 4.162565218607792 11.582709596267946
Ga 7.975997877065763 8.568131115837266 10.587283902998037
Ga 5.24297035285342 9.21633116390928 11.139319051193393
