35
Energy = -88.51250195 eV
Ga 14.197348190057927 12.051600502845433 8.481071224012792
Ga 8.9995226249482 7.526545973144214 10.040931298480043
Ga 9.513242539328058 7.092319861692752 5.475044278175904
Ga 8.741568812760834 10.627310922040065 13.106588326009375
Ga 10.930987174720284 11.146787660911952 5.899743188916707
Ga 5.419747861069614 8.212435665659997 7.911359901979132
Ga 9.034500400707078 4.223949508038837 6.593071171094564
Ga 9.726207767159028 10.00870609891867 10.550775897911286
Ga 8.169033240112027 4.734876410448004 9.212600315455925
Ga 4.9393530226259665 6.119685633397759 5.836242315406787
Ga 5.8012692528435865 10.55586606768656 6.539489831307816
Ga 7.813443917476202 5.634555129438339 11.911370463640944
Ga 10.29736187684527 6.197471799862368 8.122660541845898
Ga 10.517397427760587 8.007596820532022 12.361891262201983
Ga 11.92084891161497 10.626770747317098 9.1316173596383
Ga 4.0504525690713855 8.71458713065907 5.526557693230689
Ga 9.480034512073605 11.649618375992505 8.288630820363137
Ga 11.725255194671641 12.967956740938282 7.727000637920566
Ga 8.448856923944465 10.206525058022171 5.675651368847026
Ga 5.3646222212359875 5.184628539110495 8.309550861507102
Ga 5.632171909102673 4.3357272970006235 10.742241572923968
Ga 6.855980179391143 11.615244911946023 8.573668660274182
Ga 13.34318927172645 12.317391344027296 5.544450638460065
Ga 8.146364260526289 8.97113448522144 8.051726539469062
Ga 7.481966164626743 6.432509138616193 7.208820891740825
Ga 6.882140946191558 7.937387019214326 5.148054396391583
Ga 6.298204228014915 10.157089374631937 3.8957534346138294
Ga 6.82181150154849 9.614217439109899 10.522871463637864
Ga 13.202467446175715 9.894185572658179 6.878892402414666
Ga 6.197228266484722 7.059586580123317 10.142487743250316
Ga 5.96485725239931 4.359006589504402 13.423534412521123
Ga 10.83096755189828 8.751674126862024 7.284796253017356
Ga 10.51006422980453 5.486083347060317 10.927790165926215
Ga 7.722537360135192 8.178793722492049 12.530104369826015
Ga 7.822513202512613 12.139947522572998 10.954354680336598
