32
Energy = -82.72779855 eV
Ga 4.878404189138354 5.398642665590409 11.645664534750527
Ga 10.214087765781066 6.396670289426364 10.715875302408806
Ga 7.420686620987902 5.792870167753206 10.574104668563313
Ga 7.313531507104981 3.029654875094035 9.338799608169088
Ga 5.1433270510310845 4.719844072254279 9.0338831258506
Ga 9.192799587649864 5.002168518620566 8.58453490936727
Ga 10.090132729333636 7.551485585738224 8.180905670987562
Ga 8.418288878965821 8.423586172165303 10.148136645625943
Ga 7.121077755514268 4.73853062262508 6.871351428118411
Ga 8.898407295146063 6.58890283640656 5.888141252192791
Ga 3.9368072789824824 7.097181686768568 9.30730326173746
Ga 9.859422865203681 4.076070563494797 6.141308269447164
Ga 5.866059627901115 8.084138856526138 10.88715242774165
Ga 6.698238623497262 7.143125714533568 8.1682584184238
Ga 4.298579041073843 6.0042617075607705 6.733136216256159
Ga 10.716777987535123 8.750052702233127 5.972757911886111
Ga 7.983652098869687 4.18138933546325 4.203827974298496
Ga 6.382399256954815 9.944189250224888 8.897991127154114
Ga 3.792674814724011 9.858478376775656 9.7166450784695
Ga 8.249609710220861 9.372029606681942 7.076194178914737
Ga 4.862495041032828 3.2167311724352117 6.681502512590648
Ga 6.430384359638147 7.671535982480585 5.580904684456222
Ga 6.293810509132469 4.376700991843896 2.1039534010861685
Ga 8.670281604116159 9.04668632513687 4.293976281027521
Ga 4.197416977374163 8.717569604457221 7.184683161708136
Ga 8.517868843363607 6.546679071295822 3.136138263417693
Ga 5.981065892007748 10.570464572102654 6.027766072346439
Ga 5.270119406849105 4.8954076457742515 4.553200564802131
Ga 3.765416982039182 7.8413339012891825 4.621041109406743
Ga 6.034940550938628 9.578711235797575 3.502991884976775
Ga 7.9229497115389025 8.830725083594722 1.6170879769052122
Ga 5.806775644005493 6.943907819150991 2.9070469956399903
