33
Energy = -84.76019 eV
Ga 7.953757130159378 9.250104212049639 10.748242447777331
Ga 8.745121198488148 2.1334157895984163 4.78947411346343
Ga 5.891620927142474 5.2639940304994255 11.099532554965895
Ga 10.71558728385095 5.100851673459258 7.759558575466273
Ga 4.4197210162764105 10.631241227849149 3.810293797443848
Ga 4.063659629111313 3.764846120253742 4.473768233017779
Ga 3.746200713979716 3.7126820000495933 7.1534580646425985
Ga 8.216870868432318 2.584472097475879 10.042812269976402
Ga 2.5305472466563916 6.245850772140501 6.293485632785229
Ga 7.465209018678521 6.377127528828654 4.416129567966831
Ga 10.970650137200163 9.432777234458104 6.996784502895202
Ga 5.946202632015779 10.007830854329065 8.859513404282781
Ga 9.525403165110603 4.7181766964714065 4.962210213694028
Ga 9.337154682249444 7.667048890092222 8.637169940000039
Ga 9.929453852283348 7.191619128610278 5.921879891247568
Ga 7.749079176951496 11.87041923118723 6.347055809122172
Ga 8.610759458619883 5.268010694094625 9.804372313757932
Ga 7.1866908098916005 11.326920571396341 3.70438910924981
Ga 4.137756519526062 7.8890349308222865 8.152978961029408
Ga 6.599506890557397 3.7237858471451966 5.412849390964188
Ga 5.383373405120853 10.567339311356251 6.332286976734238
Ga 4.155340197172372 8.362723841338068 5.36277947607382
Ga 8.624713800055247 3.1132997515756107 7.345822486276629
Ga 6.533720345134907 8.734909686096511 3.9127163752577054
Ga 8.642494052591129 10.248515025770566 8.238022305056662
Ga 6.589767037396871 7.255495657547576 9.465809832399184
Ga 3.8532368210103245 5.439287490964154 9.187688739859544
Ga 4.816856043010033 6.2099297492575545 3.8607454566529142
Ga 8.737900153684134 9.481922148590339 5.258090218633293
Ga 6.247916283134519 4.004649826827053 8.542877516051028
Ga 5.302855452112423 5.880400171962938 6.5508180593296945
Ga 6.889077741111437 8.211804435790096 6.795633066492328
Ga 7.888729534450682 5.73644652687206 7.167683578569249
