33
Energy = -84.71324823 eV
Ga 7.573500742957468 5.644413257982434 10.757179513337846
Ga 12.476675702598971 7.11575770181277 9.314253300378589
Ga 7.446182191815508 10.211485060124316 9.57523908630405
Ga 6.3824911108285605 8.383145167054906 4.288297989500457
Ga 7.955680804892213 12.15502185147975 6.432206226768496
Ga 11.073202345334082 8.350146084405058 11.83739846514166
Ga 13.141970583128574 9.60892341818666 10.297444157209547
Ga 6.432517952838227 9.769278606098371 6.656587662094735
Ga 8.91297751445257 7.983268726343607 10.319698769200148
Ga 10.367666778983493 10.230238010151774 10.1104959602731
Ga 5.910887792190483 4.323733096340291 8.991764629323857
Ga 9.339956955700043 12.160383550532424 8.669441702926017
Ga 8.305756475868138 7.299137752089639 5.86795760704883
Ga 6.492713821458339 5.43294628470839 6.499705171663608
Ga 9.076317569462569 9.423224473076147 7.512066093974591
Ga 12.703226636508946 6.169858781340406 11.789207893777167
Ga 5.045140434847248 5.628400989283158 11.62956586795856
Ga 6.030463778356236 8.146639887368613 11.000264948586121
Ga 6.475930462648489 11.354467393327338 4.324424887357543
Ga 4.73164085433258 7.632186217163978 6.509990902272381
Ga 12.195288607660169 11.880171378811422 8.737929009665079
Ga 8.829910365214827 9.946051854403448 4.567795021335395
Ga 10.394910106121689 6.840312205547562 7.676224814354354
Ga 4.707503942170431 9.484351334578989 8.727992686223844
Ga 11.86944250138832 9.195372330609725 7.784097518462656
Ga 10.777209530895005 11.13682570924924 6.227011482509958
Ga 7.034487748160256 7.444140867082903 8.39018280820278
Ga 5.778854438083133 11.963980681372664 8.286474435258738
Ga 3.8184769062262656 5.013375796177263 7.091021150064525
Ga 8.626717531420661 4.969496426479664 8.107729782452761
Ga 10.259078263570261 5.6285619191639435 10.502410853824761
Ga 4.500341200915932 6.778155682333635 9.128914307960823
Ga 10.919862836816064 8.336857497687735 5.3578620762116405
