33
Energy = -84.62015963 eV
Ga 8.115091200947857 5.584224430215159 6.010899605233109
Ga 11.07199821404836 8.689988958556334 7.89520487219321
Ga 10.812754332089675 6.008537188874805 6.581384476327669
Ga 6.352229801277468 9.58816115948313 3.264392683212539
Ga 5.624551520822734 8.50336885079577 5.659888263360551
Ga 7.8403693992443095 4.749753002350481 8.496041959024001
Ga 10.690944875042662 11.051841454836321 6.41481147506819
Ga 12.643164685902109 6.309638761558541 8.607488264841189
Ga 8.327479982455593 8.043976383464628 7.539810486694336
Ga 10.037688431906934 5.940215878205693 3.954805169282314
Ga 5.691300899428815 6.781662490536884 12.20261049293727
Ga 8.717573506488863 11.070735786474849 8.503939293658933
Ga 7.983367468687309 7.738562844708391 4.285050106227703
Ga 5.885434916196558 6.610818813475099 7.396565173078986
Ga 7.172196612513284 12.449881570573133 6.842423773653513
Ga 12.019265055477454 8.386686207770955 10.460602954555725
Ga 5.844206564881898 12.53856421976261 9.195445250485141
Ga 8.133583885478833 10.197140543743407 5.614322294592563
Ga 6.143109817105707 9.934688145279722 7.883627115871491
Ga 11.280814523028164 10.96541499414287 9.370952931345373
Ga 9.211959300644796 8.971841103746657 10.106291238980832
Ga 10.24633494425917 7.005035196678963 12.072907487948799
Ga 7.77443502085878 8.751171201907114 12.421973051308067
Ga 5.663859829141785 6.038475059496262 4.523932624118736
Ga 7.143376118433276 4.055238533214279 11.135384473632872
Ga 8.038015595744156 5.843586349547085 13.371634107623075
Ga 10.281437918605835 8.491535719028919 5.307767251360472
Ga 6.075614509549045 8.276621930633357 9.819926406207468
Ga 5.350052313256194 11.139716781836002 5.398135367246896
Ga 7.119626508986471 10.751238965180368 10.71398421635364
Ga 7.969425441906333 6.555180318618644 10.616378834513894
Ga 10.03496996219485 6.391926862083465 9.137525714082063
Ga 5.34837550601538 5.634499405194942 9.746600377856433
