37
Energy = -96.27687265 eV
Ga 1.5799087988493232 5.036644470074356 3.0208708995407396
Ga 0.998958482752522 4.116008718709259 7.988181467626234
Ga 1.7101614474946603 4.018746966631953 5.407110205071326
Ga 1.449671236495602 7.32868006365587 4.445811819359821
Ga 2.34799915981307 6.369714025812984 6.729589550460902
Ga 3.3243218307477806 6.6520020021102875 1.7226785833261307
Ga 3.385747496487013 2.897408539571388 7.415123131615399
Ga 5.423232267385815 6.1401197987569045 10.038960693476936
Ga 5.696133246035158 5.472585493254771 1.5546349559424173
Ga 3.838575520402072 8.413234897393531 5.352517367413857
Ga 2.8391481931874374 9.144090968378412 2.8238735076058483
Ga 4.418616037600927 2.907187227109877 4.947251250350291
Ga 4.3189402496301685 7.827387498294893 8.053517539017541
Ga 3.7964725941834336 3.7393477482155095 2.2388988202619218
Ga 4.762433082779708 3.260465403081561 9.943910197395077
Ga 4.066046567598474 5.775161120130625 4.405272661494388
Ga 6.572177989575776 4.398685909489278 4.01092296972526
Ga 5.487311201706658 8.102819930671814 3.0920711562735326
Ga 6.892304356320366 6.948925096378139 7.692707492533051
Ga 5.044912385438228 5.083158778470342 7.025345819396216
Ga 6.708196498186107 6.705201746493908 5.129577902315564
Ga 6.3102545458176635 9.25551197813038 6.161912808015356
Ga 7.013483847759009 1.881870328764478 5.177100940974995
Ga 6.078340801662522 2.4882051354780965 7.546246804651439
Ga 8.112413786308858 4.27120059872202 6.355929326806994
Ga 6.0468612207849795 2.0715095059835016 2.5274801154193134
Ga 8.677378711387023 9.077600550179596 7.811070920809048
Ga 7.3117687920645835 4.424019221366373 8.911265665150891
Ga 7.981628661231568 6.841688874610747 10.246248709831596
Ga 9.152846193921812 2.7651917731954025 3.8789159984261268
Ga 9.616536578503158 5.938900454433251 8.278713021703146
Ga 9.448870730711107 7.282982134048501 5.939757038953263
Ga 7.883375676170874 6.7199720512291 2.420696262685844
Ga 8.231612383160622 8.938331909422772 3.9523458638599664
Ga 9.456188694147402 5.428464458810802 4.121139331629768
Ga 8.052217114734027 4.01425796726689 1.6816693657630324
Ga 3.09349844053926 5.3912614772476 9.079224656691723
