36
Energy = -93.6843269 eV
Ga 7.068233400942992 5.56332367408146 1.273568373071982
Ga 7.400965833098731 7.65552133058739 2.919238344227876
Ga 4.805557376375961 6.361978435702976 2.7214561869380507
Ga 2.504098373131976 6.940112979318026 4.429041092599531
Ga 8.971382588250272 5.319353638615896 3.4809609711570153
Ga 9.544321626578055 7.760344881932074 4.779072665941627
Ga 5.097924831188544 8.071531648321672 4.770394582499286
Ga 10.231108089611585 10.140823064954798 6.077436252886957
Ga 6.3989630054746005 4.22091681013813 3.6265960117716567
Ga 7.120146561558174 6.314495662487041 5.545873801792016
Ga 4.578138367192073 5.200458685348397 5.331184766012822
Ga 7.425449559749597 9.502002844677909 4.779681971504379
Ga 9.670349867410534 5.56024827535309 6.626650167189389
Ga 3.2156512443843956 8.159828510877414 6.974115593514347
Ga 11.364041219847563 7.6262215659566 6.97499940710537
Ga 5.027199523388756 3.9607547179163465 7.786456853125759
Ga 5.628852775292435 2.374102453618947 5.468865952130909
Ga 5.464550799609709 6.7171619423006375 7.688798528240576
Ga 8.260542306363435 3.6339191553301413 5.57412682974837
Ga 7.437478649218096 2.4698529912398244 7.763407721904716
Ga 5.509472038630683 9.425264525356377 7.020973642359594
Ga 2.7558715125959905 5.432564141931252 7.164688068552956
Ga 8.254504905156908 8.1770765657628 7.265681374585356
Ga 9.779260603030089 6.608984243041311 9.254164627077392
Ga 7.592407968147121 11.093156867429624 6.86387094937575
Ga 10.129588248770897 9.233289651064872 8.90840469637924
Ga 4.715107632404386 8.649861656793894 9.639039531571868
Ga 7.511873977530337 5.110629333576692 8.17569003337124
Ga 5.298812926673361 11.447500328090237 8.817465395152926
Ga 5.520553449652786 5.280185897537643 10.33575888968172
Ga 6.568610479572104 2.7556215782279287 10.278741630522745
Ga 7.430130516311873 9.781256636836739 9.373523961726972
Ga 7.219827862509424 7.286119022860215 10.1071606865328
Ga 3.1329549935305963 6.331270959144892 9.753886422036004
Ga 9.602511998568671 11.82115205154661 8.554306579881606
Ga 8.51669933375463 4.766257717548403 10.6478618833374
