32
Energy = -81.99896778 eV
Ga 9.663771230982986 7.794649080784396 5.839735472740911
Ga 9.615413560989278 11.051052295684773 7.051907958888872
Ga 7.12106441144157 4.297897187159765 7.847166838985366
Ga 11.336268810474094 8.908730935594269 7.379138557971073
Ga 8.59973013828395 9.203252326228029 8.896494372874276
Ga 9.178503660769458 7.373092919117516 10.823369529649801
Ga 7.38685262390115 3.3424375772992074 5.133843867189341
Ga 4.658113698539062 6.282202744137398 7.914051038016472
Ga 6.864066617856282 5.998715070203129 9.740005088151804
Ga 6.691393962470692 8.104458469995617 11.481526528969443
Ga 11.228406918901346 9.302409604629254 10.790510714196026
Ga 11.714540234103122 5.968509070295861 6.8187565413451345
Ga 7.302122491062774 7.160252252633667 4.425040830841383
Ga 11.51017622600285 7.070388531882425 9.39826293483274
Ga 7.049089256481469 7.539823861207573 7.235204949367842
Ga 13.483867869305074 8.921899899813935 9.175915026561668
Ga 7.627268862927899 12.401989700922769 8.54303976297814
Ga 7.985410719157549 9.707941915138148 5.231572807603631
Ga 12.7030545887249 11.634642575289003 10.833630875317912
Ga 9.2463335549756 6.140134618097483 8.366156732740386
Ga 8.689993485664232 9.828483175184882 11.828353450882206
Ga 9.696075222529252 11.708863230167092 9.940244835980213
Ga 4.364127872441328 6.880995896634371 10.665201834617358
Ga 6.498060023372405 10.795604584187842 10.30093656594113
Ga 11.898436551767066 11.272962265539219 8.329745563543424
Ga 7.499217505144695 12.293673330953938 5.758036167837668
Ga 4.3021827356072295 9.557008652578917 11.475972664454629
Ga 5.764878150526849 5.370526704484273 5.7181920574932645
Ga 6.271050806824627 10.321772834049346 7.286838990555947
Ga 10.548994536812968 11.55205178277544 12.569985855162031
Ga 9.073368345123015 5.222892593702343 5.8340860037482045
Ga 5.181555800500675 8.720246287441023 8.860741524837445
