32
Energy = -81.80536089 eV
Ga 7.332492151329702 9.847462701472812 10.282658831083596
Ga 9.692857804386037 8.915384622088814 8.99783770486465
Ga 7.799389645559885 4.902320461510309 9.500856480843977
Ga 10.840836614646596 8.18928395690621 11.367533308350247
Ga 9.753605605959766 9.592117049293785 13.693055142359984
Ga 4.908477187874444 9.287407221024784 9.406443824352143
Ga 3.528724065925226 7.066287143450578 4.895540847246171
Ga 11.872785845530533 10.549658906107231 12.436688824719552
Ga 8.753841290590774 8.468709802156186 3.987527958766266
Ga 6.83633931030307 9.871732885353229 7.366670751295456
Ga 10.450765727749602 7.02912705880594 5.2139281149361505
Ga 4.036994708921336 7.561419921564149 2.2702857528575797
Ga 9.408156618401122 6.2597145677147195 7.530114899997689
Ga 7.337958224762504 4.53278981580163 7.022008053712079
Ga 5.062563610198932 5.813295397116507 9.073736200112243
Ga 5.935492403855067 5.869682305319392 3.68520547469576
Ga 11.730443699509234 8.023878586044228 7.268965565612829
Ga 4.639617831961866 5.2074486590183096 6.513845063527174
Ga 7.500329318692846 10.817756995991141 4.861539396978905
Ga 7.257997381077833 7.5336654413798945 8.590667016573407
Ga 9.547080362501195 10.7357364750265 11.052770357814289
Ga 9.38926474618355 9.416059655741078 6.460247258743184
Ga 5.174552043159654 9.19314226728087 4.914082920073525
Ga 11.419429564274731 6.341128456017522 9.40137278775767
Ga 6.523041195117377 8.303960988885034 2.785940711397666
Ga 7.026975948419969 7.318133332788806 5.83803631414196
Ga 8.909202720582805 6.504436939212197 11.039470134386665
Ga 6.001357919710977 3.4901172794759163 4.956558769058244
Ga 8.469661440943225 5.238748883856923 4.612496130845512
Ga 7.856469507949368 8.340346585094238 12.590205474336612
Ga 4.64168860611703 7.933741493977577 7.256710398173641
Ga 5.95512834211731 7.296407602227521 11.068705668793562
