34
Energy = -87.12523179 eV
Ga 6.440870903074938 7.571561809436299 11.457154880992691
Ga 8.183873700177216 9.704152666556384 11.839497697034986
Ga 10.394734602190065 8.444061774035863 10.48657226320941
Ga 6.554368037404567 10.721036100361902 9.721182572987548
Ga 5.337998958322548 8.461842002647295 9.001058653283998
Ga 6.995599178469694 5.616448270419942 9.561770141370694
Ga 4.355147173645286 6.196180190935317 10.045067109773681
Ga 9.354261553089783 10.716688708839607 9.00344533598233
Ga 4.907485434431826 10.74944791361391 7.395961725401278
Ga 8.015917828763893 8.26158196848615 9.365318695767257
Ga 10.187892389524478 8.407848656317508 7.553801606813973
Ga 7.615937797903058 9.998469341947402 6.991736946842717
Ga 2.132435976604851 5.534048531779047 8.883263992182748
Ga 5.653212043540682 8.489483219575762 5.882924418810067
Ga 7.6692582863475645 7.017428930336395 7.179783178640325
Ga 9.747779372351445 5.903919365707734 9.376969798054434
Ga 7.585001554895168 4.0913983384605155 7.446313741405434
Ga 10.029920546995385 5.7035928046873074 6.716525070101768
Ga 3.2685501072267273 7.9708053914851185 7.278436590184665
Ga 7.138319177550031 5.565102701536264 5.055984275813635
Ga 5.190091362625416 6.008543464630675 7.2952116194573176
Ga 4.820883316899367 3.5874690785391876 8.566457432425219
Ga 8.702071213625675 8.409009457361469 5.034646052744016
Ga 4.03719831303219 6.554341711085527 4.630452290534061
Ga 7.734771821027172 2.7900814837003054 4.878924424098054
Ga 9.769145189938603 5.840193371719836 4.197487809174435
Ga 5.1734444816536 3.5424105273490922 5.801915352724821
Ga 6.253373744406771 7.528753474882499 3.439149532655232
Ga 5.232100391136798 4.4818746479163645 3.3146584062107243
Ga 2.8178520444142308 4.865966620614297 6.326664414154128
Ga 6.376633794114847 6.237818353387839 1.1578110111451407
Ga 6.221927545806541 3.590462381138964 0.8645683274158015
Ga 8.772657958228567 7.599681133642448 2.3026144342600388
Ga 8.086832462765283 4.600635416945057 2.6883662094507392
