32
Energy = -81.26843915 eV
Ga 2.6386945097506693 10.016857877989782 6.249902019692048
Ga 8.279037657477982 1.991536215109904 6.567254067861364
Ga 1.1565087590298537 8.290310224409325 4.949340020286514
Ga 6.714352568945605 5.692173989560398 8.821054732542253
Ga 6.339949438131299 4.129664511404935 6.4496508585295445
Ga 7.247136410999836 10.992495898120504 3.927736559595399
Ga 4.67798931626853 10.497497261474125 4.622633469156598
Ga 3.7754532140429875 4.685524256543705 5.950444848656794
Ga 6.930369424305512 9.860385716829748 6.620654710886643
Ga 10.46401424146445 3.0250650095294747 8.10098656300652
Ga 6.275930120307366 4.127298304674929 3.664643388664843
Ga 9.202282402699199 4.74414960962771 9.75689496440272
Ga 8.793655450504263 3.7529832995090158 4.589875223626381
Ga 8.326768044795578 2.5221075212835347 11.13729941073721
Ga 9.055165141420641 5.032717022376339 7.049181058557686
Ga 3.3159910436469104 7.277024115099278 6.2158351724756145
Ga 9.039105066420998 0.9706981912682896 8.93935348891879
Ga 3.4435653839310065 8.377628972746622 3.505324453303605
Ga 6.494776003859938 8.255804883569926 9.258992637313131
Ga 7.121346190741423 3.096108032509307 8.778628905067007
Ga 6.194585960228508 8.333241586646913 3.997303930143464
Ga 4.73119904343168 6.179407232877152 3.7080653947158977
Ga 8.458841273378422 7.525038084586718 6.851797716976762
Ga 4.970801448596814 11.779665730008832 7.042664718353249
Ga 9.179571867903316 7.364041625515156 9.375106583035969
Ga 8.721577401407549 9.918012451787442 8.620781101298101
Ga 4.522563020613367 9.058026901252886 7.881511240564331
Ga 6.348009402940043 1.709755608808907 4.757221731517378
Ga 1.9386081702578393 5.747705203736828 4.0812668115199
Ga 8.774965431440716 8.890232230624648 4.526794089653436
Ga 7.937273444845387 6.255490169021017 4.481506749768184
Ga 5.794039814262765 6.83021300452316 6.564352767928716
