36
Energy = -93.99383134 eV
Ga 12.071417976662639 13.90639871376703 10.272708928582254
Ga 7.58930467328226 11.86780657375755 7.606989541156296
Ga 11.113813811831404 9.268783244383242 10.047000163852504
Ga 8.507062401756059 7.480715732945648 14.003520726444373
Ga 13.479315799229727 6.8887883163307375 11.742486918795079
Ga 8.84453284874777 8.017516789071854 9.382686515171908
Ga 6.812864261164027 9.285175335702256 7.3791834556099
Ga 6.720952450399302 12.684055963203235 9.920365382021911
Ga 7.683844205650665 8.927927730031 11.895992608806132
Ga 11.012859101925377 9.39092128828995 5.176410119533734
Ga 9.312816170151049 13.50017329631611 10.825998860509998
Ga 10.859497793174475 12.037779397078376 8.762634821192464
Ga 5.916866107028388 10.050296087591114 9.68148801559298
Ga 10.079946600522923 9.782708647976326 13.500670356676295
Ga 9.625635956119716 9.924761360101554 7.652015196741566
Ga 9.146179116094071 7.608704682250892 6.281693804264865
Ga 10.571989358626828 7.452885185028103 12.171347230710838
Ga 13.252414735926477 11.15896326285228 10.025350794597705
Ga 8.678062259187152 10.728196997281694 10.13324549075147
Ga 6.952603264649697 13.824978255584469 12.359582639392373
Ga 9.086296473538908 14.216290336716023 8.081072723138588
Ga 8.315589667720149 6.067309734588782 11.46716002418782
Ga 11.12470227362834 11.721542863363092 11.820977228047498
Ga 13.537496579148085 8.299215603200583 9.198259290694482
Ga 15.025167320591157 9.404055443206092 11.20637240684407
Ga 9.240350120361002 5.412364026656246 8.597634573543273
Ga 5.626218855415259 11.152268544319652 12.20576487258818
Ga 6.957621303678091 6.628499944307802 7.626131391241803
Ga 6.217501042837857 7.360220679325588 10.10043640062269
Ga 10.099458618140845 12.16937369528899 6.148494227175247
Ga 12.487700077085794 10.160162228154702 7.3940432127801845
Ga 11.489196774138714 7.546860161076854 7.556213049078659
Ga 11.444828118917636 6.330285493525851 9.935336260155482
Ga 8.316519711277992 11.530126348297435 12.733062273293674
Ga 12.539098487201256 9.4206072707423 12.354236538242253
Ga 8.091537958237883 10.306836619391452 5.170002664034833
