36
Energy = -93.52688028 eV
Ga 6.383186980824292 7.089506863711427 8.695101204253488
Ga 12.590151108554961 8.470998817606883 11.36377807716133
Ga 10.333865759503489 9.984916476866013 7.832072988135472
Ga 11.480841787819783 8.209141796144623 13.806198967285523
Ga 9.940885863035382 8.84024208365192 10.398414273194778
Ga 6.605650742084557 8.591264375768638 6.49978145294279
Ga 8.936885732499059 7.7152020790822435 8.026110635076412
Ga 6.618679538089066 12.066695931515824 10.57804237783358
Ga 9.144896549220507 8.604133103361894 5.381638475392972
Ga 4.218211017119867 11.969646996755955 9.513040640691244
Ga 11.242966667554816 6.089211531198339 12.048002168096513
Ga 12.2094964654199 11.983923502484549 8.468693246234613
Ga 12.822495804073078 10.614780210163618 13.413933195262505
Ga 4.2723491863482685 6.767365214953939 10.386251680243857
Ga 8.694253228778656 6.260061552634238 10.250734848620596
Ga 5.632137776277989 11.023689758026592 7.4304681120264835
Ga 6.378504686185296 5.008302233321297 10.770520055588978
Ga 11.42024265210797 6.678082776219081 9.366430385562603
Ga 12.97572674966472 9.019301107162514 8.89777349808134
Ga 7.488335501062366 13.121786788099751 8.182599072048786
Ga 10.477339033230042 11.004573857958807 5.0893587164476335
Ga 4.858318013565792 9.437974490498574 10.114518739097436
Ga 9.27856686663797 11.580997289479685 9.92979468564058
Ga 7.3929713003219915 9.742501304533302 9.148341791780487
Ga 11.46740793903959 7.500214452712998 6.768822914596482
Ga 8.058373057292597 10.956561784250418 6.472138756934768
Ga 9.967203313091229 12.788241899998122 7.145767479499594
Ga 10.014620801676656 10.360148028981062 12.711275688794212
Ga 11.764394681527426 8.577158831035966 4.30161384694139
Ga 12.777740529030181 10.016515730682766 6.507239873429727
Ga 8.987703425846398 7.693260838202192 12.674205717915
Ga 12.515081677736502 12.780314304570467 5.822444374558437
Ga 11.821724526409552 11.11686677326626 10.895216952172756
Ga 10.324227011016145 4.094750307053951 10.417146191190405
Ga 6.610184064643842 7.795476061214557 11.539527129554914
Ga 7.487437604103025 10.174411609984483 12.156937325217163
