32
Energy = -82.59579527 eV
Ga 7.306967158692895 4.218954471706565 10.087185557474477
Ga 3.5682933624963113 5.7071597485952505 4.10590948990376
Ga 5.834688258136547 6.076196694370023 5.462918298009572
Ga 5.533149180952827 2.139779585805658 7.798361186185878
Ga 3.022046713969967 4.069079159352289 8.202008390985824
Ga 6.443130528429678 6.70060965126765 2.9561724082786363
Ga 3.74816361650395 6.827381173627049 7.385135154459592
Ga 4.146688164838519 7.912826823588651 2.8151365740594074
Ga 1.6981812715667732 5.365248614615176 6.165677739186659
Ga 10.16330997206743 7.08064755360211 4.595421242662153
Ga 4.62530590624602 4.205331264076383 10.344376923345743
Ga 6.6683558557505735 10.594124961571023 6.4559004351576394
Ga 10.795816224743257 6.990895338253229 7.1324453068760185
Ga 2.2367984113451294 8.049459330864957 5.201103649172585
Ga 5.846608439031617 5.081775892153715 7.885252076471746
Ga 8.75464051974899 8.211035949446886 2.5256347685255824
Ga 6.875795710367022 3.256479600943051 5.133491341334706
Ga 8.618308061604742 8.859997964189505 7.702996920480948
Ga 8.275283008616498 5.258720931963614 4.076279119018892
Ga 4.9631837213483125 6.911604643394543 10.049992044379275
Ga 9.783168280025476 5.019909289979847 8.761313398452137
Ga 7.666656946110342 6.829850001470746 9.512288257087066
Ga 6.365776907355158 9.721643691988934 3.244893829634036
Ga 8.061513024016069 3.3766796900267417 7.570733959282353
Ga 5.795378206817625 8.47958985892264 7.9902801157456755
Ga 10.26605194072172 7.734646276762278 9.740103544929175
Ga 8.195402807298795 6.076457275907197 6.772674242474541
Ga 3.5774742677810036 10.38239229690453 3.903078930808697
Ga 10.174470859761087 4.145891473024143 5.811912876384488
Ga 4.29020660064238 3.7454377364929234 5.779402035792667
Ga 7.683946522039321 8.256192043840231 5.226683593642885
Ga 4.897418321810194 8.608097320648284 5.4973804903972745
