32
Energy = -81.78023183 eV
Ga 5.455938608674458 7.643999340878377 12.248926286376559
Ga 7.707034294508466 6.5704561173543965 10.85497771848613
Ga 7.451278312970934 4.213333871055407 9.624156297029716
Ga 4.329599186722502 3.1912655448306357 6.017112074231755
Ga 5.222629752067329 1.5120542152043668 4.095200205827562
Ga 6.372773192505714 4.102528006215364 4.431353258097492
Ga 10.791525591293325 6.001374912238952 4.345291026612143
Ga 2.640765562855648 5.509211703997289 5.982195489144567
Ga 9.45603973232513 7.92629162266018 9.45317582586236
Ga 5.147828143497522 4.240584707707513 8.2134395356212
Ga 2.1637964499121947 3.4331793932748855 4.181585423456974
Ga 8.524405387462988 5.388475953195531 3.016270247647894
Ga 6.210778953609638 8.694254722483256 9.736641239183824
Ga 8.132926027858904 5.402839082679512 5.773773249770452
Ga 5.027945919242892 5.924865676193406 10.231291821020443
Ga 7.23845894322779 6.503090511201043 8.07566625559044
Ga 4.326349493143 3.5490456364977767 2.5006015303883244
Ga 6.24505794575163 5.119850769342342 1.666334502679562
Ga 9.496615726751305 7.40604122554514 6.638933298571533
Ga 11.508658568722273 8.600632229289353 5.233358810265447
Ga 4.013844289677333 5.812772841829542 3.7426376940612105
Ga 5.372940074268535 6.029510951240134 6.1994610177299725
Ga 8.862488102702498 8.04869596427763 3.9511661720486515
Ga 6.252402345372592 7.187637948046162 3.5034278416979348
Ga 3.2285322922608923 6.467012533695996 8.265460883259458
Ga 3.4822010702618105 8.350517453085478 10.19778324654877
Ga 4.81750970479639 8.536450798436233 7.466103152394976
Ga 3.785768382808431 8.272826044078643 5.023139772073874
Ga 10.705372814171957 9.50472538674429 7.702606874565308
Ga 6.851782544046175 8.355849160498554 5.797148113311638
Ga 7.788255639922549 9.656182971869264 7.950833692085825
Ga 8.817942095425483 10.374457754641083 5.560290660403092
