36
Energy = -92.13984154 eV
Ga 9.607250760658479 10.505090542931486 7.312621318179606
Ga 10.49310747576798 11.007372799339539 4.840630315231933
Ga 8.045421727014306 9.00038932299532 8.818806766454617
Ga 9.28200520653416 8.529563894651188 5.340751002519556
Ga 10.1935551600573 7.678064184765733 7.820727880029862
Ga 6.074507807666388 11.008091881547246 8.971526905402694
Ga 6.757524707853145 8.506998033992641 4.081380025948406
Ga 7.352589735518826 6.194983978938816 9.374535753070168
Ga 9.019345596366126 5.845230626178499 4.740014911750258
Ga 7.7270367126068775 12.416195974367541 6.808216469967755
Ga 7.805754970126323 10.904987551356852 4.332557947605741
Ga 7.451749611735249 7.102886799324347 6.7056304290532704
Ga 6.540084114149627 6.113626936093371 3.3817730038551126
Ga 2.2297789250573476 5.451341100996226 5.582864767535277
Ga 6.69749741773048 9.901367530851527 6.508628563286313
Ga 6.006364878091704 8.290204460936195 10.729725407132726
Ga 3.5810630250476727 6.6127426414754495 3.2876016657786575
Ga 9.440268468699166 3.2846542211444953 5.619568719812832
Ga 3.285160350429973 8.52444445305219 9.9971682741307
Ga 5.286800750392258 8.291925028236271 8.031868294406365
Ga 4.803361835159135 7.12260347763457 5.70594406230024
Ga 6.9916768333266965 4.483499812758073 6.551276224187857
Ga 10.070205648220602 6.118551623672807 9.973907943796158
Ga 8.869790996369995 8.236238259191525 11.224145395853727
Ga 5.024919295412462 4.342162492091801 2.269612136915111
Ga 2.753629029132996 6.98704463793559 7.771798535799233
Ga 7.229471296060672 3.520805520277991 3.9095202739689574
Ga 9.304703562329736 4.779189046020801 7.86141357800609
Ga 2.6009571687114073 3.469040421711821 3.521005572556773
Ga 4.171447151693266 4.596694338147541 7.5589719406414195
Ga 4.79482473302971 4.540242037216651 4.970176750024959
Ga 6.366324071370657 3.582557017144323 9.248739535663095
Ga 4.959416541198403 1.877485258310473 3.828893701013931
Ga 7.639909739973223 1.2119340850489675 5.34276259256679
Ga 5.26326709683283 2.344651779679955 6.632702891495701
Ga 4.6779593805491615 6.025382469014482 9.710889906996888
