35
Energy = -89.25739891 eV
Ga 11.749249775263195 7.71764316789561 5.390351743652195
Ga 3.144300614164791 5.88022516402547 6.353965340882319
Ga 4.109406267099797 8.473351752793933 6.788319633420965
Ga 4.127734235088686 7.623636218421291 4.03914289351285
Ga 1.9835645891902578 8.80490682487522 5.069989113205754
Ga 9.506332718000415 7.468422515469134 5.548777962083618
Ga 9.70725517918939 7.032852622897254 8.597393161358454
Ga 1.4448227547448402 6.128819741376487 4.354629970222695
Ga 10.170597466465066 3.2034024790771376 4.646896553240697
Ga 8.334365869616796 10.025191808699129 4.980203115801538
Ga 7.9026477293623465 2.4466858661505033 3.557528695254749
Ga 6.526218157906281 7.836511147884501 5.494132867222958
Ga 11.749249775263195 2.7915982784977365 6.702755568249801
Ga 5.00216294891776 5.859027555921596 8.227463405278378
Ga 8.736645999859947 0.8282363018138813 5.71358374492791
Ga 10.10625906670421 5.080056923234837 6.633606865452044
Ga 7.519401686971577 3.453379293239791 6.112667128797154
Ga 1.3859845625979748 8.0738491088313 7.5609206377483495
Ga 8.537283432806364 5.301885741324333 4.080455974286837
Ga 6.3298636797127195 6.514084686194672 2.8542539128238333
Ga 3.197821160455214 7.583848446273479 9.359931492251048
Ga 0.5154964146725941 5.528756605114666 7.017151510611127
Ga 5.852545486839079 3.8844388842970674 3.1240742163695328
Ga 8.128924165030467 9.01747150626463 10.209586449685137
Ga 5.785076665694178 8.961805213601872 8.702464516907026
Ga 8.734367294775945 4.523174986266662 9.214137592995606
Ga 5.583688973674325 5.183375873110431 5.477454146072501
Ga 9.267724856575974 2.423559573633081 7.773941220814134
Ga 2.335993834820726 5.018262674787391 8.897669114964526
Ga 8.202700881259204 8.958159314085758 7.418084076059236
Ga 7.023312129680904 6.53333449017497 9.71292950416636
Ga 8.685271404415555 7.8947391089046715 3.0029274415965554
Ga 7.526913493996303 5.963915834529447 7.080345095457307
Ga 6.177570174182719 9.37103104746573 3.1756924359342777
Ga 3.516421788119169 4.872465882194926 3.398006529528962
