37
Energy = -96.14528178 eV
Ga 3.5378837961095746 4.121923901024367 8.00714595965378
Ga 2.9639973921268874 0.8412687009609067 8.197761648317831
Ga 0.9908911864598388 2.867657908356075 8.999854218023728
Ga 5.473392119693738 2.236883412893513 8.922759111538458
Ga 2.1771201807252867 5.206890631092952 1.1388131023686414
Ga 5.062147210664471 4.730376762415874 1.305801575304445
Ga 3.247983293596857 2.42718500226381 1.3363202609467457
Ga 8.485094026799878 4.948146058195501 1.3622785172278808
Ga 1.2685744584513754 0.4220655471411207 1.5417242393114632
Ga 7.820855316356458 1.9246083763509259 1.4716483112188852
Ga 4.2846167852946495 8.926102269218244 1.7094730662794406
Ga 6.570077494710426 6.804948338989796 2.5183739561671943
Ga 7.677707080979916 3.956976519636895 2.6198278050930126
Ga 0.8592278367744897 2.9981306451071936 2.7351367469655394
Ga 3.6807712743041288 6.737994887324612 2.985020763832791
Ga 7.322638569894893 1.4878518760539898 1.4657987302438527
Ga 5.2718024995743145 2.2032704355392165 3.121059173471364
Ga 3.159241330464008 3.80792514895067 3.54145351112852
Ga 5.125812729301861 8.898003233680942 4.5961271685136
Ga 5.49159171909962 4.751096440252614 4.090283939065068
Ga 6.915448865048242 2.803254788234395 5.506051863694874
Ga 0.9812526193079478 5.7230259652752 3.710426600230675
Ga 8.908502168885915 0.8572815740091249 4.2035263259132725
Ga 7.657433258707174 0.6843511084289697 3.9960178605571466
Ga 7.795106098900515 5.620441902880778 5.27432273509682
Ga 4.019607218261069 2.1205828670470903 5.775243812206987
Ga 7.900956191230121 3.9039623783575417 4.328576394133831
Ga 5.240431307585773 7.1992326909596525 5.370816763921929
Ga 0.5485888001391959 5.515692116904204 6.658149892691656
Ga 1.3395044812678534 2.9278029651427837 5.554259730639948
Ga 2.582688618415618 0.7004741575558051 3.9666881967196295
Ga 2.2025489638670477 7.9636384305877055 5.059679001530406
Ga 3.072390504356029 5.3337227003838015 5.559178970479466
Ga 5.487737855592961 4.751624325923205 6.860279390482277
Ga 5.505060256669578 2.168700799740527 8.00714595965378
Ga 3.552422214785075 6.689678745705336 7.821914123179883
Ga 2.976645281082756 3.7241570627436626 7.838811579680225
