34
Energy = -87.40427755 eV
Ga 3.8501156807103367 9.719737231037191 7.289485361937029
Ga 8.867452135880354 4.463374414061849 7.024824274563727
Ga 6.571346824823747 5.750549773734109 7.243387176841091
Ga 10.06924560535503 5.441867573593541 10.429733821388739
Ga 10.85839957822488 11.37355438248817 10.112534728908765
Ga 2.3997984127308647 7.646206184662383 6.313036118771526
Ga 10.081038650632708 3.1080311236529843 9.057454644801957
Ga 8.148618313575554 7.299829558917787 11.153728238594542
Ga 11.227596776682535 8.010625859617775 7.00688637988585
Ga 10.538340868213858 7.173743673619625 12.456666379392537
Ga 3.767344098721576 9.131229273807632 4.281954741440009
Ga 12.704611853739856 9.807641139032837 8.834888291268149
Ga 5.2017974356465615 7.560266637950401 5.961141012424814
Ga 12.435448762785175 12.542516778079314 8.208176099991418
Ga 7.936670804185718 11.831666140110237 10.578667811868605
Ga 12.242677545557534 9.339335186077422 11.6582927702108
Ga 9.476153321420332 9.712982163738905 11.646078657955453
Ga 9.692928517036222 6.399162046616433 5.354143383165341
Ga 10.001352129123768 9.17813695496379 4.734930297671385
Ga 5.8383875916436185 10.440551352559009 5.449703909443387
Ga 11.030844299064627 10.785414840823272 6.752108683110047
Ga 3.937074712011032 6.287161869392076 8.07781707726761
Ga 9.333425469494648 12.420888377551755 8.230114791328576
Ga 8.850640294280888 9.596936246434126 8.882023939909601
Ga 6.426512682810174 9.330743741875919 8.021219528399474
Ga 8.854803118072141 7.015439125329469 8.253853439372243
Ga 7.600014919842442 4.539658820398835 9.579564895002314
Ga 11.390134951171829 5.509468785644822 7.828868023405856
Ga 4.305999438447645 8.628707111835233 9.595039179917977
Ga 10.9900624992665 7.954342591985596 9.715222653407604
Ga 5.948702158824674 6.5628213813516 9.928844110124432
Ga 6.520328217380207 9.463225293929694 10.87277956930374
Ga 7.682592637288599 8.051423348343867 5.752906211971146
Ga 8.260077722447619 10.748119762999211 6.436885056984441
