34
Energy = -86.61704934 eV
Ga 9.157561038375976 4.9027800632662855 10.136624775607151
Ga 5.657471757930499 7.172020328105852 9.147021668612863
Ga 6.643695410121785 2.824831255944936 9.574627613264676
Ga 7.527898154374869 5.086197881903037 7.851787945196823
Ga 10.922964143753644 7.076218964403234 10.394216962872479
Ga 4.7294447112128895 9.11119279990745 7.607859442121977
Ga 12.513724500912618 5.103777733787051 6.240832420870861
Ga 2.630992515110533 4.511994365638987 6.620675911226178
Ga 7.111280528408768 12.315028607556737 10.17966272211597
Ga 6.456850109490822 5.297459743596434 10.75356086382243
Ga 5.943606022329396 6.692975732389327 6.366420736812072
Ga 7.432380219202099 12.77820019420761 6.5394975605407675
Ga 9.070189508941382 2.8073076551974374 8.361517758722469
Ga 5.427784205525482 11.440640219974798 8.256457853353973
Ga 4.034928279028825 8.550645699168825 5.034046880246796
Ga 5.446544744804161 10.783551720177579 5.5095685322527785
Ga 8.350544758327075 7.2790793783730585 9.425800395543641
Ga 6.084178156367153 6.492877953346616 3.209252590598096
Ga 9.10487623738481 11.85807102240485 8.482407218184667
Ga 11.279548390009843 7.3331014119138205 7.520447943919508
Ga 7.111219255154288 9.616053179772525 9.523050425088254
Ga 10.707147465940372 6.722017598551553 4.996409430301663
Ga 9.935930876036563 9.329109434557473 8.76438254656863
Ga 7.849070914083621 10.089053294775649 6.72710223988173
Ga 7.930921829121018 5.537141500333114 4.823473589754983
Ga 12.655820531966157 8.937061403361758 9.442272191473734
Ga 5.970522153974791 14.081260874209969 8.487910414850582
Ga 3.937092322697381 5.905269022498522 4.6968260442347844
Ga 11.433529890066543 4.827733013853564 8.694889748149606
Ga 3.282829776225748 6.988324443184577 7.521731512574436
Ga 8.697066601557998 7.589785800206647 6.6859521367183845
Ga 9.79494126989913 4.625151214136246 6.5219600942264195
Ga 4.9773728118869585 4.541148095576587 7.96485831959468
Ga 7.034460706407841 8.574078297198138 4.6583345460466425
