32
Energy = -82.74002006 eV
Ga 4.470818751547797 9.019651725099031 10.809628900713818
Ga 6.525455769549392 5.344928389237021 7.499418895037069
Ga 9.798522256613266 8.407121429922695 11.036881945050673
Ga 8.345241869513506 10.342502855397486 9.502022212748905
Ga 4.114381197242145 7.600514818709477 8.4707736915771
Ga 12.295621890763348 7.872330680243278 9.028589923017833
Ga 7.080649180715175 8.59525902939594 11.258099103510206
Ga 9.585606022498395 8.371106956797414 5.330161141328012
Ga 5.118594949037304 7.380874627099434 4.35664001764309
Ga 5.534948323753648 10.97846889012911 6.001006408405137
Ga 8.021734511124002 6.064777832515353 11.714330530693692
Ga 11.880149957958139 5.09673268966224 7.974705523049196
Ga 9.177854138001262 6.0584005998844725 7.288444270830173
Ga 9.914529191027643 3.4119961596967774 7.371967586262895
Ga 4.160108786979526 5.868719071166538 6.348090325279195
Ga 7.333835914605086 9.300361019126516 4.27454567101615
Ga 8.013793612407403 10.360714639458502 6.8687385287550935
Ga 3.7019355319351743 8.893060592752262 6.224817282394614
Ga 7.550990376019365 6.3560052970106335 4.993466192101942
Ga 8.19111023805795 4.3053968604122215 9.367969393646913
Ga 11.272399247266021 10.355018116235279 9.734006766791403
Ga 5.584197193282007 5.961691205245901 10.129251777060531
Ga 6.34469532669095 8.12931984772349 6.755772111033847
Ga 6.1437642601558915 11.319272144775555 10.81159525796872
Ga 9.994494424037404 5.199595309541066 4.852742746789341
Ga 11.671433300941734 7.040231986909164 6.182261036946949
Ga 5.423238371151979 10.16469750065051 8.494352401959917
Ga 7.640882937425785 7.421381432980909 9.012665901956344
Ga 4.796910087094245 9.963888179387261 3.6587393577117555
Ga 10.732222877257763 10.595492019393248 6.866073964570232
Ga 10.263107309020016 6.001727043362485 9.912302307225678
Ga 9.869338297073634 8.41552869162239 8.132800172317328
