33
Energy = -84.35400174 eV
Ga 8.883347645859567 7.026010873272033 8.80528402715659
Ga 11.193739061122375 8.37351561546002 8.186242806843715
Ga 10.010270218889156 12.188047496882877 7.373490878457713
Ga 8.048616769903955 10.247307524834456 5.146830344857865
Ga 6.500953168418378 5.780863038393701 7.383163005535209
Ga 6.190811956871961 8.095950280131259 9.343993744680256
Ga 7.412660363876232 5.450641912392798 10.425818549366216
Ga 6.8984016627164335 10.37258858037994 10.29322935907727
Ga 4.496949089520621 7.824671412988603 7.082094429207708
Ga 7.641167420894457 12.573160091264684 8.660387242330621
Ga 4.952189437221194 4.0804039025317005 11.026459171373963
Ga 7.320033490630011 12.784107524004128 11.593063351129057
Ga 4.440454393179056 6.0650082316488545 9.217866338620059
Ga 8.73426281125139 9.865553396250325 7.9837256935549545
Ga 13.267904068093733 9.737030765201437 4.544036786054706
Ga 6.009003114919654 10.60774131571518 7.77251304764387
Ga 12.992573950377748 10.433143778103123 7.118007393347211
Ga 8.851041292403224 4.379016175500493 8.318112937885278
Ga 9.745534840474232 8.984421065124112 10.457145200709224
Ga 12.276828982346759 7.5760191844939735 5.852391445839283
Ga 7.081263492408846 8.086506966656657 6.4253922301498125
Ga 7.269100235014172 3.1883363714745347 6.2114589595036
Ga 5.151171846892566 9.994249121969881 5.322447737481749
Ga 8.475421561505605 5.464974935952096 5.5572938911537575
Ga 10.670036817150844 10.262679653885252 5.644604367952415
Ga 7.589196917776817 7.840542585303091 11.705450713416427
Ga 6.123914224747809 3.450106675421693 8.703497493454886
Ga 8.323439634389894 10.244824557803932 12.51530508534692
Ga 10.861637117766492 5.772764287500805 7.1307631790766814
Ga 11.53135409075965 10.814542985129952 9.224096184839844
Ga 9.56178304555985 7.836901218008197 5.634447020572145
Ga 5.251536649136693 6.630262671264335 11.972649225147377
Ga 9.63659535140136 11.777249156673223 10.579914584098692
