35
Energy = -90.83066214 eV
Ga 7.862419999674925 4.393552473037416 5.043923965014824
Ga 5.941400203831047 5.951654026964833 3.938416540438026
Ga 11.02307536188863 5.516443842007412 8.1940193408443
Ga 6.241577934182747 6.486571201251468 9.729501713449164
Ga 9.529886786446314 7.780764984306515 7.871391608863678
Ga 8.681972107406015 9.332795240400094 3.118938226428967
Ga 4.633400390776811 4.21394981559512 8.61046147577163
Ga 8.195786384091083 8.988781169486394 9.80866408839539
Ga 7.472681422618681 10.79354610845885 4.906393822462389
Ga 5.409807052943991 10.694058697008474 6.446992911824362
Ga 6.111152580508918 11.03017456742718 9.001915120251446
Ga 8.435012947370137 6.405202963173213 3.2157153594860595
Ga 7.138896269205001 2.7224807957942474 7.6121997927531915
Ga 3.4591362038974642 9.577423642897744 8.216806966108917
Ga 8.258710644590895 5.281395756001254 7.898280480725928
Ga 7.2527293154500585 7.683528493662012 12.055400656030985
Ga 3.7112200610971233 5.587918644202912 5.66620374611901
Ga 10.157832867824881 9.10571473663817 5.6358308430867705
Ga 9.612884367470318 3.328449161178364 9.474600476617601
Ga 9.77434843499442 3.297863790876111 6.5832850511450705
Ga 6.263450434057086 8.485506816891476 7.812271493947206
Ga 6.8538748145094255 10.556375683221782 11.607348800228552
Ga 10.874259365208008 7.716196565830988 3.2712024474340566
Ga 9.994063133193809 6.171044538183126 5.648751725678033
Ga 5.005241402748426 8.790082681746131 10.3568381625561
Ga 7.056128254585123 4.062578714032095 10.11648586227313
Ga 7.678216585577205 7.861579004975023 5.559331873629068
Ga 9.149753823540097 6.343723898441717 10.337440393952763
Ga 3.721234150645933 6.80792755504907 8.485521362571571
Ga 4.211596207950312 8.28353599269816 5.851282341705333
Ga 8.500832729889392 10.347863101389501 7.467363950559058
Ga 3.548745268588871 7.237723882031371 3.3655682764307855
Ga 6.083184965498754 6.064833621452459 6.861166581698898
Ga 5.355069583700816 3.546031592984687 5.781020647297727
Ga 5.911362686831198 8.684674557836155 3.5629312437801732
