39
Energy = -101.32973835 eV
Ga 7.616882193840013 6.81395182494265 1.8193263220400404
Ga 6.369136091305792 5.056545866086601 3.463337056684268
Ga 7.602544071828151 8.897651910269234 3.4594648595984476
Ga 5.038820409656079 7.404993235813826 2.9767306426067672
Ga 9.101758142893003 4.573834802523165 2.6092321810053916
Ga 7.799389194214312 11.437383570175546 4.4538605014636214
Ga 3.137451196283613 9.211302288559585 3.2720757473395934
Ga 8.717422627434757 6.6264785966401005 4.4154854390178775
Ga 5.492728557142055 4.122114056512314 5.8686943248702335
Ga 5.318525325092609 10.04394316903741 4.7036242593604785
Ga 10.790831917530411 4.773372907284338 5.1735775874439485
Ga 6.196249148105727 7.016352561626543 5.4772703345755485
Ga 8.63464679447661 9.26282259641987 6.10228292057914
Ga 3.585342243564987 5.527545135590956 4.412914150572578
Ga 9.593078023906774 3.190435035912178 7.403336798493525
Ga 3.3522649718944275 8.169390598079902 5.691975507375892
Ga 8.118653783061836 5.478896004737849 6.796617384190618
Ga 10.68284885312796 7.495106809648576 6.069029190290065
Ga 8.041746019956769 3.342038773973718 4.859827653479914
Ga 4.082946988406099 5.982464234736574 7.237917148422332
Ga 6.664694954671861 11.392114364986652 6.935152110560239
Ga 5.577244266646729 8.906593568001467 7.14376986286269
Ga 7.624247738365856 9.470823262863718 8.901181623712818
Ga 10.954639864745184 5.536676808814303 7.932868442071643
Ga 10.782323641361284 3.5690449256100165 9.880185974380804
Ga 7.0179275449190355 2.3626903416938574 7.33503603815264
Ga 7.030254149667101 12.134188700947774 9.530193371442095
Ga 5.429810976791989 4.08632506061701 8.860710162865763
Ga 6.526797849729495 6.7783096268516925 8.63904622261088
Ga 8.026864317400278 4.23780199658198 9.437170387359725
Ga 4.961675005709124 10.323972414635163 9.340119259298442
Ga 9.229978959287404 7.564048056389345 8.39015627314388
Ga 6.744507243633112 10.27072549458362 11.648699779181731
Ga 3.279733192907467 8.278447362804656 8.541669737222715
Ga 5.255906049971953 8.001759284865042 10.787143256429708
Ga 6.505162478215511 5.5054499961381005 11.283648210082005
Ga 3.7145788053754436 5.84577307429633 10.022837597567555
Ga 8.136568290083112 7.911230166362694 11.12518132215176
Ga 9.792992186775383 5.926575584366369 10.527824429472581
