34
Energy = -86.52261006 eV
Ga 9.346154166033582 9.558023385053426 4.254132943021195
Ga 8.180210507178918 12.11187358719237 3.3955282563499405
Ga 6.141723191238827 11.470312461890135 5.309483403267686
Ga 8.819903977536281 8.52115851578786 1.746343053698037
Ga 11.155959021063374 2.373903836337616 7.954216719632175
Ga 10.71049747362287 4.111993134816021 10.116559583837367
Ga 7.282068076913517 8.704414771371203 5.743675977642243
Ga 9.602317570038217 4.552819844651874 7.707426902020944
Ga 6.6263009969550195 9.92664178823654 3.1755555881650444
Ga 8.791421577907874 11.39241816659709 6.012606257197107
Ga 8.428299396052502 1.8915736391387306 8.012729936208563
Ga 9.357388566339997 1.9347221597653843 5.312087650294536
Ga 9.423034661074096 4.561983625530729 5.043063171672886
Ga 7.845909186566643 10.428152980848976 8.132016799584434
Ga 8.35329755581906 2.893116707532353 10.398972162721822
Ga 6.688505234497311 7.367325335573976 3.021367588411884
Ga 8.570095796595261 5.820992909977256 9.956858472313167
Ga 5.160588870640505 9.985101232977302 7.2168150430498335
Ga 6.551334134122414 7.073166820128208 11.019387447675566
Ga 9.124324134604079 6.927804249843541 4.102455006525322
Ga 7.676291859504059 6.085180579635852 6.648837219072456
Ga 7.114645297270453 7.8023726190897245 8.515273651247902
Ga 4.793741103204498 5.553193778646369 9.222546526803619
Ga 4.887883121440817 8.845432780208375 12.02593353949764
Ga 6.628741761527717 9.873900543852109 10.309779219486439
Ga 5.7253039750706725 5.741302918036564 4.759213946581391
Ga 4.431872599288362 8.779695421976053 4.558783990800045
Ga 7.042469218563681 3.3126190745758923 6.0025113259419465
Ga 6.812126312628855 4.086723439686526 8.568787926146268
Ga 4.5538422951931 4.3720185135937655 6.675914224156212
Ga 4.8837919885073715 7.25719908628186 6.805270114369686
Ga 4.254858200375325 8.011578197931081 9.302896886771274
Ga 2.4012072201695056 9.392650047321514 11.037928010905654
Ga 4.097399645319202 10.71397686808943 9.501368231764076
