35
Energy = -90.52241905 eV
Ga 11.1026996121917 5.147493893322939 7.816582948177606
Ga 10.511493746708918 7.5994786026145995 8.912690831234304
Ga 11.380450672682246 9.201080174938564 6.8447658713058255
Ga 9.303811402125607 5.609866679949356 10.350668619491525
Ga 9.772287202721081 6.895870562591556 6.221205552481546
Ga 10.46200216904643 7.411143413180063 3.516208894441497
Ga 9.619230154252588 4.16559225826261 5.497847863852127
Ga 8.637065446589055 4.110109704787494 8.07666353714116
Ga 9.570075353181895 9.646272133613197 4.841564044904726
Ga 8.268954820104085 5.810235798536129 3.9068654010322446
Ga 7.826873094298848 7.020925052875857 8.485336581938252
Ga 8.961311506885322 9.72702244035083 8.203503746726147
Ga 10.031649942354315 11.698986890556576 6.570577366523409
Ga 7.758294541827053 8.415745140320002 3.280570739943524
Ga 7.396521774757489 8.213309041155497 6.125366168487893
Ga 6.934276190489453 5.50900189647212 6.377421280623655
Ga 5.639739013677308 6.445823627049618 3.6531958741895494
Ga 6.666077572243902 4.162430202336305 9.772511102249595
Ga 7.462452356325252 4.901935002265415 12.29722585016292
Ga 7.411238084001444 10.964579413369243 6.209648453186976
Ga 6.43276280993748 3.6383792979908947 4.23592398939788
Ga 6.233507481899696 2.9139253994791408 7.12201081373104
Ga 5.585931452207139 9.420668244190495 4.371952095409151
Ga 4.742079056549778 7.5329404151544015 9.2211063620546
Ga 5.365107833807602 9.837389935130654 7.550630022785919
Ga 4.89450835256727 7.299047729582708 6.4215038335053105
Ga 6.778077623418194 7.151071454679131 10.971047905802129
Ga 4.236791057398161 4.651243701432938 5.563817587001654
Ga 6.849408110944869 9.50447500309453 9.746286326019833
Ga 4.613552318684584 5.00002601288373 8.204037141527406
Ga 4.527252597169209 5.387214865236389 10.97467797661878
Ga 2.6722907012259514 8.875523010640883 8.141774076486609
Ga 3.2601383284824657 9.325279723641057 5.568171554564319
Ga 3.044514370481926 6.900597906773422 4.284035965008481
Ga 2.4232915561759603 6.317005952881958 7.128847236967856
