39
Energy = -101.24031713 eV
Ga 4.079467217382961 7.36043006470732 3.787926746294414
Ga 6.30108192116032 5.734452159157692 3.3773434617355402
Ga 9.31549099980521 6.716916327364646 3.2347923700760624
Ga 9.977316696074029 9.36482115346929 3.148653894022075
Ga 8.436909923961656 4.142861272880355 3.446563906059785
Ga 6.0400170444058245 7.568660841344672 5.759166885740315
Ga 10.865275653208812 7.121240228979538 5.598651720128813
Ga 4.510499158801773 4.9967685841612814 5.4314859654698004
Ga 6.907165758504783 8.442432712307415 3.216711861921478
Ga 10.509056275669463 4.339025367260472 5.249463998241896
Ga 8.630356848599728 8.581175973460265 5.485854738507049
Ga 6.9065679674755724 3.580164704649293 5.635841458214382
Ga 8.197419496631694 5.942789420550305 5.691224105385294
Ga 11.213382821882494 10.125461605152113 5.583560149727724
Ga 3.480350424312348 7.472569024329382 6.488135302198949
Ga 1.841749737761297 5.127862569587492 6.292532476873507
Ga 2.464544685509146 6.242492986519696 8.745711523822703
Ga 6.397700998307637 10.306184537119243 5.10744543754433
Ga 8.710774568570322 11.11739948801301 6.419243114706174
Ga 11.118784508894802 11.344739410694165 8.098228133175331
Ga 7.264288495123157 8.947893459944797 7.858121187263122
Ga 10.24885424961909 8.74101140204015 7.795675833109769
Ga 6.336098502150491 11.922756306507495 7.632621962291158
Ga 4.4693184334255545 2.276661808157539 5.930537967221192
Ga 6.6401765750284465 2.8780449569978437 8.210338946772282
Ga 4.70542294955901 9.721916628525385 7.317524016696592
Ga 3.752847552092104 3.984343737875514 8.042521485293603
Ga 6.133875903449752 5.739007809900799 7.682147280145394
Ga 9.11492137501006 3.910661017227522 7.612803606281137
Ga 4.5186050059633125 1.2325187447783117 8.463351608837565
Ga 8.612929951427484 10.978094613771065 9.178027870471894
Ga 6.088251659857187 10.135568151949203 10.10522094137139
Ga 8.998240954854625 6.540602108056871 8.27774180321143
Ga 4.881934340696909 5.670411111857508 10.175780777214975
Ga 9.366845945433715 8.64246199992565 10.462889489839485
Ga 4.21469066158684 8.24087088594082 9.492655202346866
Ga 4.892237929539846 3.0571804183924374 10.391606269251369
Ga 6.866718578532053 7.480970482360205 10.235031262518557
Ga 7.570303232774992 4.851050927126849 9.917340243061082
