32
Energy = -82.12119005 eV
Ga 5.567957731694373 8.411672815364899 7.361227683243776
Ga 12.030287265646816 7.242911815139037 4.651088769795745
Ga 11.723305540470736 8.127227804117876 7.2474061869046205
Ga 9.000738935538676 5.246416318002146 10.733673583769896
Ga 4.382660066354542 10.213890100625587 9.11552205368089
Ga 5.369796085918321 5.868598677710572 7.565196119734315
Ga 7.227998227931103 7.338915867314073 9.509198992815572
Ga 9.054724412211506 11.235547877699815 6.247933375434448
Ga 10.310846128914976 10.508876930853937 8.376196064253968
Ga 8.491589238024414 8.577204612384765 7.405090697351408
Ga 4.451565358316834 6.828229601542023 9.911112957677526
Ga 8.693327104365299 5.818497861784015 13.364342714188709
Ga 7.151139841757792 10.210588295901303 9.455612813389422
Ga 6.413125419412558 4.347815616213976 9.543953375415951
Ga 9.927937695637835 7.065169758084511 9.070423159079631
Ga 10.949423713849985 9.741996938002883 5.159512631800048
Ga 7.340307456439851 6.437639005025018 5.921897865020323
Ga 9.173425435998546 7.7792634241462535 4.506941978774593
Ga 9.01305657885716 10.499013014174107 3.430671253761292
Ga 10.174862548375225 6.103759836637446 6.338501739545647
Ga 8.817743313860879 4.761308616361025 8.133888983789216
Ga 6.887652743857382 3.799111278032802 6.55547575918432
Ga 5.442145353538475 8.93553078835918 11.316177846155778
Ga 9.292249462391714 9.530321288909049 10.625329633105645
Ga 6.865208524928359 11.938782598552582 4.35222643505057
Ga 7.727854477871856 8.320393942899331 12.36004507142015
Ga 7.336537800616473 13.334593401411414 6.597025670119323
Ga 11.955887555711307 8.751401597552624 9.841355405814985
Ga 6.327780720994875 5.956198231543821 11.812237320438381
Ga 10.519745762580975 7.410246154372777 11.833797491230381
Ga 6.139297900019415 11.048204161132006 7.153399477125103
Ga 6.990142133218513 9.295529695107493 5.08968003256781
