39
Energy = -100.91379382 eV
Ga 6.138801477459723 3.6422817549172217 3.8742745588370147
Ga 11.001157163989223 5.047340164225232 3.812557123653777
Ga 8.122487235283595 5.824988139476201 3.714956339610322
Ga 7.626734585362319 8.95184211301489 3.9587118292254706
Ga 4.773606220374007 8.906529500681549 3.2689090376361167
Ga 6.780200859310496 7.576779109474346 1.7375170176638028
Ga 10.04450953780555 7.687274397089867 3.743150013442745
Ga 8.849615733873799 2.999941610253129 4.094918100765412
Ga 2.8223098168530854 7.1549420748769945 4.951713081522052
Ga 4.059121060550431 4.606516074411304 5.361971991769563
Ga 5.193937590667825 8.641631116165385 5.851662879753463
Ga 9.684616158707595 4.804050562968834 6.261174780555459
Ga 8.463131300184799 7.381839491903329 6.015989648637452
Ga 7.465922958750952 9.926789921534908 6.710502751042474
Ga 5.982042547276654 11.110142148186895 4.552879929880116
Ga 5.5456081948686275 6.419107757508497 4.1636112594345756
Ga 10.027709781787987 9.960007484020663 5.319275829891712
Ga 11.337587780988006 6.969365299226288 6.2305540601441685
Ga 3.6946866447403 7.224737790363195 7.5974437539404995
Ga 6.8860299498285515 4.990638223259629 6.188090523483194
Ga 2.1858279297163135 5.026306095659989 7.164495401869448
Ga 8.761638446571745 10.809051006268625 8.941567487675574
Ga 10.155145119909882 8.80146273665006 7.7846199482366565
Ga 8.145946198077821 2.5605063529221437 6.6857601051954365
Ga 5.439148098063548 2.545931396130034 6.5803660456574855
Ga 7.195309231928723 8.603774030860599 9.66891054040844
Ga 6.562756072081691 7.030566449416038 7.7647556974335625
Ga 5.160498145085346 9.760604021736798 8.269677821334943
Ga 9.472283410259756 6.258374080063147 8.462069579470745
Ga 7.927926578469118 6.097469187033305 10.61039851073504
Ga 7.564702632268401 3.9511577341198647 8.853762027409593
Ga 4.9127122041687885 4.725114928468658 8.2570915857111
Ga 6.409806199166949 11.320723768012217 10.33070340569193
Ga 4.8503925991637304 6.847691074292287 9.987283821335495
Ga 9.811846247180156 8.357402707003788 10.535258397271956
Ga 4.536442558193494 9.4593845371987 10.977157719890613
Ga 7.935858848497406 9.782814413127912 12.079223198807469
Ga 5.783892633801084 4.286368605857562 11.005139023794142
Ga 6.258878625469734 7.5193805183569395 12.202723547918142
