38
Energy = -99.11270712 eV
Ga 2.712178222947096 3.3053460570281117 0.8228481684936677
Ga 5.1200880720739415 5.215330021548388 0.9384781509993079
Ga 5.558432180458051 2.569621437685903 0.9534351954268047
Ga 2.5950618328319095 6.17383674651323 0.649336224337079
Ga 7.872927037191479 6.156699855978079 1.5665645415930123
Ga 5.815998420604551 7.794487308033334 1.074517112402382
Ga 7.115919797177233 3.84138195222435 2.718555072640983
Ga 3.6960438243107605 1.2250470251708074 2.8025216686653747
Ga 3.3104484782252 8.71624055600667 1.1682545212437516
Ga 1.6967447863518503 5.362434583859244 3.0667342646182503
Ga 4.309625218504916 3.917096686454068 3.232154209349195
Ga 1.6926060652362793 8.208451081627587 3.3042796886066266
Ga 6.79502244337159 7.862638488290382 3.622844657777299
Ga 6.192512736983375 1.4789613767584873 3.804920135889911
Ga 8.631078883715562 5.796866115142816 4.221818582832531
Ga 5.896618761784809 5.433868999609463 4.999468383150024
Ga 4.185736246328563 6.6679596239462295 3.187821764034027
Ga 1.82623134456684 2.7084609572903964 3.902886358977988
Ga 4.821444956768528 9.819984436373334 3.1980680262852275
Ga 8.219263708339017 3.147129869535913 5.049844174126646
Ga 7.245046838485626 0.5403912402636266 5.985600744601867
Ga 1.7741509600940832 6.567861112890615 5.57038303517499
Ga 3.725814095798933 8.44321435717995 5.221633103797829
Ga 4.037706558095289 1.4435715953041728 5.627269239113214
Ga 3.33473608044051 4.233636623832861 5.760842758934201
Ga 5.95830401779734 3.310480103548553 6.545078058308141
Ga 6.296600450417218 7.8990185354189 6.303435563325546
Ga 0.12719109378524995 4.374663627274643 5.341218432163412
Ga 1.4414040074465964 2.111851169299521 6.725848485006857
Ga 8.316238907112613 2.269173453052991 7.793315840635197
Ga 8.772674087596858 4.921682129570529 7.132121220209378
Ga 5.505748468228866 0.7699260308669218 8.057455244558781
Ga 3.986861944738378 6.550117265933533 7.192862814870736
Ga 1.7216496461764923 4.955251065112114 8.013846996821199
Ga 6.426187112857034 5.70468608776174 8.044228516242105
Ga 3.6926364932316447 2.8060374921938225 8.123515544664116
Ga 4.011207880796238 5.144516639485534 9.564138067875586
Ga 6.248423027356444 3.238642980160316 9.398420120473107
