32
Energy = -80.53437641 eV
Ga 11.315071458250108 10.31688656465645 7.0185938496023645
Ga 11.581327639201088 7.672683692792786 6.187194086567974
Ga 9.017530377846553 11.590876668622196 6.224511602268193
Ga 9.265307010498939 8.50926970787731 7.594128805985535
Ga 10.051058648086363 5.962591002978597 7.539725873675118
Ga 9.676336739612973 9.342940441892505 4.895987804217255
Ga 5.903377532871731 6.264841208638657 9.593157214120852
Ga 8.001748328222181 4.44980904058927 9.149622883221696
Ga 7.144348848674407 9.576088957410189 5.512065023408294
Ga 5.235816060809372 10.110334692354117 7.433652849646195
Ga 9.367016005026505 6.660127711207604 4.782760498339909
Ga 7.671180822253749 5.265968478502388 6.473886852541561
Ga 3.9850598349002886 7.7512894319775425 8.532143867005178
Ga 6.825725162467033 7.561948856313907 7.467062353002486
Ga 2.9452365004466663 10.30408620424467 8.885417271655577
Ga 2.78554751093613 5.436921588912453 8.26296917442829
Ga 2.7076998729413773 9.454765157088266 6.388977722713481
Ga 7.6840350960128925 10.362531754430997 8.248407047279233
Ga 8.178284179513355 4.651237276138626 3.5320169012024794
Ga 7.872650005540606 8.580919967695221 2.9036462856998906
Ga 4.7046447214037554 8.747898211305827 4.960696583115545
Ga 6.6923918329402285 2.97715926503497 7.036507065027235
Ga 6.54365198985365 6.857593830652528 4.4658293346438525
Ga 4.5391084523448955 6.299350092105312 6.307406889824087
Ga 4.972242175700091 3.930373597588449 8.805412422930315
Ga 5.656828209034916 4.4011105372754535 4.677061420922219
Ga 3.5980331480739887 3.673597817969183 6.219625840195264
Ga 5.591295347664182 1.3157796965115123 5.47601565354777
Ga 5.621380444017964 2.3004984481206563 3.0799247982381743
Ga 4.317131651919411 1.5656725395458346 8.040441585512085
Ga 3.0778810097945577 2.6938093403910583 3.784629187008068
Ga 2.940705652696887 0.8439046998859999 5.7661700484383225
