37
Energy = -96.25478612 eV
Ga 5.371354201869096 6.660336510548464 9.335472410542298
Ga 2.0039599965065005 3.165042230000838 9.209881617075379
Ga 2.8242574439682 5.693497581022549 9.668479121708883
Ga 7.449908142552314 4.27649066740122 8.963555883874657
Ga 3.8667915925231564 2.096642140989265 6.548291477479642
Ga 7.925307828268962 7.3080173694901065 8.199695975119884
Ga 2.3592362753676284 4.73684661319934 7.011334712262007
Ga 2.107400397497686 1.0050388570286235 4.670459508617868
Ga 7.9003615094251085 7.6062718088879135 5.445513316515414
Ga 6.457287643216942 2.800482894727043 6.882567849416976
Ga 8.57300291376532 5.109509332415703 6.48295296723793
Ga 3.533679190165477 7.1691106852249025 7.177805392219709
Ga 4.67033184234267 3.8647634982178505 8.558941045018445
Ga 5.816378157746834 8.56414535491161 7.038986979292434
Ga 1.090401492463122 1.9026084781162949 6.957595855627679
Ga 5.903896911601033 5.704609218106589 6.809372913689141
Ga 4.827061552152027 6.935905819270879 4.280208929986307
Ga 9.512343751219817 5.701470532771632 3.8547862958728145
Ga 5.823736870467191 2.0139247053609064 4.387734470388089
Ga 1.5469231413772813 3.7049649960370483 4.6400210782104425
Ga 6.789593934619318 4.909591369251191 4.212131135850765
Ga 8.651045783727884 2.694757330030358 5.253039892350767
Ga 3.1557087098418317 9.074693102986645 5.250283779988026
Ga 1.7889690490475154 6.44833005760696 4.9762818226660315
Ga 2.9470134539324913 5.134778842868743 2.7481222432831616
Ga 5.846845319660475 9.481980956693825 4.515434725082976
Ga 8.283971354592449 3.0790387524075506 2.6180270629609828
Ga 3.4419727531713686 2.2560834175604354 2.7347243527775142
Ga 6.124678204649201 0.979495312322772 1.9353257293636195
Ga 2.545681276606165 7.854735796414012 2.659496472667161
Ga 3.5188855377558386 3.7993193132804954 0.4301465266110885
Ga 5.755405167659922 3.6575323810683193 1.886552464842021
Ga 7.5097887149837295 7.76453615496323 2.9086430980905202
Ga 7.676912336103705 5.576997447813244 1.4776317554882819
Ga 4.972065090075859 6.142820565661482 1.221755438255198
Ga 5.087951834301874 8.734606117862873 1.9480989218269122
Ga 4.275764241881738 4.32689740458718 5.036520394846179
