32
Energy = -82.91772164 eV
Ga 11.280684115291125 9.764100138231917 12.337513141158828
Ga 13.665020306253242 7.771234112434196 9.298446553547503
Ga 9.998318386246142 6.176637830576561 6.059580845287146
Ga 10.044180762870461 3.952214304334691 7.5519324825548075
Ga 10.805102282570266 8.132648298202168 10.219242515074047
Ga 11.656396088613521 6.1066333041486995 8.571243299009144
Ga 9.925104409321516 8.680311364834132 5.175912731746725
Ga 7.57295471329988 4.980014935366264 7.9902466110043475
Ga 12.441914227510944 10.189612179869803 9.299098836722509
Ga 9.667818245458674 5.165803047544475 10.259451441741387
Ga 8.821148459776436 11.137216870075445 5.478008405314951
Ga 9.044477331039253 7.207789478268116 8.42620736235752
Ga 11.505748144212934 10.754071881882192 6.25240046443504
Ga 8.565181769056004 9.899856858006242 11.748784446708198
Ga 11.884304180911636 8.345931081476772 7.130211642435353
Ga 9.559914477042607 9.946456928317959 8.088085561580037
Ga 11.739554576431253 12.61102751474903 8.289326888088562
Ga 6.8870691677294404 6.148209403612433 10.401294490759174
Ga 10.209434190369842 11.446171908656973 10.355902285550007
Ga 7.572519421513838 8.508873743766467 6.551865392530167
Ga 10.484242102935966 13.330352515564579 5.836341572524965
Ga 7.306630045127615 8.979988939310068 9.554569004327833
Ga 6.8060096356767605 11.092986909394556 7.243761420947636
Ga 7.4889371082974 11.957244420818613 9.967618230618678
Ga 9.027330570493953 7.085107919257235 12.028885982729609
Ga 8.966907672051411 12.744933132500654 8.00784408938677
Ga 6.633718035752676 8.176460704202263 12.326717650783335
Ga 5.900218869654129 7.070917348427706 7.929923734449128
Ga 4.844272651440342 9.740815798683872 8.317607649598434
Ga 4.623857915090009 7.771761472893374 10.275350576943604
Ga 4.109580559472988 9.182183803351466 12.546987392089122
Ga 5.5598429129007085 10.663881440550616 10.95189202759943
