33
Energy = -84.79013914 eV
Ga 11.485525540774349 10.040646047782756 3.948942784408611
Ga 6.367014161611066 11.47296186944878 3.9295325456282946
Ga 9.799329000246045 7.9031863028087646 3.6509090456749846
Ga 7.348250784777316 8.934407418742596 3.361094367814823
Ga 8.9964107586769 10.76734686555624 4.858356593773807
Ga 8.990174233958367 5.813795869182259 5.078013363661418
Ga 8.060599940156841 8.313964108659771 5.923504548355522
Ga 10.760289534079078 8.373244956464193 6.186546575172953
Ga 6.750865146061652 6.019421061575937 6.617374656128235
Ga 4.2835063574352095 4.6962639599619544 7.035527475331944
Ga 5.4273977518051675 9.106484307553096 5.261145861499463
Ga 4.24057506152956 7.338986682270303 6.665036388262303
Ga 6.9328699593535905 11.03491429697173 6.566071325742259
Ga 11.336594356433451 11.0862421149216 6.463892203160839
Ga 10.419937794416535 6.062516302558896 7.4484253180463185
Ga 4.3933793274166 10.202545981724233 7.805888300990319
Ga 6.117452066894749 4.524289873885081 9.0013129951034
Ga 9.21536706408684 10.150528548969646 7.793627374707914
Ga 8.525544695233004 4.08140413153045 7.5536793090353145
Ga 10.794773277665925 5.427489144995536 10.043071228885456
Ga 6.579416886068119 8.570713334977384 8.06476373013278
Ga 10.24668138021853 2.9262174294684753 9.277901154377036
Ga 8.430355319773529 9.184648659914547 10.07742266893472
Ga 4.644774541249866 6.814140741763505 9.185085846896541
Ga 8.275620077452258 6.6862478151868645 8.949834285972795
Ga 10.976787728280671 8.30753528049886 9.193275520427681
Ga 6.824906071011241 11.30668441686104 9.293170696211751
Ga 8.225617144103596 4.289901832304466 10.575904609453763
Ga 4.263781879535431 7.094951750528289 11.922194867582823
Ga 9.384071773877679 7.080075626119608 11.657741098168165
Ga 5.581176657618044 9.030418169678892 10.518482163265702
Ga 6.730052229704039 6.355981009115461 11.259971135116983
Ga 7.442932379666422 8.853874969190798 12.684330843246782
