37
Energy = -95.7586869 eV
Ga 9.594692268905495 5.071443669382573 6.866126620923298
Ga 8.305792767385745 7.6197167245299084 7.396025178172744
Ga 8.022690694742254 2.967710194965432 8.79743455315575
Ga 9.864677621031296 7.019165975091021 4.517512109695124
Ga 8.557497636145824 5.854939505621456 9.58160809612239
Ga 6.756201146084647 5.210887871695772 7.553177372570041
Ga 7.76511603256301 6.262679182973165 2.569969184964246
Ga 9.610823859708528 4.064603925552374 4.100509196278344
Ga 7.723476272729011 8.874578656915666 5.00673686662107
Ga 7.682340064826001 3.081732645844794 6.052540825449053
Ga 5.020345687168847 5.168663082148741 5.301612666399634
Ga 5.582542691330748 4.263976248975552 9.884101153320909
Ga 6.974606240521339 3.614141187483959 3.4663795171387433
Ga 7.502032092593947 5.950555229136957 5.163930735311772
Ga 5.40127304862581 2.704371714921738 7.62682346302028
Ga 7.015838588559878 5.934160075312697 0.012313427847062967
Ga 5.909574578498591 7.138186932421652 9.413186455189212
Ga 5.272260017220609 4.54468702103119 1.6624188764873908
Ga 3.4518126523891652 4.124070332164642 3.580371795659721
Ga 4.098999170415164 5.406944018754808 7.807303523743517
Ga 5.116925603736242 7.347452423439141 1.381628450223858
Ga 5.584870300310045 7.720180111234712 4.007899354202765
Ga 2.829128116176312 5.596715568697609 1.0727160890050487
Ga 3.04517235743908 6.811720984906856 3.392807934861669
Ga 4.979033871150818 2.158809249229787 5.0675123555343315
Ga 2.45092224653467 2.5871326442859344 1.549681872866686
Ga 4.948507888577154 1.8639986624769325 2.385326861741929
Ga 2.9818976855762944 7.348397755555937 6.023901869403851
Ga 3.3001657981903514 8.197085942788636 8.540152969432572
Ga 1.4184638925552269 5.65897842033227 7.825381773042141
Ga 2.8600303688030007 3.4458313081133563 6.40078686377696
Ga 3.1427996484441345 5.999686854290417 10.319088951253116
Ga 0.769197438525214 4.120308884166481 0.017235573124126862
Ga 2.2114362325705748 1.7944007474966006 4.2965778429563475
Ga 0.7507838450253274 4.621256018607074 2.7518382406423507
Ga 1.193823392558241 5.273474484280957 5.161443555288014
Ga 5.598115248834758 7.871222811626035 6.739804891026302
