39
Energy = -101.90700311 eV
Ga 2.275963478740404 10.054145863373575 5.613771331064886
Ga 7.027803863025707 9.22279249359321 4.386651109875985
Ga 5.445959319900515 8.807770056809414 2.1282591954078782
Ga 4.880971529582128 8.905428569064949 6.006122883543322
Ga 3.418149933227663 8.186683206845885 3.7311684898191606
Ga 8.78486551000915 7.214577313742002 4.417822235335112
Ga 2.740205055444873 8.309149915232618 7.744757019849628
Ga 7.271679443736641 7.543978207113637 6.780609876471494
Ga 7.268171497610029 6.846723109366663 1.9707040684083004
Ga 1.0854771552462898 7.621501316348915 5.207784705475528
Ga 5.83624011669419 6.628060418029005 4.427155817418574
Ga 5.039437822656729 7.03552101243474 8.234126761148273
Ga 4.472224344903979 6.103694505332324 2.003700507237797
Ga 3.5673456773853953 6.267437147340463 5.875380630855443
Ga 10.544499510933878 5.095314485457854 4.716704862076738
Ga 8.862836572170142 5.440720089592701 6.828150947305712
Ga 10.621368143926642 5.484905385529738 4.20307156806268
Ga 7.118919813555037 5.674310710981256 9.004495628022035
Ga 9.2933529914359 5.11430546694466 2.239775555680959
Ga 9.08347301265118 3.6241624530474623 8.895815396895262
Ga 2.0589479439108773 5.853306819730706 3.3388186131561306
Ga 5.9982094276481925 4.653459073338788 6.643313357160843
Ga 2.3670087308272 5.6991279232416705 8.546669882681176
Ga 10.621368143926645 3.1773164589692295 6.700165498466221
Ga 1.0710003526854055 5.025713712837077 6.3326461766896145
Ga 7.704118606454764 4.5024302992048515 4.425284958647
Ga 4.529869774980995 4.223784071659971 9.032317918502166
Ga 6.407922450443404 4.080290422378371 1.9861613749901048
Ga 4.5339336967442145 4.069124721243798 4.200587017932822
Ga 6.624245195973647 2.677843886896465 9.054559310377513
Ga 3.1266558719611734 3.8667565511074886 1.7689034147255631
Ga 7.8962550208784155 2.5901226999506286 6.4558412025205225
Ga 3.3146110804102666 3.5212747121850456 6.616005994369453
Ga 1.7429654745929417 3.2439600555143353 4.2626868364288795
Ga 5.228843133415274 1.7319129590269253 6.975261434707813
Ga 6.5658083380758345 2.0069924819137155 4.277144052136913
Ga 5.010680924297183 1.804475355233301 2.1090066505538716
Ga 3.8224851359210406 1.3008773611352622 4.773824900377124
Ga 2.348058941122812 1.2488839109266363 2.414670265091653
