36
Energy = -91.72804331 eV
Ga 10.639115554757273 9.906997255705871 4.8225404726799574
Ga 13.07123246767898 8.709551698425667 5.097566499234596
Ga 13.000557923360024 7.829560738165572 7.666989495962559
Ga 8.574736340768432 11.039526385229884 5.9192731249932935
Ga 12.652167118936125 11.093711168907879 6.455537222279601
Ga 10.884599867367843 9.453451738509846 7.650093552765641
Ga 11.112506955627303 7.087471289782005 5.310193702078805
Ga 8.826231678303925 10.918566107322981 8.521000295106749
Ga 8.23778372617215 8.538257567460484 7.140128803786179
Ga 8.720506165941766 8.186563562219627 4.4102349926094755
Ga 9.07763334018107 5.571809275462416 5.875098968009228
Ga 7.606149132673996 6.155704892317935 3.3824689102972445
Ga 7.594585839079749 9.08577402208066 10.020603890830067
Ga 6.884362213482554 6.8132626180629465 11.105806233583252
Ga 5.020840135074847 6.931179452840298 3.678135126031804
Ga 6.603855854188793 6.792479847309069 5.949453997552568
Ga 5.732522762164448 4.603330244332382 2.1880669501777383
Ga 8.128182092780513 6.353064919944906 8.798786644187052
Ga 10.59234391594338 6.731057296753013 7.990568782726723
Ga 5.593253579987963 7.406831243787723 8.325289975145498
Ga 6.900889320610921 3.9305348562667866 4.836650012615878
Ga 10.031686363277807 4.05603960542279 8.237396924073531
Ga 4.193307657858407 4.194824364218735 4.343419871188965
Ga 7.433244555875593 4.010226172307926 7.413639749542397
Ga 4.85598644584454 9.225246382665073 10.230966316760812
Ga 2.4219330321608505 6.412950181658054 3.477014688480668
Ga 3.8302301992020356 7.408832219909168 5.920895296594538
Ga 4.918242272149876 4.640672056209524 6.877528948189784
Ga 8.053200094377019 3.951665796403821 10.318045744902282
Ga 3.225582119376433 8.766208426566077 8.15048812891197
Ga 5.618318851811323 4.639858258137146 9.546703676226326
Ga 4.202213415319837 6.6676314079208625 10.938676753356807
Ga 2.3251193000906016 5.023708276443595 5.943088196720922
Ga 1.163245844474738 7.195526026471214 7.164727151452706
Ga 1.6945329569298087 7.513732416595797 10.183835506605973
Ga 3.2012156124106736 5.733772592909298 8.599240517957725
