36
Energy = -93.08033267 eV
Ga 4.5000883224144 8.068667146271654 10.83348127160505
Ga 3.0895974851854935 8.52651872313206 7.607126614024342
Ga 4.200554646609999 6.537522936631861 6.289939972836919
Ga 3.9754857058314803 3.745283287397186 5.516190240967604
Ga 6.5790421148641 3.444287856711894 4.498297344062874
Ga 3.8709744813129205 10.416173218033226 9.491356490381287
Ga 8.542873956466657 11.879434899334305 7.765583042877443
Ga 11.389842925450573 3.057211063360462 6.811328963266288
Ga 7.750724067027778 10.223789929703873 5.778897338254698
Ga 9.567957456037478 7.911234981186511 6.281345392421693
Ga 5.987627315096477 6.112538061902964 10.179165266665933
Ga 1.8634257656427733 8.503079300717664 10.120131125107665
Ga 7.271320164035996 5.250181545549157 6.568255142258328
Ga 10.19037654893781 4.823320139048397 8.465348906050579
Ga 8.535314401133483 6.831709204234437 8.64466990840794
Ga 3.936414315837107 8.162520312054074 3.855952969684698
Ga 10.371683177689006 5.4648608171259 5.79405601988971
Ga 6.284237910879456 9.811384341753705 3.683325330986447
Ga 10.47040677691623 10.433240302151344 6.584592793482201
Ga 6.215807734238494 10.69615271189947 8.17402013436033
Ga 6.792266506121593 4.764012995145065 1.940649737664874
Ga 6.880698561440475 9.090680886908446 10.327038476746809
Ga 6.856082248689525 7.477351682402604 2.431810902988989
Ga 6.0202608439887415 7.807269293366477 7.996390926379001
Ga 8.812859243804498 2.296504957121339 8.127992004411048
Ga 7.466088447673362 4.340855140452025 9.1459050860212
Ga 9.096411903920703 3.508866519506755 2.9153876291138
Ga 8.95789474471156 3.034478683157583 5.569574951640006
Ga 5.298766374347744 5.809113204673497 3.9992763282464816
Ga 8.425923153711903 5.867018316993354 4.095556683918299
Ga 3.1478103765545002 6.190151485584733 9.149719114553301
Ga 8.870895644511856 9.38193321493742 8.681193206289477
Ga 6.272342021946244 2.5531873946609926 7.068082658219749
Ga 6.844778105729159 7.673993100924271 5.419565057441835
Ga 4.842543901163724 4.559224596434995 8.084931409557539
Ga 4.868217635954463 9.702297602596333 6.0611813334647255
