36
Energy = -92.31072527 eV
Ga 8.923234403178629 7.832390563019556 9.313385303426555
Ga 12.797427172141372 10.036215608534835 9.983152738637218
Ga 9.086412333912524 5.21683159058288 12.82822116868925
Ga 13.434078744308042 9.873945417467475 7.284071295404581
Ga 10.811040983547812 11.775748162604788 9.670581656041197
Ga 7.191280426249334 11.963247777157347 6.124750342400578
Ga 5.459061930423004 11.154592645190537 8.55617681939776
Ga 13.818418713426931 7.598942408055304 8.607020540179837
Ga 10.257890081518797 9.386002110710512 10.955684448078959
Ga 10.88216008244846 9.179604477776033 8.145012539976948
Ga 8.979663472720901 3.4238109767693006 10.706658986634393
Ga 11.692949234589788 11.901797108023883 7.046534486464561
Ga 6.628887547595737 6.661425065554585 8.3071534885755
Ga 12.531805669210044 9.535357384165083 12.705439568020925
Ga 6.529748217649704 12.865767213810818 10.31272646582175
Ga 10.770874765533124 7.491018670497635 12.943360733032819
Ga 9.1739558501622 7.48623357305376 6.474608649223373
Ga 9.031855111484493 5.10300127659577 8.109778665241663
Ga 8.992885436921943 14.025566315378628 10.27973747649945
Ga 9.236466607337249 9.843772186144985 13.496466271751508
Ga 11.476843213133225 6.466107251824971 8.00013926500526
Ga 9.61589048110313 10.614680089167258 6.249688614159612
Ga 8.395392190520896 11.992894789698235 8.37186717370178
Ga 7.882353554155549 9.172106157858693 4.873566393724572
Ga 12.462793641435882 7.45118779834263 10.858227396736925
Ga 10.368144253890218 5.896168393904118 10.495945478303735
Ga 7.844023556913254 7.918234596305051 12.070759661834005
Ga 9.009407904585874 11.775293894910787 11.732412598490614
Ga 7.431047073150446 5.809802087024655 10.584027305311112
Ga 7.407947527320332 9.379974702472552 7.712201777834473
Ga 5.929498293407967 7.408667311611639 6.037415026983071
Ga 5.244409926141787 8.593540218067139 3.7958569907460444
Ga 6.276739182416389 11.182793581790055 3.7357198345610176
Ga 7.261717270391233 9.86043158993886 10.394728433549716
Ga 5.1569418061582715 10.054609120016499 6.227225176292238
Ga 8.587549460908246 7.413452988828213 14.677021732166576
