33
Energy = -85.29045264 eV
Ga 10.68568734005463 8.783781116089207 10.724582668182567
Ga 11.754040295553054 5.551038677432698 10.001027921610612
Ga 7.998920306828856 8.99042746561536 10.034484030752912
Ga 9.798607346648978 9.857959998667983 8.139967012829045
Ga 11.006584755619684 7.494553836135175 8.282567670465713
Ga 9.734851093960758 4.812989806595116 8.131697321401873
Ga 9.136994522710408 6.383568892893845 10.367270434923963
Ga 7.232731994525274 5.3979003490121995 5.084580940881039
Ga 9.388771723995898 3.7021474688823366 5.521785924861337
Ga 12.135875062646601 5.498645007629111 6.705166641359944
Ga 8.740514800809613 11.66204775099462 6.332891512442723
Ga 6.4456533030623495 7.390084838360044 11.57092623421925
Ga 11.518001849891153 8.503774581843858 5.816965720620358
Ga 8.082601379419701 7.150976905921706 7.887039263018524
Ga 7.371230039939147 3.8119471244296355 7.573780070207361
Ga 9.634488353883379 6.435732883817694 5.632193451716037
Ga 6.793034962614259 5.295443406977136 9.840077170315917
Ga 8.925409795899538 8.961245962770079 5.47884850484471
Ga 7.022613260368496 10.059381543956441 7.709944655955017
Ga 4.799539854113027 3.660100862203064 8.937806817107244
Ga 5.587901724638968 5.845344693175182 7.419042913085079
Ga 6.890015729600618 10.316642939944398 4.672708323660688
Ga 6.441164072201065 7.8854525072587505 5.908021443025137
Ga 5.565104609986018 8.167603047694877 8.966195250532817
Ga 5.917631507939597 12.39119300829184 6.429784963036505
Ga 5.28217604150048 3.3886440263585724 5.779472883770493
Ga 4.491680072340437 10.072957610779058 6.805495352580666
Ga 4.528889730871209 11.482283682963237 4.01510594807694
Ga 4.586560020686189 6.04480605104684 4.779018268663368
Ga 4.464541936336685 8.697841640477767 4.258024553710359
Ga 3.7081614322294687 6.287989090398558 9.596348246984105
Ga 3.509833325833312 7.596386999196348 7.001311067445352
Ga 3.0271851774181266 4.889290629175031 6.918904194461977
