39
Energy = -98.74814615 eV
Ga 8.724731679494377 10.553275298300234 9.813279096236407
Ga 7.101912500116883 3.6588822208437652 6.599185639235307
Ga 8.336665665684666 13.320533578054372 10.92060144840827
Ga 9.707762211061434 7.250205418013851 13.792693882074717
Ga 6.415524942789606 8.972406451162424 5.8709193960840125
Ga 3.9626351893422838 11.3148009112577 8.908640933405218
Ga 12.68046289239289 11.388464063990627 6.223338506049249
Ga 11.984185174713195 4.527930015888162 7.94879391393091
Ga 10.855131726104593 11.006777739355849 8.332505445384273
Ga 6.311108317171296 6.846761015813039 10.022289777263703
Ga 8.583100014948066 6.90196908162817 11.230640365232167
Ga 8.222895267522656 5.267893538538283 9.092920297818496
Ga 4.8096567780319495 5.0053513622141494 6.350453781611086
Ga 8.477756323971281 12.909623628285466 8.357887905039018
Ga 4.102032491087974 7.466128725716294 5.352147867354239
Ga 10.43656122653389 3.813662053638864 10.112890349918693
Ga 7.896767451796531 11.351747406453413 12.571201374288837
Ga 7.69462609244688 9.099183231338042 13.952029498731289
Ga 6.6908293965821874 9.114976739505678 11.324896348983332
Ga 6.177991928607004 11.846341345400917 10.163376655672966
Ga 6.3158179063157105 9.44443722855792 8.738836612400805
Ga 10.855225206704558 6.498143404649444 9.656993592826677
Ga 10.114909927379411 5.035004449746974 12.36280636209962
Ga 4.99937847744946 7.220207442587809 7.959943653284504
Ga 3.8883163031344883 9.530121953447452 7.009633747232563
Ga 10.259768964617997 12.451552265095803 5.982984990509696
Ga 11.504851851693244 8.23660183922362 7.6816088419694815
Ga 9.658654444031145 9.330567650507735 12.011718125217762
Ga 5.9085895661011625 11.734881014311332 7.05255522958773
Ga 11.222690360019428 9.088056908830975 10.101945236102669
Ga 8.828050601403193 7.97878167540536 5.439867323256945
Ga 7.731577406103675 13.056849832182278 5.747706399386308
Ga 8.344376809491706 10.392271169637546 6.978875039438363
Ga 9.989540515390875 6.065378676057821 6.848291638933908
Ga 13.130187265335733 6.4118303570353525 6.610347857164518
Ga 13.102593725736112 8.796710785993355 5.408683115224685
Ga 9.484894761477603 3.378293164437861 7.553129236132849
Ga 10.543648788655162 9.757457753467152 5.570194118896543
Ga 7.289201087112899 6.3205498419791155 6.687797636166801
