32
Energy = -81.9826412 eV
Ga 10.93298537085118 9.355376065521813 9.323963541252382
Ga 11.375675415809692 6.6256034365846785 5.679073137584942
Ga 8.662530015691848 12.28867371555993 13.053228555649792
Ga 12.077601950430676 11.548222617284928 8.065500027875444
Ga 9.49192122235401 10.371479348932931 11.06750379588907
Ga 6.863002427285549 5.887211097145995 7.1469509813533385
Ga 6.077264249553331 6.430090002354555 11.022852944103594
Ga 6.850555656097315 10.609353034202748 11.76699612511254
Ga 4.877109219039493 7.197381290825726 8.69858994823229
Ga 8.85913250446889 6.105422053462151 5.366638184386554
Ga 5.08010210557706 9.83055477218247 7.781224764827255
Ga 5.616024464080631 4.502220648859007 9.168836716130508
Ga 13.756622018654674 7.232933934473433 6.802969107234035
Ga 5.998547863104435 5.683701856344312 4.458140906274959
Ga 5.20512354596405 9.119281075536039 10.493981222611596
Ga 12.05650605799253 6.952419580914845 8.860403828270252
Ga 8.03025726329678 7.739821595613308 12.217030635212753
Ga 10.259343937653046 7.0655721058679 10.833809576871001
Ga 7.3993671144127005 8.771096110087367 6.776856882980419
Ga 9.600125033499534 7.386299686191585 7.766135224791723
Ga 8.724801373587738 9.752251030820627 13.676837343055443
Ga 7.692945527328385 8.430428162317158 9.523824958010689
Ga 7.255363030390435 10.998689685792776 8.989681624027739
Ga 9.847465133743018 12.390218377325688 9.174855225142945
Ga 13.644387323576197 9.465561745652264 8.414294820381171
Ga 11.715690645327765 9.245330460684048 6.490566912039448
Ga 5.018966477042467 7.85273148989277 5.999659912276938
Ga 9.357418228874344 10.607680446896117 7.207248262594372
Ga 9.578495860134087 8.989159385968843 4.979907871195724
Ga 7.324554080590652 8.065868961605629 4.090565829235973
Ga 7.793703516285493 13.132452918575831 10.629405313046663
Ga 8.263386023139299 5.6841893874107505 9.464817169004101
