36
Energy = -92.583847 eV
Ga 8.60340707047132 8.869553910834972 11.517567627553936
Ga 10.171235267915547 6.630603071690648 7.5154674494994715
Ga 9.768575420015436 6.352542152685373 10.308130506351242
Ga 10.335873611041551 4.1313861720615055 8.550007253429644
Ga 10.202488258620834 8.761216076520622 9.262105871565074
Ga 7.511456288260537 7.815909034423593 8.99347911674597
Ga 8.49097877898903 3.6466605316025236 10.604431477335513
Ga 8.97330850272064 4.3802624266377235 6.102016834399143
Ga 6.564787322215721 10.235811252204082 9.621448707451941
Ga 7.608593998450312 2.56452676690827 7.833875797005884
Ga 7.693566144815168 5.907288059698687 11.967853513391589
Ga 9.874540045502508 6.685064691887185 4.804409151724467
Ga 8.794103152829873 8.81750691741432 6.683996848844763
Ga 7.8025691996599 5.273036630306557 8.594210368205141
Ga 7.195274677169752 6.6528780624224035 6.3656216833325825
Ga 9.109523632844535 11.33158365497587 5.963620350994503
Ga 7.1288285120253665 8.099475089627598 3.9821497708059654
Ga 9.625805146271698 9.231685618515424 4.120092252006551
Ga 7.708065816640312 5.3916926474401885 3.6911448766617934
Ga 8.803047116299975 10.939458504700067 8.508472263056102
Ga 5.19601397274869 6.324389365723417 12.869974460216309
Ga 4.59957405416194 8.328311193804959 9.115116662024446
Ga 9.584935109304283 11.656893371331327 3.321883914029201
Ga 5.810745426776404 8.555238647183238 11.514460835792962
Ga 5.559886299363789 5.70285613663286 10.240784137102127
Ga 6.515872405762885 10.723715590966137 4.754511075621452
Ga 7.700526749755873 13.143186351235533 4.511978371255873
Ga 6.025615220614676 9.454075951296732 7.009773915641006
Ga 5.317345213605135 4.7763147302722055 7.824786875332748
Ga 3.0995881959095066 6.0565279278712225 8.88974077020778
Ga 7.408894128765344 10.353893595118334 2.3053525368410988
Ga 4.32177062628174 7.294804633966825 6.632732492461802
Ga 6.176963426315336 3.802653491906419 5.544813468850554
Ga 5.141001638645204 6.421701011500211 4.368615561898761
Ga 5.096767779064324 3.9956587770418097 3.1481230323295915
Ga 3.3648261714408503 4.633618158909738 5.887608296433225
