32
Energy = -82.80029111 eV
Ga 8.902215346276835 6.214116165018898 6.924542163317111
Ga 10.733982631656678 7.9145985701348005 10.304540016590554
Ga 11.48200587493162 5.67712917431973 5.837074257547582
Ga 4.424108088928685 7.484915032944204 6.095494534535989
Ga 5.675990634622406 7.033515179810311 8.360586746908064
Ga 6.06574600822259 7.671489375312876 13.141198853305049
Ga 9.283641731123492 10.207451889719826 9.652855198212974
Ga 6.518312813173537 6.481074636899877 4.141216838987052
Ga 6.395536285131667 5.208488982324076 6.479020458472162
Ga 8.017428056927306 8.75054004121833 2.8780311856413756
Ga 10.588353360494109 8.348042955443283 7.478892375179999
Ga 7.715933772656028 10.931486109851434 4.741954260227557
Ga 8.393083592620023 4.175884665451379 4.896223596162075
Ga 4.863980089889136 8.36492105307652 10.66665493624608
Ga 7.2893019361146605 8.319258750032121 6.272798888069164
Ga 9.842969104371985 9.64523663419792 12.319985161364073
Ga 9.738446395197892 9.141191066340486 5.14465849874928
Ga 5.527649178184929 10.573582465814207 6.59564780394399
Ga 5.40514754205442 8.93297417537884 4.102079563362016
Ga 8.603787715000278 10.832277647289569 7.209927668946098
Ga 6.5620718742661746 9.792850302414193 8.82490624893059
Ga 11.191898118646808 5.921533190213105 8.577750803292675
Ga 7.1258907019513655 4.383758838875338 8.929872903969907
Ga 5.203477634099675 11.646556557661228 4.165024484141922
Ga 9.280766830616981 6.670823933082869 4.311025839842604
Ga 9.422597545352248 3.6688954882513904 7.731550193250569
Ga 3.7684990143704518 9.203312893159667 8.309578645036197
Ga 7.255120959046064 9.469502782349391 11.360685547618557
Ga 8.251972673915747 7.539196961399374 9.151060443310936
Ga 8.607309739470464 7.037912475905194 11.876682238955516
Ga 9.333106695717095 4.981081446760909 10.417900084978879
Ga 6.320331764371376 6.016667015897687 10.822495594981623
