32
Energy = -82.00389933 eV
Ga 12.614570715392283 6.283768803228291 8.658654684334138
Ga 4.184180520422735 8.429403225296294 10.214145517494183
Ga 10.960234332783008 7.802295180456638 6.848256719380155
Ga 10.036302539664685 5.014847974498454 9.059543735189738
Ga 11.193365879860474 5.173308139527404 6.486813381413172
Ga 10.161509663101823 7.547571684061255 9.601949749166954
Ga 5.443213896877339 6.886603349509798 8.126687077335582
Ga 6.870172101904538 8.017092584538364 10.638417467397833
Ga 10.813513466025633 2.687924892009714 7.723798083999158
Ga 1.926729243321186 6.176689811238422 5.655231002787902
Ga 8.99238119706111 3.6800249780731815 5.738115148742324
Ga 8.182871232015676 3.1469948143985844 8.365854644985534
Ga 8.671800225952953 6.225115568110283 6.6702668048581515
Ga 7.600741875397388 5.9032856835967475 9.340583072725947
Ga 10.206014699456409 10.078083230666486 7.978248399559844
Ga 7.787944684908279 8.590546251762214 8.022552213119342
Ga 7.089245731789139 4.966596022498634 4.5885541529581255
Ga 5.545493241624946 10.057058851879729 5.398969176463756
Ga 6.485937418282384 10.608031872700439 9.587696812242331
Ga 9.010513351822114 9.6483657319258 10.54235152074647
Ga 8.782535494467757 12.1428320257621 9.23219955419574
Ga 7.401946852611684 11.080857720959328 6.991288849320969
Ga 8.919091609982141 8.870652659905401 5.527375753633387
Ga 4.669422980337409 9.709868937436024 7.881851192601588
Ga 6.24551683829227 4.428103760244224 7.265372674584877
Ga 6.5877828026079435 7.487206379780837 5.511718870242361
Ga 9.722780339448514 11.711568080084886 5.806569111090585
Ga 2.720849668929062 7.027229029758466 8.387698305209224
Ga 3.8346244189045455 8.012615822296974 5.8138909031738315
Ga 7.705190657489791 10.688159028333915 3.963685027939358
Ga 3.66923328084074 4.747578196139858 7.513466402785975
Ga 4.504910030916634 5.483740342903817 5.0235921684380225
