32
Energy = -81.29301471 eV
Ga 11.58294145689476 6.558297653236928 9.002065412764491
Ga 9.663892569525498 4.608632440383926 8.038970312855625
Ga 8.440513178834301 6.023027284981985 5.254379104341597
Ga 7.882972852190329 12.022593807701355 7.232764033208697
Ga 13.658290670216093 6.480723136199601 6.7854413817715775
Ga 8.226959957976794 13.616385069212832 9.402420832704399
Ga 7.215757751903512 11.116634846744908 10.014921432143778
Ga 9.131090893797952 7.629271762742061 7.38584558421559
Ga 5.40295456480345 13.113814227804852 9.707692260653902
Ga 9.977527715611775 11.649276911533567 9.637430993282347
Ga 5.138589473072475 5.39507316178081 5.901988579818508
Ga 10.786026713933197 4.4232925868935835 10.484725067477354
Ga 5.191095063089676 11.543751094510228 7.47387448918546
Ga 9.137187436811955 6.498630104650877 10.262656715899729
Ga 11.71976482464884 8.560965821848638 6.690747923513519
Ga 9.767277714303045 3.6202447391510857 5.417833525145283
Ga 8.723754191801522 9.012152492809392 9.82461771156963
Ga 11.356501571400072 9.394598599036463 9.432339521189649
Ga 6.468816855351502 7.412700360206641 10.3869583069286
Ga 6.4911359794337855 14.474709791415398 7.476684436186924
Ga 13.626211328044612 8.368865963897488 8.752493842831644
Ga 7.705624437878995 4.01685281441239 10.035997554249237
Ga 6.884559935197276 6.056999728781092 8.236716126456754
Ga 4.670641154026037 7.536787387566703 7.677869270199834
Ga 4.611621006139629 11.296719767027323 11.365642902924447
Ga 7.020305607769446 9.388514390959514 7.549413581267484
Ga 9.774977769072796 10.24012313628166 7.246287418118601
Ga 4.894150009124404 9.533869401040715 9.389639216457796
Ga 7.365117110750879 3.9925421752858394 6.702066899152584
Ga 10.992787043164011 6.015679684345771 6.069131555441044
Ga 6.618624535975079 7.686103295279099 5.6575749722544435
Ga 6.385667274667514 9.381786893170364 12.077272937626763
