34
Energy = -87.16407411 eV
Ga 7.704351160529219 6.253976506198086 2.7829744056519163
Ga 9.668747082788599 8.360871319525227 3.625669061277657
Ga 10.328441735654224 5.949066306731156 2.225796750150599
Ga 5.4352229758877835 5.710290524575058 3.7502262735648637
Ga 8.983860076995244 3.755208794730401 3.369497257649598
Ga 8.698575000331246 10.885875547477472 2.9657950173205143
Ga 3.099786928932917 5.188507503007357 4.6359974002402184
Ga 9.99608220330514 5.988734079755505 4.848839617391969
Ga 6.89649826352856 8.750370537828065 3.3288170413444655
Ga 7.459764637645851 7.145551534996306 5.498337539737479
Ga 4.808613502067348 3.925624227043678 6.659876617923666
Ga 7.347084691225356 4.3936683092734 5.411896574508047
Ga 9.736856609380451 8.181709026854374 6.563025953980782
Ga 8.139442667799646 10.322132060263653 5.477942757761259
Ga 4.573234520350366 8.576329929619611 4.494835767756343
Ga 0.5764279741117139 6.060472131499623 5.074879309661747
Ga 4.708690457377835 6.7493319137684935 6.471917684196305
Ga 6.3280515437244995 9.068875595368526 6.950178884007511
Ga 2.0413365128625354 5.676517650241802 7.29166000871434
Ga 2.324364776871527 8.056440007692405 5.6568320803744605
Ga 6.734899358229513 5.775678376667359 7.803915229313858
Ga 9.38897656019466 5.3626007613671245 7.229636759558586
Ga 8.764416911571246 10.099039733555303 8.288166619823485
Ga 7.687935006016601 2.7718738874454574 7.622053112962852
Ga 3.112489803939753 8.270832815526363 8.319322508895885
Ga 5.662561954852269 8.079779868387734 9.211107995081424
Ga 4.004509348752374 5.518918206472669 8.975586456632636
Ga 8.248114634076588 7.6369561723853465 9.181253930464315
Ga 10.900795396744044 7.028359383498646 8.966614774260615
Ga 5.727597682005252 3.6034744027904977 9.33712022593996
Ga 3.6798757233343067 7.43011383411473 10.977044688343293
Ga 8.760508826065015 5.047856560832243 9.758045802797547
Ga 6.119687047409128 5.982379945360355 10.871605897959105
Ga 7.4169613021635055 3.4573454218699724 11.438292871475582
