33
Energy = -84.44558984 eV
Ga 9.358307677331833 5.902135489013892 2.2907070103091605
Ga 10.569145481413953 8.09759023196766 3.2881059816583735
Ga 7.710626946964789 7.802182283322224 3.165214589511906
Ga 9.561273988219803 6.442945316906936 5.152201425584135
Ga 9.341015611720623 9.480588538990073 5.127528381408385
Ga 6.609368711521793 9.848397629446636 4.898872338315725
Ga 7.015232274530928 4.904184594807619 4.077890965086441
Ga 8.614020192435918 11.118997770854808 7.064574353719013
Ga 5.065879246021542 8.376737512857297 3.130974931602574
Ga 9.063572315786827 8.29362616238207 7.454262167535784
Ga 5.56872007490363 5.885995532334227 1.9877231104633384
Ga 9.918523988721823 5.711752126086305 7.5949259843799215
Ga 6.871494203588534 7.16751649571576 5.977057426867187
Ga 4.335907271406104 8.631804061836313 5.869055051174696
Ga 8.181183920682628 10.047997910728528 9.595459428142378
Ga 4.44459512579855 6.162788177264195 4.757241467650951
Ga 9.376741940480779 7.566211289808162 10.230476157975339
Ga 6.3978436219553405 9.503296651255802 7.517877309014345
Ga 7.830110825800036 4.396382367773516 6.52414677790661
Ga 7.423686133054931 6.30607036488381 8.56363350344947
Ga 4.576245079120241 3.51959062275544 3.529302001812489
Ga 2.7730966657622185 6.698526143317364 6.973246825352623
Ga 6.052258294749427 8.10257443935687 9.837545086134584
Ga 5.178901406154124 5.462109752675321 7.279355507925844
Ga 8.859119326260465 4.099171917849225 9.425357350740837
Ga 7.455854297499284 5.759433061961401 11.336494774865296
Ga 5.453991395911326 2.821185392719795 6.075901770688155
Ga 2.8649100270071477 4.052724952422686 5.603934684833031
Ga 6.488694812931827 2.8915579132111073 8.54889455409096
Ga 3.6205967080523034 9.257270431945013 8.486242427017004
Ga 5.293846351164492 4.758464144501242 10.104220875449455
Ga 3.714157774421273 6.703245770641462 9.516884154937133
Ga 3.6381503963688164 3.444612400242903 8.241346027248419
