33
Energy = -85.01234221 eV
Ga 8.469372299788384 9.66805162505379 3.3977919246223784
Ga 6.245574787048381 10.838118049714016 4.80520695295425
Ga 5.75918201579552 8.127842416313381 3.546882156128666
Ga 3.4673965102598694 8.878579597142751 4.649075681181575
Ga 8.085568754067241 6.880683970214729 3.4069538117140166
Ga 9.607764126948254 7.575099994133093 5.70472156905235
Ga 4.802744987178633 9.781948855449684 6.893253963979757
Ga 10.597444878601019 5.743805379655467 3.8306375361795912
Ga 7.076737155627561 8.460971974606826 5.940068566553303
Ga 3.3911437871721937 3.481589802250171 4.155805918267834
Ga 5.715763982548662 5.3876697501723605 3.6950843402714524
Ga 3.240654364296124 6.242536523634523 4.108609158166697
Ga 9.209699145989664 10.262023829117174 6.1644142129712876
Ga 4.531843060839395 7.117176313813214 6.429786305178438
Ga 11.306486482231294 6.341750532113519 7.962128807135284
Ga 7.098243489564415 5.855925593940648 6.11373750491818
Ga 7.430793518595622 10.188179847305038 8.135340018240317
Ga 5.094276504670816 9.602229245583587 9.534948091511723
Ga 9.786389086388361 4.782372828204 6.3834033845036995
Ga 9.47999188628368 8.364162607767598 8.310376362316632
Ga 5.972661966256196 2.946979816865503 4.7814019544192785
Ga 8.650602246810264 5.664338471608844 8.691883385607069
Ga 8.307543059126461 4.214417095477836 4.146762579050019
Ga 4.114916689865133 4.51615166617432 6.605666910914313
Ga 7.776346620649997 8.61793912880599 10.353372821531542
Ga 6.313667682106582 7.211119650052465 8.460986516921288
Ga 6.9308253338257915 5.6247997497999975 10.729197114317211
Ga 3.8967117076557933 5.708031227609101 8.940528361645708
Ga 5.10968748536056 2.060350765655727 7.311432785672962
Ga 4.644093940452909 7.300138759939502 10.824246509732795
Ga 7.604818203659232 3.3108980300782167 6.88718723920943
Ga 6.643459687824982 7.634378814743981 12.57308990527579
Ga 6.0551777416481976 3.968205262915925 8.9679625060464
