37
Energy = -95.64471521 eV
Ga 9.288970305353352 6.232860467767604 4.927113346669275
Ga 9.503125972296505 7.307189340342835 7.4957863464443095
Ga 11.039648470788366 5.174772126943502 6.87934942124132
Ga 8.349799398848182 8.852275890716806 4.692900509657207
Ga 7.375427697332797 7.6126453042042135 9.473859346151364
Ga 6.4040587992822005 5.170602346013571 10.450751709670111
Ga 7.590203042050013 9.135019686472944 7.250842288756012
Ga 7.047320800814164 6.62995026362648 3.5010161432548275
Ga 5.012402326170534 9.067840678905704 7.162281302137167
Ga 8.800242498620356 3.7249781770991395 6.360379624623369
Ga 6.026047403205594 4.003793267248982 7.605257451611055
Ga 4.165370297918294 1.9743110374066482 8.441309196729323
Ga 8.222552773390433 4.073987748927871 3.69650061887368
Ga 6.85096291829648 6.568842778314342 6.511228190941748
Ga 6.926548018962616 1.9301352640445328 5.974279257875452
Ga 5.639424421604667 8.966442923257247 4.3695272682366815
Ga 4.8202711888798735 7.177080472531416 9.047321643109816
Ga 4.123679805475316 6.748794394277774 3.5826239825276187
Ga 5.659020116258311 4.476848224555029 4.862256063153929
Ga 4.093833132466747 4.544209746502669 9.379736269924729
Ga 2.950712956183553 8.756210361659036 5.0204075285547045
Ga 2.315724761226591 8.924108063080867 7.734903234440181
Ga 6.0182969477799295 4.681005781746506 1.9892399783012267
Ga 4.231936248342292 6.386508170143614 6.368484894762264
Ga 6.397916978474606 2.2012064461854806 3.327625056584568
Ga 4.462181385929833 4.803198042773356 10.450751709670113
Ga 5.194894819598013 2.356470188620073 0.9731248773379424
Ga 2.6434943775455064 4.570707443050495 4.596724985618618
Ga 2.249571215751175 6.337011361373881 8.454416409138206
Ga 1.4642525963454456 6.547595872916667 5.834954288164051
Ga 4.157522319245377 2.2302453824045214 5.744565482186091
Ga 2.387526540839269 3.89939760076664 7.204784032121986
Ga 5.396503567689941 7.329917549191173 1.2092230444036498
Ga 2.9367755127951622 5.087875306729224 1.9525844701228177
Ga 2.399377613357978 2.8515038163390827 0.5164886063914862
Ga 3.527799186635159 2.5309685389656305 3.0998992198697772
Ga 8.289033081301481 5.095919431951179 8.554006630681707
