33
Energy = -83.82010607 eV
Ga 8.597531743082493 4.621393055257793 4.210124114721524
Ga 2.4446261851686617 7.050678948936042 9.223609929295664
Ga 7.205760998569376 8.116295545561833 7.396359656828875
Ga 4.411428591885692 1.9498956650726182 4.460567004725314
Ga 8.626267537099963 10.183881897848943 8.888679797097888
Ga 10.286833007880135 8.845424301761474 4.188191727533143
Ga 9.54702332552613 6.451062820521786 6.976072526406234
Ga 7.933522991918833 9.920717574290329 11.617108244238624
Ga 7.174804930346 5.0860737240050735 6.763056891152218
Ga 10.939413126474316 8.33668759550542 8.592512363844076
Ga 0.6812196849673846 6.855165541104638 5.247454607189136
Ga 6.241072991972872 5.948645049735562 3.7635711196433226
Ga 2.674922751463427 8.308519775291188 6.265240823203036
Ga 4.68743257024683 6.030685102285819 7.957954408614349
Ga 4.509175272757378 4.439669546964959 5.859072455738637
Ga 3.0627427816419748 6.212702467929242 4.220101014218181
Ga 8.766313051787138 7.3757517637501735 9.802832415850526
Ga 8.03284707990308 7.563910360649003 4.786701356782265
Ga 4.690277200151246 6.992350884451996 10.642303606540771
Ga 11.918305239947784 7.838895946210668 6.3112055887359455
Ga 4.408737925516955 4.270961950135102 3.06092257634055
Ga 6.883306516797984 3.440530009879214 2.3214005708999075
Ga 5.245819122638975 7.5116197220893275 5.655406322304064
Ga 7.089901728276266 7.154059714830815 11.979578032250506
Ga 9.387298314054187 9.574638006626865 6.481642635627402
Ga 2.233936851917485 5.508133364558793 7.096151638720671
Ga 12.632705808786024 7.545380702927747 3.741502011290251
Ga 10.460990241720655 9.026606981710177 11.092344244412953
Ga 10.654580884388839 5.994101168793106 4.4346661654381645
Ga 6.909826077432621 5.688210363954067 9.31956261973092
Ga 6.729707283666609 2.999678821137927 5.1318693070683645
Ga 6.315047092814847 9.009389558502587 9.721783583941184
Ga 4.321037471491722 8.819244902224163 8.146184020115708
