34
Energy = -86.13155305 eV
Ga 9.878404051764905 7.884813200194606 7.087010538004876
Ga 10.915696975151043 5.312386183368574 6.2563822354949545
Ga 9.479674838671167 3.147627655967173 7.232615057495219
Ga 6.417094672289133 3.7971401512008627 3.4449545017444594
Ga 7.667127921047943 8.456056487351333 3.414713393325116
Ga 8.016780898532014 5.866658871763609 2.4349374023060357
Ga 8.835999739718643 5.695102593227175 7.948631441047661
Ga 7.630863140338214 1.8680628132371517 4.786764128388502
Ga 9.479578824072068 6.8731368821124725 4.532150246687269
Ga 9.679252899054637 0.7212528809823507 6.094537351720731
Ga 8.888769239002075 10.322858152477563 6.579593055023949
Ga 7.204931878165672 7.897727601672333 6.20126593861221
Ga 6.0042023016722466 6.310776977640964 4.337299523496261
Ga 8.234502872962704 4.656265039583579 5.31558520147038
Ga 7.209635265984271 6.293662482948174 10.000386897955044
Ga 5.945425613957194 2.905460554230722 6.495072704122598
Ga 7.818651821153166 8.696708878021104 8.821621443603265
Ga 6.261084762956172 10.453256786865879 7.678385590472754
Ga 6.596024197192311 10.429211262777338 4.639543766298321
Ga 7.634521451062145 1.098523480232834 7.79111500520308
Ga 3.956634988839083 10.68178664416164 3.930987632068505
Ga 4.637506775001554 8.405874032418415 4.92440574467326
Ga 3.358572454254965 13.382544801456111 4.1476871579449615
Ga 5.836070661208724 8.561891202630331 10.82382847901202
Ga 3.475344312319158 9.767707426035601 6.921043318606335
Ga 4.969299147223844 8.073671959123182 8.077468144816889
Ga 7.566786498824746 3.7486423666537783 9.163446006180152
Ga 6.061986006565836 5.709755274436058 7.168979668544797
Ga 5.074830446628296 12.054452933733856 6.124558145386782
Ga 2.3235182504552814 11.871533836255242 6.088190004431446
Ga 4.471215093207172 6.22286617326966 9.73174686078805
Ga 5.668634128596351 1.8443532098897504 9.418762468063852
Ga 5.626173646493806 4.132862870813991 11.23091472865077
Ga 4.496184798521368 3.9904964213166543 8.438733171507767
