38
Energy = -98.79294413 eV
Ga 3.528381065527638 5.148099564465252 0.8657155228624569
Ga 3.3012136048652607 2.407359920880028 1.2916798978460817
Ga 5.982051179241909 3.6063054298309036 1.5485020052309546
Ga 3.766947004383811 7.968610202175893 0.605102930035471
Ga 5.7097982053286005 6.557825137794083 1.9510599933599493
Ga 5.802140126950958 9.355626025406536 2.4364800468514973
Ga 5.213877527942989 1.3695771210333418 3.053662874651108
Ga 8.095751141410535 7.712348297138775 2.997699084343892
Ga 1.7088538308333128 4.226654910654005 3.1146535118766048
Ga 2.730461245851778 6.95981063799495 2.973300341520065
Ga 4.407728391420275 4.658521844867994 3.712360582620014
Ga 7.35549411698827 5.124464750347476 3.4281186767767364
Ga 7.643877251097989 2.5246082065367603 3.6377957113237547
Ga 2.617439160880087 1.746257844582793 3.9440294969789527
Ga 3.2876522848545253 9.578674916242106 3.291427522323733
Ga 4.980399667889973 7.393216488026722 4.5112791246761805
Ga 6.839056356675083 9.459586177636243 4.974645388958341
Ga 1.6621376175139178 5.9419372524215035 5.192573187085832
Ga 5.405898216331372 9.996638613449624 5.156624829470063
Ga 5.28731442782334 2.605260261231136 5.521948013077308
Ga 7.829430657274808 10.130158781833693 3.780042170437131
Ga 4.281588205000494 9.996638613449628 5.802719250326205
Ga 1.3325740762321359 8.647727641195715 5.095078756242162
Ga 7.70194689800853 1.2471796298459714 6.124699121908521
Ga 3.1765328662626433 0.855404572512755 6.280619117071984
Ga 7.6731675245414275 6.793140382984843 5.582750688538653
Ga 7.789521648739636 4.130587751058307 6.130247997419807
Ga 2.822193987321449 3.7337235021691635 5.822138668985254
Ga 5.216304917303832 5.3953048758821724 6.493263613186721
Ga 5.3248365238725635 0.22589690936810147 7.880397618154892
Ga 3.295605587983669 7.520554962827947 6.7292824247353185
Ga 3.6870266891744166 2.6663621765671492 8.351506616172328
Ga 6.690849489791541 2.572473443460083 8.105678581441367
Ga 5.944371024559691 8.146719928483044 7.374735794662654
Ga 7.694665971878326 6.0616276212813185 8.214449918699398
Ga 2.8060000769260958 5.229894849579513 8.137153000375553
Ga 5.638675167289217 4.623281664562241 9.159052535457837
Ga 4.518229764837188 7.06017863729504 9.47751888512474
