41
Energy = -106.94670163 eV
Ga 9.198390416087834 6.607234963508957 3.693315606348273
Ga 9.038335496580876 5.148426545092105 5.923097871662536
Ga 9.489122598531647 2.8004230092536933 7.104764573417161
Ga 9.641617747795344 2.715461472377977 4.123210377223035
Ga 8.594378915235694 3.9041603621353875 1.8310148420482377
Ga 7.042512812404051 7.271679368596894 5.361025300244681
Ga 7.560240754736215 8.803227513973924 3.111493978490967
Ga 8.023384870951734 3.939313123121355 9.229871187037945
Ga 7.199500647994461 6.218595351120867 1.8009194350557007
Ga 7.518100278007176 6.305025506726646 7.954423318152911
Ga 7.424131185628702 1.4465868145155356 5.257133952699186
Ga 7.204914978416913 4.184380616929921 4.116233822116422
Ga 7.701150680463325 0.829160151310597 7.924070832876529
Ga 5.316230366323221 9.527030824854837 5.551193807549219
Ga 7.052818659746166 1.461055497675172 2.563965083198482
Ga 6.7202026021857195 3.683342596590604 6.708654799988442
Ga 5.92897226975034 8.39497571234851 0.6666545903863247
Ga 4.444796953362579 5.9271578782992345 1.2364633857153282
Ga 4.808784105481007 10.10615267011028 2.8513335253805963
Ga 5.08898871482133 7.48863076812391 3.4326938956394804
Ga 5.707786442560398 2.3015610413806082 9.138705614822765
Ga 4.048125087892457 3.7960434007498187 6.490089440512467
Ga 5.57512628294291 3.670087408232103 1.903550142264018
Ga 5.254724485268849 4.927821726714443 8.736014475983232
Ga 3.0463461925736937 8.260191514851234 1.3635575138928098
Ga 4.789901097927366 5.143699772599252 4.263005096562873
Ga 4.879524369780551 6.903778727839239 6.824381481669331
Ga 5.071548456404274 1.1707535735368866 6.726119871669043
Ga 4.828302548281103 2.1513860719701245 4.120088873057165
Ga 2.7599619770697026 8.83361515762273 4.2758807660169165
Ga 2.2770322422953733 6.156385351593231 2.920593899979119
Ga 2.5281618844907014 6.042333913820638 5.633349401020437
Ga 2.5330068466334232 1.4002053824947753 5.826207377009141
Ga 2.962546288153572 2.9065212623851284 8.902735496126754
Ga 2.5118284443916408 3.5092397045566313 3.9313336672827788
Ga 2.6133539185755517 8.486337278250438 7.042462515336872
Ga 2.7681115879482947 5.947091167825935 8.497314193433828
Ga 0.4259222609401576 7.648331834908026 4.771628150713287
Ga 0.17315072274395404 4.816580984971431 4.440101583875304
Ga 1.2816355543317675 3.7945755206120744 6.813805378235516
Ga 0.21734312341530232 6.356232889492874 7.392166332049419
