40
Energy = -103.98186527 eV
Ga 5.850788248447886 7.971110461579961 2.3472794025603387
Ga 8.3364204643365 6.278042999443147 2.6420092643987445
Ga 6.194060761237099 5.043544012451074 1.7871871563764616
Ga 10.861442490619707 5.945134554124058 3.474952163556542
Ga 10.447521348078343 8.166281185183873 1.757655139427674
Ga 8.560782373862608 8.86839795299658 3.634174785829666
Ga 3.8445449821939413 5.529056694374669 2.9473710124297625
Ga 8.403041095271774 4.027439312468086 4.874241650815794
Ga 6.279057299692586 8.701966048441008 4.992703018448884
Ga 6.175090447862549 3.1183702393759014 3.6948591310668455
Ga 6.185535601510621 5.9783741711886105 4.514429122401766
Ga 3.8267047358478665 7.85916180781911 4.355683359726589
Ga 11.191164090606428 8.543042542386564 4.475509997075756
Ga 9.010501190057273 6.735012217029381 5.399843026181532
Ga 9.653973663036137 9.332945305888156 6.405022579870217
Ga 3.728225793402624 3.569252497881803 4.800003935339259
Ga 5.968491005656889 3.8396061285842205 6.370651333041634
Ga 2.424010413737887 8.34128151054985 6.49124866953655
Ga 7.0833423394106765 6.822733967553708 7.162855376458557
Ga 1.3497917928971734 3.571683538508669 6.127065996655093
Ga 10.989684472418537 4.282332606752723 5.554227850289344
Ga 3.6681561219792305 5.896173986853126 6.277737051097677
Ga 3.3989701649098696 3.434035820056434 7.841768983714317
Ga 11.59808968694505 6.862446421216089 6.72245999410169
Ga 4.827218740310311 8.565234666563063 7.498318263729795
Ga 7.097082328674689 10.049323438450882 7.0683688969546985
Ga 0.33906021393922825 8.134811728666843 8.181883339336578
Ga 1.4272564263773497 5.734244380097863 7.754652381843974
Ga 9.439893939012313 5.12536829479477 7.62181896248627
Ga 9.612644325249684 7.726804600239615 8.645587960900842
Ga 7.4510841462409125 3.801583854373513 8.594310038631425
Ga 9.195263589807102 10.596448866064689 8.75875874854851
Ga 5.2586735849486885 5.50964283377969 8.404226133615579
Ga 5.134230329064799 7.521606154005957 10.244474856706349
Ga 7.209115797526629 8.808727365371979 9.44222268812462
Ga 2.6561417346596676 7.940770513658166 9.43713490101412
Ga 7.922115467882115 6.105153790341271 9.996383012560916
Ga 3.1762641944201335 5.17597675268482 10.094926802231749
Ga 5.876453075423357 4.874351297874604 11.002359202992244
Ga 5.277522501997888 2.54193645987952 9.533044789475994
