43
Energy = -112.37051039 eV
Ga 5.251245472644381 7.8392499326879905 1.6822728360916943
Ga 6.912889056302073 5.473622492328984 1.7592236689667784
Ga 7.9272014771929245 8.103370936328414 2.0493249697415914
Ga 3.5309939119553526 5.61303792460883 1.7701439738539262
Ga 9.335387970822667 4.655835414061977 2.721536322413773
Ga 10.270014063180826 7.256755463357575 3.1451410099385377
Ga 2.429728697684996 8.054495958525953 1.4875832774186504
Ga 3.6607606100788925 8.359998436739364 3.9403130602210177
Ga 4.7711146522980705 3.458571743867289 2.4517462354010813
Ga 7.051156887928742 3.789415146744961 4.076659859210467
Ga 6.268928895310721 9.031677753307862 4.1069233705007875
Ga 7.809495892018139 6.5275917765312785 4.465853783773799
Ga 5.130892162554276 5.9858975615767855 4.039322285452112
Ga 8.899721972088736 9.562807410708567 4.50150915969584
Ga 2.5182320168228793 3.9596286752859258 3.928957194997768
Ga 9.834021752204102 4.633880626710099 5.446449047125297
Ga 6.165758450589573 1.3103009612538705 3.0510152552355545
Ga 9.191067561175064 2.107307439815309 4.3255152230313545
Ga 1.3721762376196993 6.448236918380998 3.4953187498297655
Ga 10.119898093329086 7.414394564753905 5.940084335248093
Ga 1.917406159212933 7.872193629089025 5.825569041056036
Ga 8.601600558707307 5.994581790231791 7.593583308894493
Ga 7.497971660175936 8.347399837812855 6.611962674161933
Ga 3.334587211917499 1.3931424930934277 3.921288973583659
Ga 6.001899913734715 5.523118085242044 6.619872503805024
Ga 4.717655715557116 8.178759243475064 6.47319703326074
Ga 7.839016881334697 3.2765209698357314 6.810979554996794
Ga 4.945466856767354 10.364406927775311 4.581433653669018
Ga 10.270014063180827 7.099498707904484 5.230256996204195
Ga 3.2329886850005756 5.536815799597343 6.0903779450803395
Ga 4.786130938661273 3.194224815454275 5.518789262758384
Ga 0.385818495854665 4.633374031208384 5.5686451905237835
Ga 6.674044873086086 1.1000728327683067 5.80679722797736
Ga 6.036604767638962 7.387117195191241 8.888107961000207
Ga 7.0134976440817125 4.573716417955989 9.224485630170085
Ga 1.7007595674451332 2.3293953251386674 6.048880124174818
Ga 3.0642086619265854 7.375914465506119 8.521251884947368
Ga 3.869719433343397 0.7739344314750327 6.712825794142915
Ga 0.5068223913916861 6.619388894349973 7.686139719514499
Ga 4.325098435816276 4.923143424005394 8.778671772510254
Ga 5.537209249358909 2.5040560141296098 8.171890291511124
Ga 1.8350432617274155 4.309876696044203 8.147256146658805
Ga 2.806621470352075 1.9530739776316302 8.891797782399017
