46
Energy = -120.5004651 eV
Ga 7.416983202115452 3.4971466907063724 0.8767866179394754
Ga 5.571547318681139 1.6791542058711102 1.8244040719610897
Ga 7.811526530772821 2.77655400103342 3.5765101603027047
Ga 6.10179490343066 0.5790158532984855 4.243901180523361
Ga 8.979434241701123 5.223187788745048 2.827851135861685
Ga 7.897540233433447 6.2995803933825165 0.6111132639962161
Ga 3.21125907486711 3.0511137097535936 1.5789701796311102
Ga 3.6448932361681834 1.7464591030642798 3.9662762158865115
Ga 6.9769200694454225 1.1983424040589552 6.890991577900977
Ga 3.503822315094613 5.711789925205564 1.4675670609513627
Ga 8.685709695802123 3.0427491355265164 6.136859133700342
Ga 5.912696767565539 4.821500696063705 2.5962756279212305
Ga 1.1066575822368692 3.0391006894378827 3.386550218655117
Ga 4.2387793725683185 0.3126431639818182 6.264535016656595
Ga 9.98800339455684 5.36910373261473 5.319522844321268
Ga 3.530691107990888 4.560785952193228 4.064260846497413
Ga 7.832258452586079 7.745156198582916 3.081147730801254
Ga 5.524913985822098 7.415305463448719 1.0881215453419586
Ga 5.713579474273245 3.148243562032451 5.236061271383185
Ga 7.2144030525792475 5.610814624385026 5.040028556967086
Ga 1.189811106586221 5.912319197299645 3.1893554194297074
Ga 5.0223300579440915 1.6372244934038533 8.785091564170704
Ga 1.592451199255235 1.7477334802794817 5.75019908311916
Ga 3.6181159137654415 3.180073251252864 6.85249659747677
Ga 8.465474658231072 5.449174700517287 7.5818863880361365
Ga 5.128327297782134 7.062896649588683 3.8784860769108818
Ga 5.241215191037136 9.678877256543762 2.6572820645710613
Ga 2.723514393406338 8.302593462064136 2.790580923862485
Ga 2.410874094457814 0.9101558943573262 8.353339155197238
Ga 6.345384318659491 3.831830337789784 7.90486023617679
Ga 2.625618700831095 6.981056088629818 5.3113686158605775
Ga 9.156501617495511 7.89226952671192 5.627760884309387
Ga 4.76035414159405 5.694000028629453 6.367134113632443
Ga 1.1907118859855659 4.574154123313437 5.851597476761248
Ga 1.3986996206893016 3.667811434828419 8.396214792030863
Ga 4.190121502918257 9.348969433812295 5.190211959991496
Ga 3.962627268378682 4.098139175729896 9.692770149739768
Ga 7.092081306542456 9.704155614307762 4.677325322753942
Ga 6.449613454530364 7.86511647903671 6.544768152922869
Ga 8.499674657978579 7.823477031319069 8.53904766014882
Ga 5.533577079203803 6.310377113111392 8.947621768602131
Ga 2.479670308238815 6.122592640039198 8.052610343228897
Ga 8.406773559555289 10.143418060500897 7.146223491730486
Ga 3.832961663387701 8.401771217975181 7.719606780529802
Ga 5.7010434280102 10.711387165642098 7.026128338143771
Ga 6.194402494724491 8.921478207201599 9.175469226246529
