41
Energy = -107.34271753 eV
Ga 6.16898714011933 10.870663519702946 7.258757734918748
Ga 5.7346421993381655 1.4608646397373726 4.831251816280467
Ga 3.0177324810359263 2.078733635679779 4.931586923711253
Ga 3.646218151544266 0.876467421620771 7.175678043647097
Ga 5.728766859278147 3.2022821503599244 2.514418797548138
Ga 5.499977481068097 2.269131268149111 8.780085760407543
Ga 7.564166767486468 2.1550062277297855 6.768436362618469
Ga 7.093213832382345 3.971830302785215 4.61820119720638
Ga 6.835321352952774 4.09930035761913 10.693476739181976
Ga 4.25314760419967 4.357426265268556 0.49886579627190086
Ga 4.8823825470537185 3.6246242503940045 6.348525465747716
Ga 2.408705989777164 4.671222230633052 5.29711144005994
Ga 2.9539116586402083 3.6501312744576726 2.8454061570281577
Ga 8.09275314622315 4.587469774585907 2.0805060932019246
Ga 2.4158859367881385 3.0727856871924293 8.070747803807
Ga 4.102235286277138 0.9428436043684029 2.62444614982247
Ga 1.5216302631109369 4.663402798590185 0.6069621505569713
Ga 4.425041646182734 4.752056021276203 8.990826418094287
Ga 7.079497382942189 4.440090645880513 8.33282823036308
Ga 9.061664122796966 4.334964128552086 6.45011573191223
Ga 4.872510145741863 5.5603095059771315 3.889952525979162
Ga 6.770398450699896 6.203700854770192 6.106975932365624
Ga 3.1414575803861853 7.341636004796997 9.374986199548353
Ga 3.200493241549731 6.555586928414844 1.794974391164081
Ga 4.145397696431196 6.367690433610045 6.6563694854324815
Ga 1.6835675973468738 5.726556382043735 7.677212302780025
Ga 6.151061134848168 6.352242695850703 1.1190894504310076
Ga 9.827231868591134 5.247744504061527 3.956206936717477
Ga 0.9362999540535804 5.6837649050230885 3.061040933717544
Ga 6.190901814379618 7.02933716240383 8.79302403363598
Ga 8.943888344353724 6.6120994861332765 8.066386201578023
Ga 5.04496307217862 8.201452558904471 2.636345009035578
Ga 11.188953092334824 6.059919000531082 6.323369047631077
Ga 7.36624443971171 6.951526164862922 3.5190209155096874
Ga 2.7723423728917918 7.516097765009942 4.3689193921070135
Ga 5.2428308642178605 8.489863477062398 5.19702240313975
Ga 4.700498674720782 9.126382849287532 7.71695381196635
Ga 9.132989762369842 7.628246612513537 5.363338112503747
Ga 0.2414995518450548 6.651057201713851 5.459996638332392
Ga 2.0556327334974873 8.548650566991016 6.850391538775217
Ga 7.40077419301673 8.876111726973376 6.973206247697358
