42
Energy = -109.85242501 eV
Ga 1.3909718953354195 9.411296135766353 4.591436065651532
Ga 2.2480294885014103 7.006510323160708 8.268369432228258
Ga 0.7450710172806118 7.051647983181197 5.810649355961856
Ga 3.6315327460129363 4.732187150592312 8.59424374598496
Ga 5.648698126193193 3.6559853330451233 10.263252647783363
Ga 1.4897508029725657 4.635045850734337 6.758003793651453
Ga 10.974605050940307 4.8316418953708595 4.38417037278345
Ga 2.662642770388027 2.2722385095640085 6.920319617161419
Ga 2.9912963367673555 9.109212505843324 6.76077678684268
Ga 2.9914571402087984 8.873719515420982 2.349353399177951
Ga 5.962082947731056 9.601240017571916 7.2595251796055
Ga 6.38996203907477 5.876382761536504 8.84826434361689
Ga 0.9489548546903317 2.3252299833330943 4.851912496625088
Ga 4.914395569558437 7.045723562994561 6.885536439287553
Ga 3.249409638647807 7.002686465152421 4.739681989123303
Ga 1.0266150113883301 6.8576730200213625 2.8754444240206354
Ga 5.134459262304899 2.5042732521607665 7.846054532527049
Ga 4.155883633557027 4.483157583175698 5.757017040319231
Ga 2.3678272620865766 4.527495886991755 3.79133964124118
Ga 3.520479303766154 1.9243986882292163 3.9557372466310294
Ga 7.878609637852874 7.573686345405066 7.437664612090795
Ga 6.747953859348702 5.076231916360319 6.197315277984289
Ga 4.854658553638294 9.291151188016942 4.725301191025524
Ga 3.7890378847322848 6.312105171284264 1.9697295974827078
Ga 4.50798057379659 0.33412239856721054 5.965943536237903
Ga 7.3174437957703935 0.7224023210086525 6.762345342798575
Ga 7.354588997106887 8.28936403353532 4.958425710674265
Ga 5.966653895556503 6.2016882388033725 3.9016949246304105
Ga 7.700876316878888 3.2420869257889215 8.313686938726258
Ga 4.684522696074879 3.724513559865088 2.3750670336486346
Ga 9.436488251763642 5.215965286517385 7.471689003150102
Ga 5.752989745265257 8.509693518638576 2.2748354851555295
Ga 5.920225013792735 2.5780459804871474 5.13346769650962
Ga 8.653067630787259 3.002836004815531 5.786835839853183
Ga 8.223765202582754 7.6962684651098625 2.510024600121346
Ga 6.322136935608496 5.6448020204161535 1.2163013582130762
Ga 8.850717966248215 5.885969161556514 4.606494960485315
Ga 7.2426887915864295 3.727207793652635 3.1151678424667826
Ga 10.974605050940307 4.213858460422987 5.3098669200852875
Ga 8.014215913590855 1.1067204745059418 3.936222924594724
Ga 9.0633537244464 5.291384691948783 1.7453171744308773
Ga 9.909420735033653 3.0476565584601567 3.0311688684199836
