47
Energy = -122.78850737 eV
Ga 2.407884379529494 1.472915439727627 10.083573778345013
Ga 5.345231000970309 1.9384270030112205 10.608675448733205
Ga 5.2777207605754075 4.572230335874334 10.96858079101654
Ga 4.132037318766887 10.662842015363886 10.854320554615034
Ga 2.6296263492597713 3.960537462536714 10.939045601921215
Ga 7.911912099802295 2.143394782775652 1.179040563443681
Ga 3.290202988991804 6.695678056562799 11.153825937215153
Ga 6.729754574942596 6.001054763079217 1.3399416633090842
Ga 1.2542291843782014 11.036599939160881 0.7620952236965484
Ga 3.317530436215404 1.7348548466020781 1.3128121220677047
Ga 5.838819343890219 0.3589867235533213 1.6222227820600854
Ga 0.5688941762124519 2.451551998180216 0.926811398979363
Ga 5.479282974467002 3.2351901526219446 2.0309658181214982
Ga 1.07391812422997 5.1590468581916396 1.4267578079847185
Ga 7.942268771544326 4.191045823001989 3.256002693039421
Ga 3.865744862970747 5.407654003177973 2.221733142906251
Ga 4.895532784373006 7.991042777467155 1.9708278610421668
Ga 3.5077746201317437 10.515435214632445 2.4245189508172733
Ga 2.3681711743465037 3.450971460932854 3.2556088950483564
Ga 7.111137653821367 1.5713498599601121 3.9244428229701223
Ga 1.7272680307713328 7.577340609539507 2.256762930125673
Ga 1.1170245717893215 1.0077857934173857 3.3694270393187584
Ga 4.3060899129205294 1.3078034552216462 3.946145216039883
Ga 0.8772436890260632 5.68424354849796 4.278545798056654
Ga 1.084067810543307 8.210732725015024 4.801739151744606
Ga 1.0108558640103833 9.651669581756794 3.2768562169930204
Ga 0.08489913780990987 3.3453773869443744 5.339787863107262
Ga 0.8738335688399248 8.292217658154048 7.51147045050191
Ga 5.972736015859323 10.30075300246171 4.084368039556429
Ga 3.2915050149674308 9.651669581756794 3.411037294664185
Ga 5.265478699532946 3.7251752987487885 4.6567572063156755
Ga 5.8555462847056985 0.5058638648090579 6.380759397947557
Ga 6.2579992292062006 6.369667919116276 4.056057187925814
Ga 2.3211687606525366 1.6643151399183134 5.667475136517319
Ga 0.9079844481229669 5.541327656053348 7.264093396281414
Ga 7.373527746960466 2.8817480109977023 6.461760134506728
Ga 3.3712713118140054 0.25247186093524543 7.804230273051389
Ga 3.6138283821489745 6.9518323159895985 4.422741340776042
Ga 3.159143940051369 10.313026756220486 5.2238185367948935
Ga 2.938389206059436 4.486843060933965 5.786749388996352
Ga 3.2287837141779048 9.444914174962092 6.223212835231751
Ga 4.562172695374671 2.7903844297494143 7.240847009897832
Ga 5.751732060558319 8.058372408150323 6.0605333407014825
Ga 5.879317155479428 5.315836119672682 6.822380410540673
Ga 1.6211252090312138 2.8038361937889906 7.97560481120054
Ga 3.380847319363753 6.897235331912527 7.110678478716463
Ga 3.588533752198658 4.848976202263011 8.736586860557804
