40
Energy = -104.75189132 eV
Ga 3.797939823446557 5.086095725631974 5.572648897672343
Ga 6.106710379398933 7.945521088633169 4.132278491214379
Ga 8.376359660087726 4.116260997600674 5.688850659828287
Ga 10.557597037162095 5.346828520418675 4.461991183274896
Ga 2.599099777069448 9.921924467810326 7.188403070926949
Ga 8.570062498666083 8.226896180987177 8.095276976242554
Ga 10.720439310291283 8.248700630793156 4.135339461842521
Ga 11.089916145660826 7.163567193467102 6.7514291736331
Ga 6.197610405129775 5.026124289662023 4.073670046454119
Ga 8.218642543698909 2.839532806945849 8.182152569647029
Ga 3.940776452461631 5.566316563942346 8.474775764421226
Ga 8.269233742513581 6.623332828539148 2.926544279798629
Ga 5.93263086124607 3.4979829134457785 6.479977556752602
Ga 3.6382768024113092 2.981759787403607 7.872803526080952
Ga 5.994128066713885 6.348008260420902 6.71746450077161
Ga 10.090460020076799 4.020215884144703 9.66871358637212
Ga 3.7914934368717454 7.8220238451939235 5.434961044359691
Ga 8.541520104330557 7.60035882171035 10.698430190113655
Ga 8.49658548480441 6.925443181484479 5.704510495315113
Ga 8.333867085624455 9.40636888071414 4.400444592096204
Ga 4.39862287599851 10.472283774095457 5.177430021200412
Ga 10.950169845633791 9.099915179182185 9.31703754552696
Ga 8.207183495382333 5.605813169228089 8.27080474910884
Ga 10.754038143912632 4.4016881222906825 7.1117429647614925
Ga 6.483711341944813 9.30260152472818 9.748227754823843
Ga 6.083577880009941 6.644009150565479 9.867085522247608
Ga 6.450228957149443 9.046557862927651 6.701817397824265
Ga 10.99109407176447 6.498890514781423 9.395886918571867
Ga 2.0180921914639924 7.118333530210483 7.352583065728162
Ga 5.967514885597895 3.876022798693117 9.335232455680952
Ga 7.802435951166787 4.622601686714929 11.18902651875642
Ga 10.180964533112054 5.8807493514970055 12.024664897880456
Ga 4.407812125777017 8.200884865797972 8.373771596075354
Ga 9.556450612021608 11.833658571635679 5.160264644314646
Ga 6.789550390434355 11.455987452777041 5.209339638522748
Ga 10.367074870120225 9.772362388195559 6.683924490294655
Ga 4.9585169055732425 11.207960495689155 8.097853386421406
Ga 6.810288360477471 12.03113403427333 9.879408671727552
Ga 8.970661176540574 10.584081441470152 10.292943526857085
Ga 8.05402567720082 11.096565145245005 7.615651958993745
