46
Energy = -120.63994858 eV
Ga 8.826838738886831 1.8331916615996071 7.650777963495781
Ga 6.323472620426541 1.279021682406912 8.976486539746436
Ga 7.452215071192939 10.932069633547325 6.412915229574446
Ga 8.761322078802513 1.5390144445648288 4.548852536424457
Ga 7.121644951408814 3.9097946709986795 8.762525764099738
Ga 4.756848789526325 0.5379890142996127 6.739830449830597
Ga 9.089489007453306 4.209620919270892 6.563359653762863
Ga 4.321484155219934 2.953629984196379 8.234170423086304
Ga 6.555256970527176 2.749718449475422 6.18320181764392
Ga 6.089198154158568 0.5725762312435481 4.09302653444446
Ga 6.529950011118461 3.127746934155128 3.284807803871051
Ga 6.778418955237804 5.9262317660459205 4.215492781111086
Ga 8.989321705715339 4.109190029677205 3.859808883077781
Ga 7.139964057451311 5.997916747824745 7.0322341232213965
Ga 2.357196926488029 1.6315898787911702 6.648103452052449
Ga 3.355714352858707 11.179169532180037 4.187514832705064
Ga 4.717534331355353 5.654079277956591 8.714996249358002
Ga 4.13110097867233 1.8587004193786834 2.0714237226644046
Ga 1.907760475719108 4.076458096256804 8.134605751961612
Ga 7.456274487104322 5.13883855352231 1.5061930300969935
Ga 4.1704454752718245 2.6534633720877574 4.743451947083028
Ga 9.514280791370147 6.550688353374013 5.471612216356121
Ga 5.109211173150172 7.866353049875784 7.257081700953922
Ga 4.754496384939141 4.9155272945245 6.082225721655585
Ga 2.0470162983655795 4.3374775613049215 5.320626651834467
Ga 11.145537674755051 2.6537952030112884 6.2028459982551984
Ga 7.54292815181663 8.376116592854354 5.751219351073763
Ga 4.78115902610325 4.548202266878677 1.8749810410167878
Ga 2.5414977523931843 6.551516122719475 6.964922277642574
Ga 3.629344973584027 6.240773747296131 4.025566968873084
Ga 2.219332675537598 4.103084444526523 2.604556906148603
Ga 1.4442823229040358 1.869674082640701 3.870761846519948
Ga 11.179728356761759 5.543101305209958 6.913726374506579
Ga 7.522772690910441 7.953675212913126 2.347858437438143
Ga 9.668335673406066 6.449426729357492 2.7399351850052494
Ga 5.259347729743151 8.246833352493905 4.150360020226455
Ga 0.8198149244096798 6.83863721501157 4.193774581143205
Ga 10.882478277690598 4.0382196264195365 3.626944606837807
Ga 5.542042069795857 10.271308794436363 6.218358461085339
Ga 2.490044426246899 6.352133473754871 1.306663529875436
Ga 7.153759758021628 10.35935953923699 3.7430372260737683
Ga 5.099424471060344 7.086862981932486 1.3515040885793324
Ga 2.990865527856269 8.774449046325408 5.638936689091885
Ga 5.371753021124106 9.668288318993355 1.70522909277604
Ga 2.662934235307029 8.586325033682973 2.8331229305170735
Ga 3.957428235711833 10.932069633547325 3.9055368491613116
