47
Energy = -124.74552617 eV
Ga 3.7175742519737174 3.1760535980420106 8.424375816851562
Ga 6.076920255654185 2.2614508512204066 9.856422756263786
Ga 2.5214571856972907 5.55215236245805 9.383614029097158
Ga 4.316128236936429 6.989222183417971 0.8734427616108622
Ga 1.31145806854249 2.709382392542145 0.029651302838855424
Ga 0.18930557647363092 5.1125692662640985 1.0749732832178232
Ga 5.995139899377573 4.998876600415408 0.011679502633116793
Ga 3.635296769990928 0.9650133248525737 0.23092549531440806
Ga 8.273586143376097 2.4595899983999434 1.7124693364743901
Ga 1.4679643475055904 7.620482896453283 1.3186422591298466
Ga 1.310958426037237 0.5647969673498349 1.6714854841992943
Ga 3.7622475705537406 3.746552052209284 1.24575753706399
Ga 5.915618538500153 3.354619172265698 2.7128619378244156
Ga 6.096319890210963 0.22959613106076793 1.9824095313805592
Ga 9.04926389407667 2.659629363980838 2.020467863385671
Ga 3.5208322080069445 8.288458449648829 3.2057279830779657
Ga 2.611570548806862 5.601446374783557 2.7558392051597846
Ga 1.670998687169562 3.18244010553005 2.929065732542494
Ga 9.489899988269542 5.124033023267883 3.7151210760375983
Ga 6.38538581944198 7.6242627755119 2.5995001551469916
Ga 7.763012656249755 5.288507472090109 2.1527068393059774
Ga 3.6331247741077632 8.951047587302384 2.333534360976741
Ga 3.924978559906238 1.6512747643660899 3.1350047210901257
Ga 5.037313414705744 5.601640284812696 3.897110053420974
Ga 0.9304318006093032 7.407377203783408 4.103236466080804
Ga 5.4575659636175615 8.120762461747187 5.2109261293446245
Ga 7.379696202522208 1.2639103706910262 4.182976858897186
Ga 0.718233593149452 8.288458449648829 3.2736259257799754
Ga 7.54954651636273 6.332974902361163 5.037597366520127
Ga 5.2644040846036555 9.512933043546175 4.8492410451381875
Ga 2.845966567454533 5.006465121053521 5.406401103142241
Ga 0.03439713108280104 1.1112036245706436 4.2272485725435756
Ga 5.095030380676811 3.1988603226191707 5.2450061294386705
Ga 2.5315769873875142 9.491102839506048 4.964931679655692
Ga 8.37799150147964 3.7209412417724015 4.347139536880439
Ga 2.5448352753529426 2.4087411327061 5.256279260128601
Ga 9.69585569109504 3.320160576986381 5.781456153641752
Ga 5.2918388789508715 5.987810968978774 6.894437502214101
Ga 0.4880342682050473 5.95960277218048 6.547694407735975
Ga 2.8524477423048435 7.685623148142729 6.083336874731716
Ga 6.540190624931291 1.433215759371027 6.837835471280697
Ga 3.822870070818179 0.936317473857593 7.1953772734797194
Ga 7.1722315143480175 4.0425132472815575 6.868090350923698
Ga 1.0213334615925491 0.8952483029852132 6.956726611208838
Ga 1.8240097657095387 3.423379260692358 7.747256485817338
Ga 4.656383141776543 3.460917354993782 8.146925390037373
Ga 2.9280095327756666 5.868691277000573 8.262700789713614
