41
Energy = -106.25805978 eV
Ga 8.056293204114462 8.797834985805343 0.8245427128614984
Ga 7.228230781949242 6.115485668843201 1.2197461299944354
Ga 4.4307968930979555 6.0338342061771835 0.6462606124872029
Ga 5.740231741801774 7.982935041050684 2.356130308812651
Ga 5.585967491158956 4.2046162904746485 2.3979713176727055
Ga 9.175659420083603 7.146878415095015 2.7690403131510015
Ga 8.486909710145062 3.815969597048883 2.0655644454701583
Ga 9.534374427908428 5.055835703340203 4.199430239388728
Ga 6.432485752140406 9.871300595947883 5.936179240547769
Ga 5.0078206022765315 8.000668422158181 4.931358824689325
Ga 3.8611675815202076 6.195225148062817 3.2838235255247685
Ga 4.8900126925555885 4.101828527686105 5.338259905021504
Ga 7.256250718660415 3.1290260588684844 4.57707961294351
Ga 7.9200605842311305 9.456189824301191 3.4270452533281186
Ga 8.859029099000773 7.662851318350932 5.620495503401248
Ga 2.82584208933499 3.803726330705552 7.112608396256695
Ga 6.859922265152721 6.00937562721732 4.143537323846443
Ga 2.9171744096258365 6.205768722228282 5.803387677047808
Ga 9.26377184789504 10.445173694800907 5.506004221654963
Ga 10.163043124406666 5.000170722790585 6.617076457501056
Ga 6.645369911026704 7.361358955920245 7.167385862483649
Ga 8.149357680683504 10.057573325718574 7.993425273638901
Ga 7.400091230148607 4.790373504648299 6.743256585051625
Ga 4.897098710205887 5.381701693664744 7.817499447997533
Ga 9.322821615080835 6.846947195512951 8.258386154860755
Ga 10.891519994058442 9.107156402088561 7.284823012296868
Ga 9.416175039557933 3.927786397733242 8.854703145066853
Ga 3.9322476364548193 8.157649356210113 7.372298384418306
Ga 5.485417021767557 9.763009071573649 8.785821035424094
Ga 7.296971468440947 7.783274555097744 9.695224962870443
Ga 4.310736833428056 4.343656857466877 10.381412536178006
Ga 4.565078087347857 7.121159120096348 9.832358420221203
Ga 7.54192198789591 10.786953250661147 10.549501888299954
Ga 9.244185432970406 5.870361434478346 10.8517269711263
Ga 9.81662655300161 9.028973795088014 9.890398693096431
Ga 6.911968530467236 4.630551541115649 9.509070934295972
Ga 8.500524194017494 8.298107559042148 12.146377088500659
Ga 5.582102895214259 9.00324679345339 11.484927622557363
Ga 4.126410020643525 6.496838829392682 12.519705328258523
Ga 6.714015293108327 5.937312543311066 11.781805086292241
Ga 6.287297134537223 7.80429462388988 13.83733125257933
