47
Energy = -123.77295354 eV
Ga 3.5903945989229067 1.7818116258728351 7.778946751118216
Ga 4.676363143186391 1.1234777553610014 5.229360425745402
Ga 1.9680435612607308 1.4087837118686672 5.44892092163919
Ga 7.391345825889986 1.8351806671659914 5.1896489615790555
Ga 8.943310140301284 1.066153103513724 7.388883569576131
Ga 7.651640154720564 2.654835053072664 9.128692911314056
Ga 5.019850424487208 3.2383926001577654 9.869924994338108
Ga 6.096314877966237 0.5962481763906086 7.559536122846922
Ga 1.0067009081794036 3.0621018811662224 7.46690995028335
Ga 3.227093657686845 2.3590359658440407 3.2547019960912182
Ga 3.435858934583599 4.6738837403979945 7.998801198433373
Ga 5.886145651660702 2.309483745723846 2.8226892024219117
Ga 3.5406418741881933 3.9375958031522766 5.450558492562392
Ga 8.45286709645509 3.600399409782945 3.0998656471551724
Ga 0.8011065722884992 3.775668216411911 4.438112215067493
Ga 10.078724705061546 2.7600665103503945 5.0423119782700985
Ga 4.7926744442606495 6.062601648881732 9.98908356819287
Ga 8.508789745615482 4.048150662320051 6.8764796744341234
Ga 6.289323374553014 4.484442256665731 4.791295373189271
Ga 7.213182785129355 5.293882340734791 9.035577772443956
Ga 5.7444209562231485 3.457376033156622 7.135049476731344
Ga 1.2949567304605127 5.6340384856537185 6.413483083270757
Ga 4.229052651569719 2.862122888327636 0.6790550012119967
Ga 7.530601040947233 6.514972040448234 6.442615606203629
Ga 4.973677295624317 6.873165389255857 7.263830793125281
Ga 1.7869563736062626 4.22850506553989 1.9240751863014436
Ga 2.3690614369981144 7.209742991004801 8.409591359819501
Ga 7.013365043674115 3.980763991352917 0.8970575202177608
Ga 4.415547668118105 8.684245871233191 9.627422711120076
Ga 4.610558612137437 4.966875839011036 2.5602951341844715
Ga 9.641810998369378 5.615742563140877 4.810637312874246
Ga 2.4497278651213374 6.104193380966791 3.900507513601262
Ga 2.4773822734316373 4.7705773355155445 9.98908356819287
Ga 7.03892568728395 7.967624850268983 8.931662570474074
Ga 5.158541330353846 6.91062558974242 4.614275891752769
Ga 2.911842340200521 8.033851664093769 5.701810478610526
Ga 7.564600104067795 6.22037758533383 2.890753498070436
Ga 5.084334956886585 5.455515577162159 10.43526375406771
Ga 4.365364011593893 9.7502608029956 7.247463873338775
Ga 6.870970227136343 9.093565622345686 6.433867696317776
Ga 2.7636504254498266 6.842204803671157 1.2397632609625653
Ga 5.527320414990051 7.391723035426457 1.4949696701873558
Ga 3.50513776752855 8.745229024497302 3.0156560213704564
Ga 8.947806550965357 8.231139671362966 4.591824393523567
Ga 4.751634171035778 10.538926521815114 4.705431047984877
Ga 6.538291274175971 8.826416958711782 3.326936175578186
Ga 7.73804896835643 10.887364890984898 4.598261461168226
