44
Energy = -115.40973881 eV
Ga 2.6952340200973004 3.6964236024302553 0.832693220778171
Ga 1.226294017279473 1.2241849316188764 1.5130111512051898
Ga 4.243574861073337 1.5220345360165026 1.4579476259884239
Ga 5.5557539691015565 3.750152539620728 0.36807134261898583
Ga 0.5578282388366439 3.8591372290486503 2.5063542101380767
Ga 3.905545619155351 6.060995782327809 0.4644242864585608
Ga 5.764276524653903 6.296336652459245 2.3319901540997723
Ga 1.1903678459076459 6.260542316489213 1.1151337343306982
Ga 7.7026164120932386 4.2159097076624885 1.8494763748420373
Ga 2.8222965098293358 2.7240901332303302 3.499897313239739
Ga 5.09103896585944 1.0810128821698728 4.21991281243696
Ga 6.3512782448394285 8.684473667309062 3.6414777899491173
Ga 3.966084630933288 8.394682242373841 2.056642206256246
Ga 0.4968641380358588 1.5295756325852752 4.31940422352033
Ga 8.1707296972462 6.336642619491641 3.579034613861967
Ga 2.8364287362003493 10.084957651997382 3.523241096237525
Ga 1.411117567528649 8.369222705511586 3.2940944314651293
Ga 5.161094129663017 3.783651160233967 3.128247720299437
Ga 0.12398330340145977 6.000552950744367 3.9793635864716737
Ga 5.990872230140241 6.522625875695468 5.400047930957084
Ga 9.732108947436236 3.829803253616401 3.7166554857137513
Ga 2.9900699373778536 5.757681618441991 3.2119824979561864
Ga 10.037682050254856 6.400792445253042 5.456517069541043
Ga 7.671157833703121 4.285556743271957 5.474937935061217
Ga 2.7681666017814472 1.442151826464124 5.9189742332324755
Ga 10.414265333345291 4.01468607471524 6.663360074588907
Ga 8.15341549612261 8.31775789829676 5.897864160071266
Ga 3.8645881705082124 8.3169657457596 4.913740489555756
Ga 7.35869734953944 2.2378387562614077 3.8442567167598547
Ga 3.8559403061175406 4.577309834259597 5.488979010191044
Ga 5.761987187446126 9.522956645820244 6.583410984126654
Ga 1.0940989502504177 3.9136726463159217 5.558105654125291
Ga 1.8381967354009816 6.79016807615231 5.781019646301205
Ga 5.799120360875875 4.8169294259189925 7.461211661711204
Ga 8.410597937000832 5.9413570994147396 7.576007711129489
Ga 6.387796724573661 7.528870251939654 8.422369907091259
Ga 5.946168867341245 2.1437862106569145 6.504843281275724
Ga 3.9894976904806003 7.0387890486287255 7.353027110617439
Ga 8.140698276985466 3.0693609837133753 8.00238410496192
Ga 3.5704614885458312 3.070608144650823 7.8081595582975885
Ga 1.8209727305021826 5.194684688902567 8.003409101958425
Ga 4.20029185752659 5.5372534748801625 9.669664781130118
Ga 7.0717695625080585 5.2766957765349405 10.042305529967843
Ga 5.722998316659126 2.7314289152169837 9.430375843637949
