49
Energy = -128.82670826 eV
Ga 5.448397287382371 5.74256108958854 9.734615138853385
Ga 1.7944847069043648 4.023970036271511 8.803846553398618
Ga 4.498545335027435 2.5438701839411966 9.225127105992609
Ga 1.7652789482557758 1.9060045208603544 0.5978045357991523
Ga 3.77016207478004 9.939910211373306 0.12111035197360416
Ga 2.4263255183934054 6.700356259465453 0.25703154083407453
Ga 6.457963115436274 3.657252380915316 1.1595685536936582
Ga 0.3297156212529556 4.3338479025818675 1.09536980053543
Ga 6.593105503562592 0.8408136487291097 0.4568830323625324
Ga 4.990432068294784 8.553927157983372 0.560838287246371
Ga 3.3836131743172553 4.204352294149754 1.0122591722535534
Ga 1.1038454920963328 2.6367219920163416 3.3304037733991363
Ga 4.381470392158952 1.9261276686656779 1.925673641391462
Ga 2.05382771818398 10.03868975938993 2.490232684324748
Ga 9.968073927016809 7.102131876959066 1.8070124690394112
Ga 7.771225468623182 4.113329749500041 3.812386519927731
Ga 5.182399853608081 9.44432195383114 2.609154934490422
Ga 2.7218490470191274 8.562989417462449 2.5096867655194925
Ga 2.040176731390531 5.702564999841135 2.880201951596995
Ga 7.231121117882974 6.252056481278208 1.9560868418384236
Ga 7.195851393758859 1.5797981779314214 3.0015288475151967
Ga 5.762506001390658 8.478490882290078 3.515880629668258
Ga 4.529645131385734 6.342551953161626 2.219883216628302
Ga 4.032444922781747 3.884056908506351 3.7270711181394685
Ga 5.6486916091038255 5.717029211299705 4.506579585988202
Ga 6.412496828014344 10.064799401457742 5.087108285974318
Ga 8.100274576981342 6.994702875756758 4.515181782341402
Ga 9.593354473516639 4.951054615437991 3.7995543080535397
Ga 3.900415156319032 1.1018994390380485 4.320495825274157
Ga 3.6237378483705602 7.570974394641332 5.03682414498186
Ga 0.889663246167914 7.621461827420018 4.575844583509813
Ga 10.07766691866481 3.0489414064587015 5.978293653372942
Ga 3.076728438555744 8.562989417462449 4.601660181395125
Ga 1.997632478456622 5.175070871688285 5.4022228013605975
Ga 8.30466150143224 2.1157259312611276 5.590716719379412
Ga 1.1850575197171767 0.4575709779210521 5.310088929993772
Ga 2.8281936733552078 2.803759408274647 6.004073041443356
Ga 5.616810236666039 2.668968357438472 5.750088624172013
Ga 5.90986595962641 7.610554921273263 6.5683925251208475
Ga 7.5751365046995165 5.041678440739088 6.447215667350264
Ga 9.613769933623912 5.7911872375888365 6.528846202826043
Ga 6.521949475825743 0.3937316337809706 7.834352690874715
Ga 3.8825539246846725 0.32348193452158586 6.953397238170728
Ga 2.0613090398806704 7.342661238441623 7.391457853967012
Ga 1.449575656158293 1.5966310495264135 8.123626917524488
Ga 4.489804723562119 5.257039589992048 7.075512874496747
Ga 6.8262361598927015 3.115742649883187 8.114241032053801
Ga 1.8283626072028167 4.490123617379124 8.058959110918867
Ga 4.161768001263686 2.778496167804653 8.52498791514412
