40
Energy = -104.63577132 eV
Ga 6.169346520153988 1.6005155051463276 10.08774678483869
Ga 7.659889981377654 2.642152886068177 7.936225268344989
Ga 6.132476068423369 4.318482200173918 9.438023379892101
Ga 5.040084745838772 1.395646197486293 7.586999469996159
Ga 9.119638889746359 3.2415410723274025 5.73162706279762
Ga 3.7589322093872135 2.9002405717016533 9.772433538945949
Ga 10.719687022303312 3.6241134744756924 3.658500837532804
Ga 7.855388269879457 5.356401388779695 7.106825937017558
Ga 6.708082378759202 1.8937579707814645 5.429150342903183
Ga 6.212692215326411 6.767392330337652 8.692038866491327
Ga 9.755070848381926 6.143455421923493 5.2269072184565095
Ga 5.178578384236236 4.289848901428754 6.818539420903671
Ga 8.198229736278261 2.414915792250278 3.017004666893543
Ga 7.533803809469847 8.237110093295758 6.44704632053473
Ga 3.553271982916115 5.58200386985884 9.10219572952512
Ga 6.227398067829269 9.431378225162224 8.54105413828926
Ga 3.870937903867014 2.0622590780883443 5.3867592794342185
Ga 6.931374186982105 4.675190406099794 4.5579893835596375
Ga 2.5500718806280527 3.42871607176774 7.4307248528256915
Ga 8.808701985062623 5.245874179369017 2.6544834282405616
Ga 5.596197677316188 6.31069540791542 2.436282375198486
Ga 3.8423910798846777 8.087273119204953 8.066558705513009
Ga 5.243251588735684 6.92569880977729 5.922015050341767
Ga 7.629517981996956 7.3538900144829125 3.8632265115692674
Ga 4.933493904428226 10.1282751866198 6.249375513327402
Ga 1.3390707100220332 4.0909830055125145 5.1889957556238535
Ga 6.8245445342592435 4.034209719317749 1.1746916100136326
Ga 2.611396261170939 6.1301731376135224 6.588080167962101
Ga 3.9868738631327663 4.821035519924108 4.353922407704033
Ga 5.401030455598333 8.76262782691282 3.8793282257557578
Ga 5.5033907344906945 2.7073517778789262 3.2012068445327047
Ga 2.4704632105509927 2.415142622984987 3.161215575563141
Ga 2.7789794508282197 8.666954528562524 5.533157153422665
Ga 5.348083387593547 5.659685694418883 10.087746784838691
Ga 1.4719474760222282 4.915394149539548 2.609807997557137
Ga 3.159216354561465 7.216849892233969 3.2838439904912473
Ga 3.9498300207347583 4.053521127541604 1.5072825540133414
Ga 0.6282796588967964 6.867373571628096 4.7129147659544675
Ga 2.9277252992278453 6.415887623585405 0.6199012360905789
Ga 0.7033364767231851 7.45936647802734 1.8825669576221977
