49
Energy = -129.07279084 eV
Ga 3.3818624967147017 1.8522598954531948 8.603905641225973
Ga 6.021994580452398 1.3028536456650213 7.860494027273666
Ga 2.263252172379676 1.2674938118914523 6.087617666257816
Ga 4.673480098904771 0.22618520547059714 5.777773860777655
Ga 1.2023486054692385 3.5813736995766456 7.2733329992353015
Ga 5.582919171873665 3.587756605893889 9.217899373634076
Ga 3.1347523505182453 4.630462578834963 9.001538076656459
Ga 8.255134717815142 2.81809534495344 9.522017872873679
Ga 4.460438602110144 3.1428848713506423 6.194153266727982
Ga 8.672946709945286 1.235545656577184 7.02744506204559
Ga 4.050272472643073 1.609942624990526 3.583987382298811
Ga 7.083430365250345 1.0051793585465878 4.815682312865111
Ga 7.178900172958803 3.666092638734009 6.713614612730673
Ga 3.2594635649914427 5.453441512022334 6.133536803594221
Ga 3.286036657673742 7.224270798152778 8.508725115724639
Ga 1.640409978782848 3.1370676695956585 4.263426657565008
Ga 8.034622702644754 5.587148447167512 8.75111396335325
Ga 5.619102995949769 5.760214383238393 7.2541859277862875
Ga 4.975990986408327 2.647939312411334 1.2918451638185242
Ga 10.062954220836948 3.74623773496647 7.4711449614889425
Ga 0.6193770624127896 5.478152711546707 5.294998514619635
Ga 2.3770946115206115 3.2044950450716576 1.6879860101898523
Ga 6.266784737626734 3.6058465897645715 4.062218538958821
Ga 7.401237407541531 1.8876227481157957 2.266918829153263
Ga 9.12873321177363 3.148856369737031 4.784313489729066
Ga 5.545084926065083 6.258449880381028 10.000853122341054
Ga 1.3617652324102107 5.51640043951345 2.496952966987196
Ga 3.9836986760926854 4.680838031298484 3.439199814171414
Ga 0.3432904878589145 7.771531309700114 3.648663231775537
Ga 3.8019031334658524 5.215301373277265 0.3160575870253719
Ga 9.156265329398943 5.8086320498545305 6.008783073210762
Ga 1.3807382368782521 7.72882119760569 6.552417762213299
Ga 5.480696996481181 7.525249238176622 5.381694118124734
Ga 7.7744301631177315 7.846013704461776 7.195382668582595
Ga 5.510104296163463 8.745908676925106 8.206350770964525
Ga 8.90152613766092 4.157983227236266 2.282773792641263
Ga 7.1331803136155765 6.028745516452781 4.087858255175098
Ga 6.520326690830285 4.830035721821065 1.2465926153299702
Ga 3.009325277851124 7.203234023201926 4.248214851118233
Ga 9.828810865700618 6.373114681071694 3.426051906918215
Ga 2.6901391484604305 8.10234999715693 1.6540402422281448
Ga 5.1377634479756 6.964182530789644 2.2445695366355416
Ga 1.6228705568365078 10.133022752401383 4.524765608630465
Ga 8.804302363895676 8.458959915099033 4.782346041025224
Ga 3.6164164367786364 9.389061355414874 6.362059052025509
Ga 6.693770115963721 9.016985775002112 3.0438242656382775
Ga 6.461963284747021 10.12174005878979 5.815683478305008
Ga 8.045790566422585 7.20807469015799 1.5394420012313306
Ga 4.169019069571829 9.65586135330197 3.568105140395983
