41
Energy = -107.25832674 eV
Ga 7.1930940712669145 4.6664110313914 0.8109123451905321
Ga 2.009836090276703 2.919989470563306 0.9742414262828472
Ga 4.408366625791477 4.5067231446159015 0.8876812162579362
Ga 1.7658808659122092 5.6326699104291 0.9099142713118181
Ga 5.787007455504738 6.428177703285617 2.407247427408563
Ga 6.28830039562476 1.9504476890579756 0.9021014112262392
Ga 8.381690797404136 5.207807667035165 3.2364114307623946
Ga 3.3517682768400663 7.605599802641018 1.8579931919688497
Ga 0.21835696294196955 4.363401418136242 2.939524038183797
Ga 4.066989248489401 1.9356041044169645 2.4606943668097467
Ga 6.948402530408909 7.208207526041255 4.6688021098910095
Ga 1.298768882279623 6.678315473228353 3.7117357552304595
Ga 6.372352279928219 9.623801820919365 5.857159757263357
Ga 3.2585638240064903 4.6760635418800565 3.475134331380797
Ga 5.996031191696069 3.8318205016678877 3.2254654768815185
Ga 6.380051189817473 1.1388968509466983 3.818640640153818
Ga 1.7710103345302985 2.38203594442695 3.922344747852181
Ga 8.638613877881523 2.4996839214903983 2.585553158288129
Ga 5.231474038379759 9.207460577514821 3.259933404931245
Ga 2.2840763213623725 9.180659068061582 4.130782214388566
Ga 7.867834710861907 7.8123942374546855 7.219567156041949
Ga 8.117667888225755 2.9020571791518224 5.275945166085548
Ga 9.241223249245506 5.729011820562139 5.699545404760776
Ga 3.8772635061398417 5.104091709241623 6.294894802183892
Ga 5.146841278626802 2.916960396805509 5.482564281188423
Ga 4.150474597990343 7.00937510707349 4.579085628158929
Ga 6.559745501169549 5.0854220003555906 6.392509463451891
Ga 3.745935834284574 0.5753102929556043 4.985461750647227
Ga 2.5958971159491027 2.72458175047822 6.503344021593891
Ga 0.7210926955869279 4.578780470926992 5.628204403301692
Ga 4.512891908440809 1.0170324495851484 7.527612622423136
Ga 3.803665112125159 9.14372639319917 6.349303932895127
Ga 6.477478518410931 2.7722561347765815 8.09601363609727
Ga 9.936490668119555 6.390047804749207 8.254631963109986
Ga 1.9944346265945898 7.055080430075432 6.411391729480208
Ga 8.810635610994682 3.8355259676062925 7.718656901129312
Ga 5.19583224119218 7.288044158037242 7.668495354266341
Ga 4.894846315090964 4.94887047096674 9.052365425212528
Ga 3.4420160414075127 2.762677720867193 9.35626533332365
Ga 1.7618990991640044 4.828908088951186 8.149958907366369
Ga 7.370889985966352 5.751760014360444 9.18760116154882
