45
Energy = -118.03952151 eV
Ga 8.70087036494703 4.590700555283949 2.905122729652018
Ga 7.168677156511754 3.013521559370072 1.1569597994164798
Ga 7.4850971262257735 3.598609706506245 6.16883756985612
Ga 1.628899399369754 9.224037511030236 0.9883220891637128
Ga 6.1637910155115145 1.088585028900554 5.894377894974625
Ga 0.9132427714460872 3.028901955100976 4.863195456039015
Ga 2.796520054522048 8.149012645166298 3.19734909376188
Ga 9.281496586267451 7.336875644804612 3.5895245794147264
Ga 1.8596612105628811 5.646327566672953 7.210646531366873
Ga 6.051236901384414 5.540195426840912 0.6121483362036582
Ga 3.6885012376674906 2.2084368393564415 5.256183365835521
Ga 8.946934461892162 5.380462773776985 5.794525070533253
Ga 4.662610765362871 0.7916749186147364 0.2751707006973499
Ga 3.9801901137709055 4.766329837295422 5.506465516443911
Ga 6.541633265661379 8.487406420945511 3.9169274136369965
Ga 1.4210015532167342 0.5335628306360217 6.1329497928173735
Ga 5.669175183732437 8.179601112617686 3.132344844454917
Ga 6.473914640294018 6.127414788902457 5.080942664002706
Ga 3.0062970969944747 8.268506041755206 8.035201239967469
Ga 5.094306208728065 3.302553995906338 7.638514514585838
Ga 4.65125106107937 5.9879962493651 7.753734448121612
Ga 9.353947119464046 1.9302932093674794 1.8000498619442085
Ga 4.421601426751429 3.3110125919598716 1.6018616975701363
Ga 4.407610697999856 7.8435969121699465 5.618238458089378
Ga 2.25594994395609 2.339867097291788 9.331040705605469
Ga 5.149318183972056 1.3150489230862783 3.1458925473686112
Ga 7.228088068867002 0.28514433145718826 1.4911903748445807
Ga 1.3891063810141688 6.524963123608641 1.4103455136821748
Ga 2.419389623209914 1.4012017719152516 3.082404195943442
Ga 0.3113149717510196 4.341611711467408 0.053576024090214454
Ga 1.4675802976318737 7.9119276832666525 5.688951861563551
Ga 5.130436854673351 3.167059347840396 8.427026766890457
Ga 7.993422891138443 1.7675826746454602 3.8503093234123322
Ga 1.978566290283696 3.881056993250851 2.2777479025420666
Ga 8.464094066206409 4.625066009322013 3.5687570015455377
Ga 3.971184348490126 0.6951980166368013 7.632454591317488
Ga 3.953830342974661 8.811374820654631 5.167977107147618
Ga 4.082889070608857 7.571821602153987 0.7154962748012427
Ga 1.6108730653469354 8.268506041755206 3.7140222719471003
Ga 5.8272966277257705 3.702045799700762 3.907031288812233
Ga 1.8528794053893962 5.570017157454626 4.264835397660518
Ga 3.1664814059806488 5.005440611535228 9.192459983844051
Ga 4.09335853732792 8.355336465581324 2.2079508901482647
Ga 2.213218659807345 3.013468438893244 7.531694942400585
Ga 4.1971583680947395 5.677596083967588 2.8921001856786175
