47
Energy = -123.4072009 eV
Ga 3.617380088730604 9.512044914484242 5.803049756362022
Ga 9.160457010528274 1.953814541537353 5.587304362347245
Ga 9.18232871082985 2.845258769780268 3.0780739818541085
Ga 6.770247863249681 3.0075596473642707 4.717849701557799
Ga 4.683519002435135 4.730542793178406 4.045874681884318
Ga 6.954940085374511 10.968090816213067 6.676396531437187
Ga 4.520342734843504 5.08179174058224 8.846052970767932
Ga 2.9861300340362176 7.035527590212001 1.9427674352221713
Ga 1.6379822224467846 5.6036915007999095 8.455192927949355
Ga 7.040134157485181 1.550694496305216 7.414229826310339
Ga 5.68912336847864 8.60977872214666 1.5343235509871584
Ga 6.604694307264372 5.545392465536748 6.159353893284924
Ga 6.797069739432955 3.3890845596081043 1.6392947723571494
Ga 7.169321486773867 4.1073404515873655 8.443279348244468
Ga 0.4054805551236605 3.2754422924565123 5.715851036271856
Ga 5.050096316840785 9.601768661361714 8.090224113141275
Ga 8.957343676321353 9.760511592487635 5.078419520080045
Ga 3.879088829347243 6.8296297295975075 6.494654606071163
Ga 5.337510149560887 2.4541029680564765 9.689436452410405
Ga 2.6496442158507665 3.032600772829759 8.373686346955564
Ga 7.641496032853687 7.9974041201179356 3.373628219177893
Ga 9.390292998387837 4.376270050516024 6.5613121345363075
Ga 1.9383831050028915 7.877600094864044 4.293241776642542
Ga 6.401040311643944 8.216854930423457 6.004644413439874
Ga 4.575860533746194 2.0409102703719735 2.7131304256699367
Ga 4.391300460483826 0.47253228365335803 7.962205604134527
Ga 4.983348437723013 3.1967432016450665 6.734865592837396
Ga 3.9699744858600585 4.343620160118799 1.3001085945389743
Ga 2.841006917268317 4.45927158659025 5.96377196994358
Ga 6.223396855904988 7.097333375461143 8.573773586767075
Ga 5.039558898458211 0.8765422889420598 5.105306575809653
Ga 3.377282095608255 7.710056134798194 9.11249515176614
Ga 6.231824904239955 5.949641610491298 2.1592729015548873
Ga 2.098142802882365 2.288245320170839 3.5472985939106367
Ga 8.330869871348357 8.788081226718887 7.9521496720864855
Ga 5.911503564047691 10.151530752716665 4.152553384464317
Ga 8.446299381480587 5.271779506000426 3.8658870879585163
Ga 4.650445625670768 6.5931009378629435 11.035807596676195
Ga 8.960078433399968 7.059791802741836 5.799203475378242
Ga 4.782054616947342 7.433780836498042 4.016883216400763
Ga 3.397937544317723 9.73440020427005 2.7432255261104075
Ga 2.6124116028575717 1.5485498454105144 6.096314355819175
Ga 1.8993345160367472 4.990075848382756 3.450699522245021
Ga 7.591515964335719 10.968090816213067 5.359470945072781
Ga 7.091825756838028 0.8690759109604923 2.782893630607378
Ga 8.954695380444008 6.159526343931807 8.559347098276726
Ga 0.700887086211049 6.21334371031738 5.997489311961316
