48
Energy = -126.23546535 eV
Ga 5.803900709906373 10.194409254449564 3.6816948751590486
Ga 4.657659408928266 8.0390185110351 2.3565798630297703
Ga 1.3084467594486704 8.64614297352977 6.273262564635834
Ga 3.576757886188627 8.912930769474107 4.822320830197112
Ga 2.9040546120411603 6.496342763367241 1.1015439202044706
Ga 3.501024618931324 9.111272084409235 7.688767887699483
Ga 1.3600119023024022 7.37638775010526 3.717763223797996
Ga 7.582977033807018 8.879163941748502 2.088560703321215
Ga 8.60444200788253 9.172200362989916 4.736137514829622
Ga 6.038239370469827 9.762389192332785 6.2770113668154845
Ga 10.301311192605228 6.3393484232542985 6.597803445791836
Ga 6.63612086498074 6.550331906758684 1.0424465415715691
Ga 6.09941154467847 7.389503858743999 4.691321738126621
Ga 1.7830776234672692 6.612546245583992 8.611442034054354
Ga 1.2899545760022963 4.661323051539363 2.335332909305034
Ga 3.175109800197978 6.509712148616071 6.243752568239544
Ga 3.8316806908838297 7.748614688900121 10.096027899897125
Ga 3.695319447094447 5.724388796995816 3.753600407464517
Ga 7.8724979274163625 4.168917584361048 1.5242934345261463
Ga 1.3580547178734286 4.729442061792358 5.012103393804894
Ga 8.36776255294397 6.53889287330017 3.2437962966585716
Ga 4.741530807876853 4.5103792312316155 1.0080700390145205
Ga 8.333215533736738 8.744592300785591 7.561138572119529
Ga 5.838872981134397 9.459070252018696 8.99523045427899
Ga 5.775290587975975 7.109421048154998 7.384402144029429
Ga 3.1620482804299326 2.7707055381366725 2.5747937543578656
Ga 6.093455863353984 4.8261606136190505 3.7133483041751054
Ga 8.107121827762395 8.463546088737912 10.284088410103502
Ga 8.473890121039933 6.509327488082337 5.96924798541518
Ga 5.897383538864068 2.449572942347951 2.2073546593773217
Ga 2.1373898538329614 4.088636941554711 7.465632092655309
Ga 8.832210708806732 4.212315404018066 4.5574869660230455
Ga 6.142751398913371 4.585297856924088 6.599228931117595
Ga 4.250809488335182 5.260867356571796 8.68684472583172
Ga 8.496211178658346 6.158126338516931 8.757813703858345
Ga 6.182894158846914 6.403371571207877 10.246890212438219
Ga 3.9360315434760818 3.3456523715291184 5.195991767646351
Ga 8.925442073574928 1.970109336020566 2.8076022726715357
Ga 6.706132169377603 2.345335594529136 4.926498058058087
Ga 4.339340347567266 0.8029695977131162 3.938094413895137
Ga 8.723360185387808 3.984928387122903 7.335744274499836
Ga 6.593988657817171 3.7806795340014707 9.459339889927348
Ga 4.491746231259738 2.6458756578533675 7.787118908361572
Ga 6.919301158337688 0.10849288146075788 3.0505624793861976
Ga 9.594364112079251 1.797600298707951 5.5513523294477345
Ga 7.2464100001594804 1.8111699618655102 7.706766643929978
Ga 4.9634020354933766 0.3302831159108899 6.515111873096315
Ga 7.5797661142120605 10.194409254449564 5.686529452049138
