44
Energy = -115.61749616 eV
Ga 3.2915095545181963 0.1409101801172016 5.277050869294477
Ga 1.6068243761318326 2.533183410402257 5.424486044650216
Ga 2.2807101368148515 3.5286295537832832 9.268849644094905
Ga 4.120884456056984 9.412042714832404 2.542585424742729
Ga 1.2922690230119152 4.63318929370621 6.998572157391863
Ga 3.120577008558257 1.6175147816910278 7.5653775727584724
Ga 2.2660177885104593 6.591428859219662 8.823963604848366
Ga 4.402292256531555 5.203679757821987 9.998585240008829
Ga 2.250373812990001 7.03728141953326 6.072348509461216
Ga 6.245016105828374 0.27007666166459726 4.39996787476157
Ga 2.320861085709411 6.87398851427337 3.3319373167962127
Ga 5.174830390141234 2.426467631340993 9.48138121262245
Ga 5.58388136652739 0.555390031861036 7.073943023052245
Ga 2.8629131799531815 2.44734365095411 2.982414733980124
Ga 4.746940426533409 2.516642270248978 5.146189548618419
Ga 4.1250724825952565 4.327468239622946 7.319207850939977
Ga 4.746433222895746 6.864510519167094 7.18255183023547
Ga 5.681317933575516 2.263241588862975 2.4589478203885573
Ga 5.158012626466276 7.880598456713119 9.800888006400898
Ga 3.2426949883362264 9.167909732630212 7.885201238812695
Ga 6.657134615072714 3.000219741972656 7.123305092148659
Ga 3.3374621086110303 4.732193158862858 4.768115658414118
Ga 7.913029921694589 2.374189233166717 4.550269338913926
Ga 6.31470848464378 4.615505724197239 4.382340462753027
Ga 4.073701518908412 4.662242626734823 1.9829627328503785
Ga 3.5528118550235956 9.196523776311436 5.024983373964009
Ga 6.727983182097235 5.43676239365029 8.45243151540668
Ga 5.750702218464578 9.412042714832406 6.720407501086738
Ga 5.005984537260524 6.842473041411015 3.9009703829098097
Ga 7.220667125362367 4.258003976067952 1.8168622413604023
Ga 4.249008879979131 9.135952352097753 2.5101868647079453
Ga 3.315641940646616 7.184483539878517 0.7801314691195748
Ga 9.31933006258529 4.44437037904483 3.4831179679098017
Ga 7.484400384551695 8.230566603809969 8.39876984506176
Ga 7.049495096789581 6.8063879592112215 5.8511170284189875
Ga 5.927659118351601 6.499282084939662 1.0528959871893668
Ga 8.70820848519876 4.570784122619466 6.343398348408238
Ga 6.505959157202566 9.224413848269949 4.142710426395174
Ga 8.547600295248847 9.235619356290124 5.98032000375541
Ga 7.724578797778558 6.801687831638093 2.9380612161267354
Ga 6.822527577407969 9.061471275932602 1.302226443491819
Ga 9.808326874819821 6.83834053608657 4.595385472607482
Ga 9.714465097919701 6.932327786404343 7.336640905316753
Ga 9.17833746467748 9.225098114450676 3.1825546668162166
