44
Energy = -115.35591996 eV
Ga 10.46280985584725 5.514566307442513 4.5381660774096275
Ga 9.959350256270222 3.948076597414166 2.115239699962335
Ga 8.450526305455515 6.41282398413752 2.5412100840103324
Ga 9.854988535007184 2.3792757373425735 4.696475482705468
Ga 8.199429523996702 6.813570357626413 5.410077077275099
Ga 8.942014024027909 4.294078339628025 6.657368507258518
Ga 7.122389458240355 8.683265732957762 3.387640977244036
Ga 7.3568167888651885 3.9897592820823604 1.2939416903794005
Ga 7.805949582500578 4.187844967632555 4.040044583686777
Ga 5.985329138464233 6.36119169136119 1.2652184510686648
Ga 7.71312812649382 1.5952150872588775 2.908454814003223
Ga 6.661373917201735 5.9151845324785315 7.43118809783708
Ga 7.351277236991425 2.1132144890171647 5.798025783622751
Ga 5.881058947552789 6.009968995572614 4.056908541404196
Ga 4.594350435774294 8.29712009716903 2.3124348365003566
Ga 6.838081465275829 3.257594962132744 8.183550741388322
Ga 5.972615666921139 8.247012687309166 5.962916001098652
Ga 5.701719480080086 1.7639848795116007 0.9961280280960708
Ga 5.200840717452393 3.2336900054756295 3.3657460799778427
Ga 4.646457310279622 4.160530898479694 0.4912485043898114
Ga 5.128100846262799 3.972219449386222 6.068853090513736
Ga 5.803893675124523 0.29702968867875973 4.5229290009710175
Ga 3.2727109333717723 5.679774622162164 2.444082389624906
Ga 5.048378684030107 1.31437871824552 7.033023329743964
Ga 5.38170282954595 7.7910402099385925 8.968345791541534
Ga 4.528416085730324 5.032092313548706 9.053729926206312
Ga 3.6782106514217383 7.332402968140014 4.684406333936186
Ga 4.373095029334917 10.159870557711203 4.469477852603383
Ga 2.6289117908099127 2.9328192247054843 1.9263889207487892
Ga 3.8817312420139096 0.6436320396182252 2.6591090413537195
Ga 2.5577619148076076 4.055852031813442 4.666037052416206
Ga 3.0787265394161647 1.3994217405573208 5.088726920455033
Ga 1.9421717264673581 8.322327531660484 2.5256163589399803
Ga 3.2826474968444046 5.874348795043391 6.755920339431234
Ga 3.61396274493924 8.93577245922128 7.131028080389178
Ga 4.567852292692699 2.389709506581716 9.574236463506718
Ga 2.850558451472869 3.0664157126371268 7.486973459242007
Ga 1.1026647199511297 6.399678919946356 4.196548217417893
Ga 2.6243653999100225 7.229236204982095 9.201620088851527
Ga 1.6654032238022658 9.2571773004394 5.14341192626951
Ga 0.6325621071860704 2.2672786994725462 5.8596369020944366
Ga 0.2533254395080928 4.885089031152248 6.202379044130875
Ga 1.252613742315383 4.925399379834522 8.72146552843875
Ga 0.9644172166479248 7.4070664381452245 6.930641489067157
