46
Energy = -121.06357616 eV
Ga 5.830479834205931 1.13718515346261 5.522465246905293
Ga 3.1292180825619003 6.062628176800621 5.343341344448407
Ga 2.7247418400319847 4.181317759182445 9.28134657036568
Ga 8.263033282523505 3.631045178640085 2.3941313278561616
Ga 8.732931972658138 7.808578840697888 4.416785394186681
Ga 3.1376904908299568 0.47662310664146323 5.647989423615762
Ga 3.4732319966364034 8.736627705476598 1.4560622023066532
Ga 1.7281678686406279 4.201115673007386 3.869754560155054
Ga 6.71906212691006 1.511160379321194 2.881346128818634
Ga 3.8132030516439475 8.911449460641295 4.238962232178046
Ga 4.04830176630605 2.7079974876247523 3.753323566970243
Ga 6.1437927784430135 4.018016814817628 4.526906331782648
Ga 6.896367511107911 5.681042773487021 9.221882808058018
Ga 8.008365273610302 6.405676846480851 2.331109569198622
Ga 8.685511921679627 7.876278947989717 9.231545517433243
Ga 4.462559127053121 6.197423277154784 3.111323517420872
Ga 5.374380183262292 3.4833608170323274 9.022208411521234
Ga 6.235814309959607 9.411848647942058 5.359532939270717
Ga 5.0247240516338385 5.768461558258927 7.298888510846512
Ga 1.1264054995627695 4.27208706900398 6.676748736441354
Ga 5.521251042024968 4.151755283825485 1.6915140766610524
Ga 7.62488082429737 4.941604468598595 0.03634510878663912
Ga 6.289125529867058 8.23972208199539 8.070144376114875
Ga 8.65199856002 9.242320643068387 6.763285288245035
Ga 8.415393814181135 2.198641160652112 5.158104074705321
Ga 6.257877081001463 6.659375234661098 4.989156280232363
Ga 3.05062721220584 6.141485633598632 0.6372021850571425
Ga 4.429651608350062 1.0941418674488008 8.04902143072309
Ga 8.534900901491387 6.397298480341141 6.9358837531748705
Ga 3.995190178196914 8.357866806948003 6.983494116088891
Ga 1.9387483044580325 1.33294226035186 2.64792472316881
Ga 2.7485634689796417 3.6491867176432233 1.3231072682105958
Ga 8.804621909461439 5.023734284346575 4.698217738319549
Ga 0.05538803284731819 6.249054790104043 5.26539993156804
Ga 1.86192832212329 1.9206765248098787 7.7605259492483905
Ga 1.6133097560526437 8.444308187572974 5.7375526133964705
Ga 7.288080645470919 3.9130301333768363 7.022314549654793
Ga 6.18619773239955 8.536555854801492 2.74314719993111
Ga 0.886408310064658 1.9129750135810697 5.129003572257346
Ga 3.91024835346683 3.440840240298595 6.329662030778008
Ga 4.391065803935831 9.411848647942056 3.3644582159090213
Ga 2.1493215040449964 6.545474121338648 7.861912264807277
Ga 5.733986846018036 6.841343067247382 0.5920583610997538
Ga 7.169678159319172 1.3338494173911806 7.9334669338393535
Ga 1.739434217154838 6.922152913561115 3.03686213294675
Ga 4.570889555597699 1.461465612691981 1.0313321275866738
