46
Energy = -120.21097565 eV
Ga 2.3672521227545418 0.7371781879614259 5.1335406066300875
Ga 4.912594368232938 5.231367747452991 4.486420218391804
Ga 7.47833097472614 6.25068557787003 4.3032851454612775
Ga 5.333109329893786 9.471191912213552 2.052635732617173
Ga 2.3975167309290013 4.627705394910871 4.6624621204333
Ga 8.081583222125602 5.423948158599074 1.3704170008795942
Ga 4.155938188348159 4.268559343065906 7.0432192122451225
Ga 0.3723438315509339 6.654217515810407 4.09548789794424
Ga 4.366181421231833 3.4751632391542033 2.354843975927018
Ga 10.169540185248152 1.1771929635398835 4.977646696426222
Ga 2.922126755499297 8.903281657592313 3.6185004323022985
Ga 10.546975643306357 2.767426569468849 0.9997488562406363
Ga 5.224483035468259 8.046167598087711 4.2226866558625
Ga 0.7585075439058152 10.470467191691785 2.417153150098956
Ga 5.000274167941862 8.900113118218881 1.5329650477645793
Ga 6.251665605264463 3.723176350651003 0.2616602991688933
Ga 5.404019864644437 6.045487345603531 2.0517793833615583
Ga 2.9610728231219396 7.026291572588608 5.889308292022233
Ga 0.49519250804187404 9.153829592345184 5.32146743807607
Ga 1.802107347015173 4.836545836797796 2.0206842864646717
Ga 5.157535609811655 1.1706030441648496 0.1544931925173547
Ga 6.539545457648801 1.0670035423905015 3.164782415205981
Ga 2.8308977427065383 7.322024533569933 3.118607171141424
Ga 7.544686385999356 8.009022731803972 1.986469932214755
Ga 3.13889339679681 7.451755161468621 0.33890671692594115
Ga 7.325467989602823 3.5652441543211957 3.099683969793679
Ga 5.068110052285085 10.130636303178282 4.981075436503477
Ga 1.6263751785970313 2.453044360864501 3.195493654423811
Ga 6.53772644897667 1.505070058248876 6.5698926155207555
Ga 5.420746269934595 9.981248521593358 7.768127972575575
Ga 0.6856878314450168 5.644147898759804 6.707168378467407
Ga 10.185271491990623 3.837415589353222 4.354776272443936
Ga 6.043203644304304 6.48958922029498 9.974314108761735
Ga 0.5909369325601528 7.220265825615242 1.1415768070269814
Ga 1.117766553260407 0.5802588393693425 7.686246154167502
Ga 5.772821761064192 6.6961019301526585 6.755823576099243
Ga 0.9568033339334092 4.945564963986892 9.867113659319513
Ga 3.7354587961713963 4.895625043350615 10.481133366806633
Ga 2.6332927273801947 2.366054461687892 0.2876562696891302
Ga 3.754813078063007 1.589723791033126 7.438631473936059
Ga 9.549823385548278 5.190367317183588 1.8992778364936111
Ga 4.558363780900222 2.45584225843326 4.840824927079987
Ga 3.0369718537225388 8.900113118218881 6.596864660540836
Ga 3.614918370747013 0.8374058958443663 2.6041592957786657
Ga 7.088011859791717 4.010514106545008 5.747937123912084
Ga 1.3270567340514363 2.9972567351496044 6.711754919655997
