40
Energy = -104.70844126 eV
Ga 8.974468008869264 3.3438900725914698 1.9851998281253667
Ga 9.817012284788488 2.1215677395534107 4.2604672986192575
Ga 6.390047700887252 3.617510636743474 1.3544573344469621
Ga 6.092347353944626 6.1735242793174585 0.3192075160660572
Ga 8.319196595955717 6.185976591104666 2.192858447612929
Ga 8.914783088280599 4.766760652971398 4.4699295560379175
Ga 7.116264015398729 2.3473866049328764 3.964967485559485
Ga 4.412604814045909 2.47201788181877 2.950432798976913
Ga 9.671929935206569 3.3446020421222693 6.736990939393109
Ga 4.157585148906553 5.10763073226164 2.096604986137432
Ga 6.132823736220003 7.558411729395932 2.8962978748798145
Ga 7.5873776563421655 1.4101733183800675 6.919073135790662
Ga 6.243627673064293 4.989378526753588 3.8409126569834706
Ga 5.1745649709628365 1.462593319860301 5.621174294728004
Ga 8.238273164834505 7.38781339334355 4.7139621430440775
Ga 2.5893795905641497 1.757209194541266 4.758129899006785
Ga 2.2889008351169324 4.286620713726982 3.7024269915725614
Ga 3.884617705105928 7.682157262179855 1.2414246103601414
Ga 8.823039970069894 5.878152663702736 7.132824611252138
Ga 6.794953636394933 3.9733342540299708 6.222630517193773
Ga 4.019677929522126 3.9816753943206082 5.837127320213682
Ga 0.6211737213544314 3.337787482362523 5.763194535512272
Ga 4.060683479938736 9.286739906864351 3.4035682113316574
Ga 9.817012284788488 5.537761821864265 4.290492257934661
Ga 6.005470881902992 6.3862119291641095 6.770282693263795
Ga 7.799167540352415 8.509203041045238 7.198198889601697
Ga 4.147147186767376 6.526188636827495 4.633723185071021
Ga 1.8616268307046184 7.141212719606645 3.150737110302266
Ga 3.062446128479193 0.9606071601317503 7.371417995476968
Ga 5.8285425586206285 8.776337175902002 5.420719995588118
Ga 5.177227649830044 2.690824794668597 8.159930871718492
Ga 6.551125361234648 4.860032852448542 9.003203603955985
Ga 2.289686886576659 8.955901420157558 5.335456025539073
Ga 8.106115895945184 7.063682824086616 9.60269563544211
Ga 2.0665210632177895 5.911248762381808 6.395225521275561
Ga 3.838830199075221 5.539965279749874 8.604512298889395
Ga 5.45594968717691 7.680803410464892 9.176533273762265
Ga 9.885467351667788 7.764495991227144 5.693802993367509
Ga 3.7597646236760722 8.160007213725388 7.272343059396113
Ga 2.304308754528703 3.5174999192884018 7.909337808000025
