48
Energy = -126.87663315 eV
Ga 4.0925163415371495 1.9070401998121644 9.53366393992134
Ga 5.949427664561109 3.5681283825436747 10.471678235958453
Ga 6.3035847326629275 0.7042746752464769 0.28738217822604956
Ga 3.6309810433028886 5.008970007308703 9.834420399519217
Ga 1.714098484121111 3.0755893419572278 9.315693938316892
Ga 1.0777955717899834 1.1466173172953198 0.544901106025206
Ga 3.6583294999652645 0.20726529480356212 1.1447347955446223
Ga 8.05774079423655 2.4923853670187586 1.5097613949647395
Ga 2.8529148010783323 7.172799216248892 1.0908456464274279
Ga 8.977632670699997 5.400720511043051 1.7586559468434853
Ga 5.5476578048178835 6.781090000972861 0.09149312941251672
Ga 5.069769729293716 2.279336425048101 2.3765616758940866
Ga 2.235148428526775 1.5328666361196923 3.178297634774014
Ga 0.9335115472513454 5.147996682193998 0.33557046357850717
Ga 2.8327867484513924 3.38942112513007 1.3939008724603124
Ga 5.9284069754617565 10.065893624691197 2.8201758760561475
Ga 7.471889851180906 5.198456550238328 1.3749349198860479
Ga 8.05774079423655 2.7723108715218303 3.2017935817090044
Ga 1.8763715229465365 9.306484553413611 2.5690039776882707
Ga 10.027549466363073 0.4843400602477717 2.6804635383556623
Ga 0.5849000617852237 6.7982698865973115 2.6936702532706156
Ga 4.624961638881567 5.172062718540846 2.3615009791882176
Ga 0.020271869087095353 3.2309310364573864 2.098121700608891
Ga 5.098161903572975 8.007576944061073 2.6368785459835484
Ga 6.926751450703345 3.8250746555187907 3.684817312912719
Ga 7.32241828470604 6.664904901895197 3.604264724225004
Ga 1.7998166821778498 4.551676885477118 3.87437591582754
Ga 3.8624910279811497 10.006132607652656 4.4626837658885945
Ga 3.0177706133843762 7.002490519926855 3.9761947513469686
Ga 9.447785627920883 4.8439039021487815 4.6060746301522375
Ga 0.5099380005730507 6.90705009957276 5.4918733066210565
Ga 5.405671419477501 1.6024946116077348 5.003250528569473
Ga 4.588511393778187 4.62213129930864 4.972427392391058
Ga 10.489813776378465 2.313198031374083 4.783586636898542
Ga 2.913639959410297 2.6422371833195117 5.40649396208008
Ga 1.121661256567037 10.35732185885031 5.123262291283389
Ga 7.884395869494118 1.1635119040983342 3.850936082481939
Ga 7.281922242534943 5.287612280582774 5.879890627707369
Ga 5.1979788443636945 7.503534023707774 5.565061472391858
Ga 0.6325337921111628 4.2532145586083505 6.635356198346392
Ga 3.6929637690054644 0.5049055861068921 7.086818251549539
Ga 2.86660521527669 6.2166845426801505 6.668574294378738
Ga 2.9182324840379845 3.6340347007792064 8.01406989226292
Ga 5.45772486518115 2.5343962322137976 7.624162686976657
Ga 1.1291212644803845 1.5931270154729233 7.296099390209629
Ga 7.58605275193419 4.197432931454153 8.433864506089158
Ga 7.820484056327391 2.5819433977779864 6.074560882019883
Ga 5.1721514554848955 5.43893240465046 7.6759693300721645
