40
Energy = -104.71481606 eV
Ga 5.348345553171366 10.735730688018755 4.226807500332441
Ga 2.4563674483279043 9.969259972169494 4.240012618443844
Ga 3.9297675488533477 10.187786065629616 6.633694326430788
Ga 4.170264506796011 9.082657409607819 2.2344796235895883
Ga 0.5419502574027362 7.7078224442033845 4.71403027518665
Ga 2.725320800533363 6.875850652956725 3.3196499602665432
Ga 6.8534695735314655 8.70470301210572 3.2352642092728825
Ga 2.550631999100236 7.698755907336406 6.545308470247341
Ga 6.704968211634813 9.436575837293372 6.184463532894921
Ga 4.754950120142524 7.873913214528701 4.911037081768691
Ga 4.846207083915706 8.28332070766035 8.25467396622886
Ga 1.106335810071964 5.111976152962067 5.475017473339762
Ga 5.173803991419501 6.684722654548297 1.7195530628864626
Ga 3.9129810668712235 5.425601683648934 5.4557645406877135
Ga 6.201213660872372 5.610474112985407 7.035200378454244
Ga 7.913053301031121 6.470384039046678 2.4348546241099256
Ga 7.632226152423871 7.822495093555775 8.005009755014735
Ga 3.9075889261731613 4.498035800251047 2.672733627630369
Ga 3.593023497971485 5.890042719002419 8.304694510826065
Ga 7.6800064703491655 7.131220117650941 5.232805237451542
Ga 6.346876839623159 4.944562478480584 4.172566918075599
Ga 6.479903615522329 4.203864883317797 1.3236060010066342
Ga 9.34251616294839 5.795160493768038 7.0632111650650105
Ga 6.05209045016987 6.289385681160614 9.886428183957516
Ga 2.594503740374642 2.973679917547024 4.464214038192187
Ga 9.388628277041196 4.4485918353891485 1.4999809035710463
Ga 9.48255456863332 5.150990789955745 4.369319984873961
Ga 8.985962212300823 6.5079610374536125 9.903746570877145
Ga 5.0067710938097925 2.9555484878534215 6.100079281654255
Ga 2.47713034218431 3.626593640179793 7.348910587042603
Ga 5.466355128251265 2.37642416186463 3.1775112734298836
Ga 7.913579416205933 3.575048370643349 6.102344589506063
Ga 8.150258611660405 2.9210165826543544 3.385314145184429
Ga 7.87900005469254 4.250918640348975 8.849500842856509
Ga 5.129736618443303 3.8156221777191255 9.018175294405978
Ga 4.024800765978435 0.705593717915045 4.544842925421093
Ga 7.322321609705753 1.0592577562862098 5.097177674693058
Ga 7.071271137111345 1.8617705402288545 8.066482137163803
Ga 3.8631505723680792 1.6175108415293578 8.459662020123059
Ga 5.368001273296272 0.21748342531049195 6.775870062862735
