43
Energy = -112.80052467 eV
Ga 9.118705976921168 4.992314698029805 2.352868675621884
Ga 8.929816272243833 7.586675200528195 1.5613776875799055
Ga 8.716297081016046 3.0876821397403913 0.1510899761788385
Ga 6.917077943069725 5.123015804603601 0.5998887876234613
Ga 7.766829722428813 9.320477342246795 3.4244962940096833
Ga 8.254734816644259 6.748851710123465 4.319417751117508
Ga 8.532425159654759 4.090344836091374 4.958157058372366
Ga 8.522637442594826 2.3066229608206146 2.835130462255751
Ga 7.686998495451227 8.931952872572396 6.25818682248659
Ga 6.20164031369056 4.754980158754819 3.4567267941554722
Ga 6.133997747776497 2.5381309901959814 1.262998535416721
Ga 6.243191356273833 7.254171223013275 2.098367236950737
Ga 4.354923969467023 5.165417704976454 1.1331833510307685
Ga 5.148062638886638 9.264540153243138 3.8336610320211957
Ga 8.058772446374666 6.120159421560104 6.956014690012471
Ga 5.640483310515979 6.886938197835724 5.15622334556542
Ga 8.589649518797975 1.4084326543399852 5.867431864830772
Ga 6.089846501948576 3.782744826814941 6.208345409324001
Ga 8.514987495689098 3.5931971854523614 7.615842583113004
Ga 6.163784102195342 2.06904775312304 4.130188775606811
Ga 5.95694159171931 7.534289461788269 7.894956813901987
Ga 5.027531301352292 9.902915682257765 6.455821240528208
Ga 6.957897468787315 1.8640784986923835 9.010427031142662
Ga 5.951015702289722 0.8966761639711662 6.5336556121805645
Ga 3.5180625978671554 7.23368351487736 2.774476374445191
Ga 3.8820318649068226 2.741814432463621 2.6109579357166983
Ga 3.635046921234629 4.953847838177853 4.480542061226364
Ga 3.0462918530346723 8.23310535463747 5.278050713815677
Ga 3.6756442878112687 1.7530971855191368 5.300607042989525
Ga 3.3356656571500527 8.35650066434987 8.104906082182033
Ga 4.528154537592277 6.4969236868360385 9.99714950445712
Ga 4.227196600632091 5.582041202698552 7.130860776535623
Ga 6.193826642989619 4.6345088624393345 9.009529430063406
Ga 1.7604870023309842 4.888224704913057 1.8740820074835438
Ga 4.3579437980663975 2.5291125148383573 8.038973749955089
Ga 1.2309539432778862 6.451482110333145 4.092351534887255
Ga 1.527234254699879 2.989914064100179 4.010418766604564
Ga 1.6104656288704629 6.589637534408471 6.848250305308288
Ga 2.2783731066273325 3.7500287607355656 6.50048118535635
Ga 1.5803596005973541 6.825145268711521 9.75599323129733
Ga 2.8646039613199745 4.286386663548818 9.266364308175046
Ga 9.587318945772505 4.645713227894771 5.477318758003602
Ga 0.3267527982243232 4.633777618259605 8.172831250987329
