48
Energy = -126.25766126 eV
Ga 3.235017587075922 1.6345538699661437 7.672539559218482
Ga 5.354547992165875 2.5257189762588657 9.323738201105767
Ga 2.5551995454920924 6.867579314409718 9.439412673603478
Ga 3.184979136931018 4.213832751879067 8.619044570623979
Ga 8.374194613114668 2.8871223116567335 8.427175156323104
Ga 0.9810241828078937 5.781191151296075 7.677529275204527
Ga 4.950485114174274 5.930014223526718 10.151466930871909
Ga 4.41162120659185 10.204414518985716 5.841186837743185
Ga 2.621180454457911 1.5776071708765065 4.47469302161337
Ga 1.447786010581047 3.2583653780377047 6.531466054717307
Ga 4.045502546909817 9.137959314856953 8.854758743924183
Ga 6.420518846967024 1.6725639659512495 6.756366807191099
Ga 4.253010465406056 3.5800351064214313 5.97243735738107
Ga 2.0650661221224023 8.524564037268641 7.017811432150428
Ga 7.146855206160317 4.404440854824245 10.419413347352048
Ga 4.2261912892446345 6.5225732632852536 7.270812314326154
Ga 10.04943746107452 7.6484488151989005 5.678634627484962
Ga 6.224577149808385 4.742876686123142 7.703374723251953
Ga 8.18400637571311 1.7430133640858212 3.263718355132993
Ga 8.567349277124412 6.123431421695691 8.85730087558893
Ga 5.510505569323312 1.8127102970802784 4.053141091403671
Ga 8.975682759218712 2.376234291475303 5.801581094100017
Ga 1.281782611124122 3.7644894739218153 3.622655653862607
Ga 9.702812999575094 4.829038743968567 5.488597431655609
Ga 2.3017972978732595 5.85916586294608 5.336183374680482
Ga 9.607071422905841 5.006271514462303 6.688350792385868
Ga 6.853625248436404 4.1587964608597945 5.164846688636066
Ga 0.3299342556327455 6.365080351786596 3.1315415176642696
Ga 4.047859489036789 3.956476443958917 3.2185889526267233
Ga 9.429263431675357 4.2555616464303725 3.9320943631206977
Ga 6.505109601143897 7.88770201136428 8.750542923326119
Ga 6.6906235070996125 3.8502759327965945 2.2601339567197742
Ga 4.8538591717527115 6.325632095738751 4.62565481392764
Ga 4.961116232320769 8.792582921237507 6.026065158132531
Ga 2.8467847674795066 6.300523787493964 2.469865952304713
Ga 2.1363496052116124 8.523355096231295 4.183975546115346
Ga 7.304285317228881 6.897995453315119 6.34295793693746
Ga 9.235037710473268 3.4432742208390854 1.2530486976310797
Ga 7.2470485347389335 6.284220232681046 3.4312116053844695
Ga 9.63885934504156 6.91845998518677 4.791126896367335
Ga 5.155728610274066 6.04204634657092 1.3564243117922448
Ga 4.529525354789203 8.584880738630508 3.1094037015331772
Ga 7.224721820407493 8.921331363577405 4.5483615144758645
Ga 9.653028117688871 6.1449350677414625 2.08366074695191
Ga 7.534439079124324 5.572233270404239 0.21049718213170604
Ga 6.760886691172691 8.335251082460092 1.7434766699258017
Ga 9.441069702885674 8.911931542772805 2.857819461108928
Ga 8.949964682616688 7.997902679899765 0.20603987663517648
