48
Energy = -126.08653476 eV
Ga 6.813074137874673 7.737978834567172 10.465260865771905
Ga 2.7359506332529957 3.9529991802488484 10.284733319232457
Ga 4.944391218721314 5.684111265116539 10.445879883466006
Ga 7.328674554585339 4.832969137971649 0.8648251661102023
Ga 8.77698652258107 7.052152981855847 1.7978951355159944
Ga 4.442071263852395 8.613964792666708 1.0124397681395676
Ga 2.936224561129082 6.360463689474215 1.674811388540089
Ga 5.486673967945175 2.797601818690313 0.14741242699955237
Ga 1.3691141431649874 4.217032326145415 2.0585503216448235
Ga 3.3103413054221766 2.1410372363020227 1.8854847278719704
Ga 8.292238787136926 2.6385872883220323 1.884972999128357
Ga 10.168979084739659 4.689731463843281 2.2695792917675868
Ga 4.123908918662496 6.302350092251491 4.365272645315993
Ga 5.192044362761584 4.032250983553549 2.7437167481521856
Ga 5.468356048521369 8.901564236046488 4.257102896100374
Ga 5.975468090191938 6.775764270908687 2.531579109890273
Ga 1.2093024966223087 6.476082930970826 3.7569666720047983
Ga 7.128173462288829 1.9002723619822763 4.101926218785621
Ga 1.698705778235141 1.2194812364178746 3.988611842801819
Ga 4.53872916341227 1.3315393790891348 4.094739025083299
Ga 9.65033037634351 3.157524805865961 4.47758361602436
Ga 2.9220353181560172 3.9086277540551713 4.310264948938747
Ga 2.843960906715661 8.864282818230274 3.251651363747512
Ga 7.625291318318374 4.896851587464282 3.7114430377775203
Ga 10.358422813150256 3.757959245547372 4.232309600854688
Ga 4.21130673993719 9.650422553826537 6.585248691789793
Ga 6.094526608992875 3.895228212962308 5.648691900503981
Ga 7.826666506131729 7.569329703932885 4.484500742097545
Ga 9.982895490874519 6.034065936051221 4.8763953054886
Ga 8.47454031342354 2.1561258435900683 6.657298339151707
Ga 6.162147481945954 0.6575473674606183 6.352013559094479
Ga 1.328931260929647 2.746549495339615 6.341230750983262
Ga 2.2931595711451442 7.944618356760704 5.788755925703321
Ga 3.1080697823862353 0.13139624712115955 6.303220936704381
Ga 5.793972192520018 7.100426877025116 6.383375032774568
Ga 3.274154676595449 5.316822535092823 6.8684727852003045
Ga 0.3789599226921732 5.613391246558878 6.181818703621483
Ga 4.078956157807059 2.6926718733392345 6.708983943725533
Ga 7.97868927122753 5.413794919445702 6.648018354124972
Ga 4.10357001140713 7.599142566951949 8.399299632648832
Ga 6.62397713078639 2.8494514091346215 8.497297102206518
Ga 5.70942158841226 5.400858367979935 8.536514327274817
Ga 4.798447673475066 0.6623793654404663 8.725718576981407
Ga 2.1089680651837264 1.519934664570121 8.622596906639918
Ga 1.1451864545673627 4.312178797067963 8.526440707667604
Ga 1.1988202808553623 7.131670129528167 8.255914529715396
Ga 3.8621959402239994 3.568163863937805 9.27209401400323
Ga 2.748807677502219 5.947554445006821 10.284733319232457
