45
Energy = -118.21070778 eV
Ga 2.9217267906065474 1.0843935349770206 5.042447760409377
Ga 3.7709730859938793 0.8772434281831744 2.3698226262665902
Ga 4.304070408620993 1.210423119290084 7.355841030917964
Ga 5.655823810052786 0.5001558258845291 4.684934887180245
Ga 2.1174163467954243 3.114951186046843 3.3410117521356204
Ga 3.8895488229739152 3.4647001488326348 1.149447713095003
Ga 5.790588358735771 2.7703991971575332 2.960440243533186
Ga 3.2246781496587342 5.324486162949159 10.459810341623633
Ga 1.9207986369382788 3.36254492518115 6.120225672207224
Ga 1.8435379577567892 5.5349659997453 1.85275966700177
Ga 4.167613254867484 5.103134724193285 3.5010254321410743
Ga 1.5330607473715194 5.590055577414023 4.545096861272136
Ga 4.6019714174132895 1.865595140530048 10.027863434668747
Ga 6.2274079377653 5.119017837618281 1.3920133952249614
Ga 6.138348825654554 6.754737604695405 3.760000276365689
Ga 7.59465999397858 2.551870917737491 4.982809701331793
Ga 6.109902018138937 3.3304051524403127 8.010339795058595
Ga 1.4088636942547437 5.734669988630996 7.332939890274383
Ga 4.727120856743326 3.2932185444729543 5.47495159140061
Ga 2.545043681085146 7.760025162433083 3.29808585003288
Ga 4.231991866780658 7.009299074959298 1.239315780688258
Ga 2.8286530401892827 10.312292245132639 4.21578279294096
Ga 7.026702249306891 0.7857969038381944 7.1282246484325755
Ga 8.843280759184909 7.209619647730033 2.7573473102177126
Ga 6.837153849432939 5.081076952633459 5.856963213125897
Ga 4.130995260148947 6.032856862611278 6.185696776488552
Ga 8.117910261961576 4.63931593521107 3.2975959060903666
Ga 4.949308222427377 9.399912039049985 2.569739974724273
Ga 3.45380785087247 6.332658991553373 9.272914998457384
Ga 7.394050944236147 9.207738698466281 4.022951807953364
Ga 1.445948412828615 8.109640351582234 8.64458534194091
Ga 3.3393992964391424 3.6909354894306596 8.291626835532288
Ga 8.787062125490317 2.883980855927777 7.615295046604494
Ga 10.85411775409778 5.5802304650942265 3.542135357909349
Ga 2.2589575086487708 8.242648669844051 6.034744037025981
Ga 6.878986640517086 7.9928622216759395 1.141118302528513
Ga 5.119822663399669 4.60209160297821 10.459810341623633
Ga 4.507924551095667 8.474596687074246 7.908682632987132
Ga 4.881136235946161 8.773193047303351 5.229235368652981
Ga 9.492597184620411 7.250783773084343 5.429900378944962
Ga 7.042228866099531 7.868105697570854 6.492415912748553
Ga 9.634635728126135 4.434845530196648 5.6442052370090785
Ga 8.757023953305318 6.082180546688555 7.780142356026358
Ga 7.835903660478316 4.495535466006171 9.795484605620683
Ga 6.048802012997495 6.189463393567471 8.37459825601191
