45
Energy = -117.39814087 eV
Ga 0.9998399317545273 9.37157783679111 4.2774926087432075
Ga 7.592030879232564 0.010973716480258154 4.79494602157736
Ga 3.173565314405486 9.246336503759347 5.6866361912579775
Ga 2.068198414409287 6.987927588418892 3.079574422776694
Ga 8.008739626539702 4.622387691982863 0.9951256065503165
Ga 5.152079990325254 9.03435590040498 3.9678370785528214
Ga 5.4809407855312315 9.569726260911768 7.0152857358825935
Ga 2.1920979348651133 3.7529762914222693 6.507270166605439
Ga 6.046576034820184 4.010035188318054 5.942045871292261
Ga 1.4759420505142382 6.418911688744449 5.870759697301926
Ga 3.869144172825094 8.012115731706942 4.906057736487741
Ga 4.46025408402984 2.3079666467051867 1.5668886735612901
Ga 9.154275055489062 4.440063904719539 5.448592376504236
Ga 8.0087396265397 2.69250406161247 3.9449196075441484
Ga 2.936985415577535 1.8922132187837941 4.433283633853968
Ga 4.887561390537643 6.972946806914858 2.204099766016231
Ga 9.36278930195395 5.901609610059098 3.099700700055994
Ga 3.1739499243028444 9.903095323835037 2.362779441472335
Ga 4.907028112102146 2.6894780766770894 8.684428306650755
Ga 6.244353153583497 6.432639442442507 4.75594434820567
Ga 3.7631233247069398 5.1578355804779275 4.542565721674519
Ga 5.1476399844588885 0.12817194512711438 9.970758109116245
Ga 4.1776305183851115 5.204090542222875 7.822375727079371
Ga 1.7557720520206928 0.8874887200126105 7.407602695348754
Ga 5.386049439301251 4.949030035108608 0.32654208066340557
Ga 2.8905656875693264 6.7030794027575 9.902401578852846
Ga 2.2056201889633376 0.6885684860237963 9.654931037920115
Ga 0.20906458399071037 0.2874371866020385 1.6707720082835054
Ga 1.4489570281871997 4.1802712282327255 3.8601233211983903
Ga 0.32580027499173664 1.9290071517130443 5.272513364308626
Ga 4.223668733393955 5.657306274413165 7.259115393108915
Ga 3.1740353068330585 4.711374560295144 1.8590328670650136
Ga 9.200825215141615 2.910918015809449 2.750973940458741
Ga 4.264226164184342 2.085392291315472 7.028298308418292
Ga 5.450137389327423 1.727654098739659 4.58747981251391
Ga 2.353630050001999 3.656897615892542 9.192891363886458
Ga 7.1260095547982045 2.604086777362837 0.5498396411419114
Ga 8.407293179053381 0.4874990530534446 3.8493479723191477
Ga 0.22019637265305117 7.820098220595665 1.2873537171334724
Ga 0.6724605309086052 5.224455843479109 0.5452890425637582
Ga 7.118954274301495 1.8338023253716214 7.074796564216072
Ga 5.911871888097846 4.207092359947541 2.9627828941318004
Ga 1.8308193871808491 2.49096586631621 1.8347180872420668
Ga 9.768319873387902 2.6240866595830985 9.838065045010048
Ga 6.658510769850594 0.4813257707593377 2.2705301556043613
