45
Energy = -117.79314009 eV
Ga 3.9368914480096064 10.16089035749284 0.40590030238858815
Ga 6.519671824727119 0.3070389081160642 1.8164559887674885
Ga 6.975271615730412 7.699235308839584 2.726777066228934
Ga 6.836510024090856 3.0754836258270943 3.2860014529046877
Ga 5.951892499879427 4.68927451369556 6.640818793644717
Ga 7.112236519454989 2.3429226119404434 6.271140442456788
Ga 0.3580118402616259 8.706958419954812 6.739588700091449
Ga 7.889059701740045 10.121877760738366 6.063735427726165
Ga 3.141011700052077 4.097015866339253 7.603023082086086
Ga 1.868542289608334 4.98586765975541 0.6451881553480099
Ga 3.561867810367404 8.702551245721445 6.517703328971729
Ga 8.110591972321643 5.457609168703994 4.520133528387096
Ga 1.8902496821780599 7.845359856658158 1.613499616587728
Ga 6.229960981906826 7.479586455020651 5.732101907444936
Ga 5.862631300908179 2.3297274320324997 0.15127274935226412
Ga 5.172697410506942 9.579003419741053 6.652374626980694
Ga 4.532007612167757 6.520150153024501 8.217661476567676
Ga 1.4848029898081505 0.24357588895335883 2.586919015336366
Ga 8.548067974530554 1.01344769952184 3.638182799029556
Ga 6.916896880424929 8.706958419954812 3.77844207783598
Ga 1.594558565333967 3.1134574662190384 2.842300912916232
Ga 3.730644128721747 6.130380820140632 5.585986091562929
Ga 4.11979316855256 3.2576586109734142 4.80333086815979
Ga 3.132712531862576 0.1454339674175253 5.111420939708864
Ga 4.017809018177638 1.5291241899094925 2.663558749619784
Ga 2.692276783004226 2.2902359956568423 0.3165257605324729
Ga 7.036986353526437 5.099248606726692 1.3624042012315036
Ga 1.6330693230375635 6.411262368486954 7.400258239066106
Ga 4.4381287371570455 4.0022293515966 1.822258670330311
Ga 0.22950513831931443 3.8058205820423807 7.352000793330374
Ga 2.9234250951776684 7.038082656371783 9.420531516973044
Ga 0.05503040041602231 5.779485578008949 2.8473015650486113
Ga 4.422252260286397 1.7442738513463028 7.207870600623294
Ga 4.1692254992267 8.341139540058705 3.603221001274736
Ga 5.762741627554069 0.806394479826542 4.498649751327451
Ga 4.729821496364845 6.8581967347021004 1.127667817737072
Ga 4.362203009157451 4.57948970777356 9.487669593313537
Ga 9.61651269520319 6.13800794694931 5.646979616191493
Ga 5.5200941793415526 5.550687949668119 3.7292399341329965
Ga 4.201596555375603 9.117226436293482 3.076671781956541
Ga 2.8909530199716023 5.756393549895183 3.087202111875414
Ga 9.575348859457453 3.3352624342041404 4.463157694557048
Ga 1.506815006310503 7.777904170793157 4.4596658047222215
Ga 1.579589681925353 2.070217163156017 5.743513626435416
Ga 1.5427638888603996 4.722804190581356 5.116422920231083
