46
Energy = -120.81130485 eV
Ga 3.509569441719086 4.7908210697884375 8.844005176681856
Ga 3.0931178267906505 2.1393934049074574 9.628264134879117
Ga 5.594735006049823 3.24243689259296 10.302079082412611
Ga 6.582398714839742 5.494740302005584 9.291484164353575
Ga 1.769944406416236 6.426868813639493 0.1064698898404354
Ga 5.532955799419902 0.46972847924477906 10.233784823531497
Ga 0.7956676063078991 4.081457172323087 9.536033266272254
Ga 0.599945730752575 1.8586149472127715 0.541388133064705
Ga 4.472572061780184 6.063933264872514 0.4519733758603207
Ga 7.2189620843797915 3.0339032278308578 1.964073934438678
Ga 2.8827196647334463 10.1953783856445 0.030992226593783527
Ga 6.959017913456994 5.681215614944515 1.5562771633366133
Ga 9.559383748033481 0.5627769625293892 2.7318020426566987
Ga 2.6247620767689717 3.864442822308823 1.1483727142428508
Ga 2.1881907306015367 7.440111188283115 2.867508460830485
Ga 0.013658004089333462 5.1712196749054264 1.8018535669742244
Ga 4.273531331445153 1.8776254259735536 1.8450715004123246
Ga 6.769451769648956 0.3849631817773758 2.1774741332119585
Ga 3.4745013248709253 8.617618521271472 0.7471710644626904
Ga 4.323673043161679 9.66268029444945 2.249629600466578
Ga 0.7532673455522427 2.611631638920453 3.2779609076033838
Ga 0.3600771357192724 9.686693317194822 0.7775339824294332
Ga 4.684754128728781 4.449063379070728 2.7618989765649586
Ga 5.089786761342923 7.36743608781636 2.820047017489826
Ga 0.1348450683964399 8.617618521271472 3.548324291145067
Ga 1.944490559990571 0.3603743389356285 2.6691671853967502
Ga 0.5201026868959182 0.07476527320945534 5.377922630761141
Ga 5.934734794412536 2.2490561346137827 4.2942431483623915
Ga 9.091896942346327 1.9977062824999716 5.124159580697162
Ga 2.053251811857105 4.83548447826902 3.6370810814120995
Ga 8.632799734935581 3.1388453856936076 2.2056105453825237
Ga 2.8176839374028413 8.984442775483327 4.536597530475361
Ga 5.7690622938521035 10.077191536226676 4.726758811868119
Ga 9.71580129197813 4.628418651727199 4.517656231886211
Ga 0.5744177246878295 6.882192803350939 4.8418487368398315
Ga 3.219463492219717 1.1661020319376456 4.841456947175991
Ga 6.753455307966164 5.231033879816385 4.506756259252
Ga 3.9227852055538883 6.452029280025994 5.050557147055451
Ga 1.0719031235847127 2.8712943029322564 5.950040210033574
Ga 3.8123620512596204 3.6562412534580284 5.178520769416724
Ga 1.9706810329303397 0.7132992488657486 7.576700020079411
Ga 5.294562621031677 1.8994738561968583 6.93594015764495
Ga 1.978999765368256 5.430093019540616 6.746864956674471
Ga 4.173768314445576 9.953768294217042 6.837655879397888
Ga 3.0498405516232254 3.1614708701385816 7.885391485376267
Ga 5.219886166511171 4.922181588501418 7.230635017954938
