40
Energy = -103.5260433 eV
Ga 8.369041077737661 2.549166915332976 6.612516394567118
Ga 5.846863895246422 4.854956703573715 0.808499494739908
Ga 10.072897420826074 5.877189190977195 3.8902395183366365
Ga 1.6285998328656275 6.950157513851399 8.618485079978258
Ga 3.5033816628963597 2.1735502664834367 7.26818161655011
Ga 6.047926551768991 1.8801912039362436 5.574167874650646
Ga 3.1078968658183737 9.677549649131176 5.943332526002637
Ga 7.935175107545193 8.57623228824942 8.685654312580235
Ga 10.560257092886182 8.94796135671694 8.252376605201075
Ga 4.8360882365792675 8.523285621095857 4.209568513669444
Ga 9.783476337266002 7.586786011581354 6.046150997111176
Ga 3.648415017669332 1.5433181252214796 1.439720609567812
Ga 3.0817614308522243 3.9779468169831733 2.575082045171337
Ga 1.4919902574575257 7.4466076363263145 5.899445580425134
Ga 2.3339507436521933 4.882605921800304 7.139326269438681
Ga 9.393403213551228 5.034271051443708 6.4512026823466515
Ga 5.748504385964071 9.016651632282679 6.907214645050111
Ga 1.6791333774936188 3.193472533917017 5.242478803273782
Ga 2.3685396355094133 5.887520058486857 4.164897758134986
Ga 9.931549994339314 3.275368150128688 4.40287205712767
Ga 8.06134746433241 3.9276237364404487 2.6479956927841943
Ga 5.648065594076636 2.986107380205365 2.9551593196375494
Ga 3.5641196707528966 8.823446220300621 8.494867061477898
Ga 7.01665338831472 4.598846160809973 5.093506309281256
Ga 3.757607856763182 1.5181951678687446 4.320163506830377
Ga 4.47471280041813 6.612046292637713 6.232147346914647
Ga 4.9483343283318835 6.030423490610074 3.1605642854909894
Ga 1.2672981766446614 1.7407949788172072 2.961790506719192
Ga 4.326937794050179 4.1083857300561775 5.246926476001888
Ga 5.659577100487419 8.070527279208422 9.798028440831702
Ga 9.726915599495507 6.307748561493199 8.796404124982764
Ga 7.141378385041275 7.287741355858696 5.23058188972356
Ga 7.501225943680362 6.560681038107315 2.531053109324644
Ga 5.6511166855735455 3.82952421440932 7.688352344039777
Ga 0.9537995670681065 9.458550520972189 7.572760724116846
Ga 8.994989820813794 8.583141636473833 3.6219659271058027
Ga 4.4175897145403535 5.911148563608806 8.907585382225799
Ga 8.40807230613377 3.946282164447352 8.932557869233548
Ga 8.235084157868139 9.864463544496118 6.180138897689834
Ga 7.0780875167524195 6.181299324723657 7.6978034107289774
