42
Energy = -109.76921416 eV
Ga 9.153475404206791 5.565958336812951 3.887267624968008
Ga 7.422510328162404 4.147077362862541 2.164855212397906
Ga 9.62726377628675 4.257611102155131 6.4071364493875205
Ga 8.648527212870297 8.188810889119871 4.262414375300952
Ga 7.291923950253006 3.8331027383681366 4.912551494302502
Ga 7.226482381638341 7.03992691806087 2.2926536960900705
Ga 10.129550748699195 7.038331977442568 6.369466401369932
Ga 7.532586852254836 1.2957819305494078 5.695482009808123
Ga 7.396954806379015 3.3793755553525484 7.8140346198935
Ga 6.164958604829835 1.9534856918162409 3.274932359938943
Ga 5.323012116771827 5.261907370873472 3.489063335923746
Ga 5.51163358508386 5.705897885724287 0.3789083683252168
Ga 8.515280883730437 6.286955344408887 8.815082352428306
Ga 5.71773261528864 7.730821625743265 4.921215488600138
Ga 7.249546065797287 10.400070364105542 5.127477969639039
Ga 6.176312438654521 9.600082685885203 2.803768732150989
Ga 7.4154120215870565 6.158418718748953 6.226109097600034
Ga 4.4496943476617306 7.599705398673912 2.2730998651829672
Ga 4.982479016408542 0.1081531468051207 5.114240425955419
Ga 6.158421625530087 0.7802282554882926 8.106780392577077
Ga 8.072110458444978 8.816073438547257 7.2734830262725
Ga 4.339761793543579 3.410384063240463 1.5776307615155643
Ga 3.7916266093552187 10.012558652717141 4.427940385877992
Ga 5.21291607222477 9.899728919926238 6.7948857389282
Ga 2.662126277171991 5.593580978483961 2.0078648271085386
Ga 5.012807692898627 2.695064281712145 5.963458518894204
Ga 3.5125502146741963 1.3676897632514704 3.1087435180575653
Ga 3.4774654466710277 0.8797697794116707 7.531875578062316
Ga 3.155188451254336 4.0571023539442 4.317900981234705
Ga 5.864142212484802 7.6841175394937355 8.206467234129935
Ga 5.979145826757896 5.300761706191275 9.199739055685551
Ga 2.5228559368153856 7.535231957280863 4.126092876778615
Ga 4.723241709388084 5.336374027347198 6.439565525542353
Ga 3.411252370885864 7.919408890107048 6.742166849400599
Ga 1.2972923224885817 3.0630792056049057 2.4410432931235864
Ga 1.8368623840105491 1.4253724171120068 5.277818353412595
Ga 0.32365724664320855 5.83937758315847 3.451568857439171
Ga 4.5272661703708215 3.14011323098726 8.753385423773736
Ga 3.18323887702444 5.9279302471361595 8.7748579468284
Ga 1.8012487470205398 5.867149263289764 6.182470863305934
Ga 0.4248734651855931 3.7622055041870106 5.224031039112504
Ga 2.3983713344559257 3.412482738140956 7.167841993380595
