44
Energy = -115.3682114 eV
Ga 0.881158283384044 5.127123849729553 4.690096959307047
Ga 1.0755480070894434 7.504514994727259 6.111378623877222
Ga 0.8056276246683157 2.287782086609598 6.782252986001728
Ga 0.6716505437012157 2.5311936575282576 3.941821205898407
Ga 3.055636277775912 6.5248549862265675 3.868339422227985
Ga 0.20730013070075942 5.1156715966378385 7.366289801293997
Ga 2.1580208752243686 4.359905150713921 2.358617691409074
Ga 4.483053604769574 5.904927324186557 1.6876682988801135
Ga 4.00465457501775 3.3110474463198942 0.5449453643130255
Ga 2.1722940173472693 0.3733448350038994 5.169828658992005
Ga 3.6651880929866327 1.2208885477834779 7.396301113953189
Ga 2.0714149720277018 6.371757017338186 8.902731864404476
Ga 3.0780702773589828 3.379929003884503 5.317072676977921
Ga 3.502475016818342 8.568642286241563 5.647383628004118
Ga 5.533847824578817 1.1253665731926918 2.0220575296694157
Ga 3.280058812849414 5.821430347302386 6.481151135569549
Ga 4.497539056662073 8.62700796604114 2.804694562913573
Ga 2.714660700094588 3.6583873867333256 8.158688280724725
Ga 3.030600983646194 1.713583772747698 2.851537080636047
Ga 4.947800703554186 3.7268642084069983 3.3340425297369287
Ga 5.96488685928311 7.114386136220263 4.595904508893873
Ga 6.718464735762169 4.203350502358665 1.2038747559529448
Ga 4.882724542951679 5.127811476260257 8.689023631911567
Ga 4.972864031074976 1.419178919905108 5.02254497578791
Ga 7.329237836512602 2.0897078561756772 3.931957529568376
Ga 6.8919531201214275 7.1872163260392385 1.8531818749750544
Ga 5.70981305594367 4.596074500220102 5.909851344304674
Ga 7.370832045958865 4.983916323314833 3.7981920044255633
Ga 4.170561963837737 7.973254380847061 8.310951198243918
Ga 6.002774612741095 2.6059563217017554 7.744362663117568
Ga 7.210253129246066 9.413603503146565 3.4690366466774667
Ga 6.431568775126588 7.094042404675574 7.1058856489686955
Ga 9.240673430794526 5.719576182348736 1.5350498037890856
Ga 9.202607291556745 3.0518931263884532 2.3275071308577036
Ga 6.325318229972666 7.147775493088852 9.911954144614462
Ga 5.804818760099332 9.77033740096881 5.949409832037491
Ga 7.666420246276385 4.760270455220789 8.448952016169846
Ga 8.414288350781765 3.356727976394192 6.033388130220356
Ga 8.919290563901537 6.0300881272246105 6.334162829701464
Ga 9.168227779956146 7.362182334483213 3.853311010713807
Ga 7.028069641023079 9.678688651770527 8.438653794122125
Ga 10.078356384961028 4.798730949553875 4.30196919596369
Ga 8.498786551186683 8.786139137197233 6.094898674409712
Ga 8.82748162783452 7.481042962821427 8.628985082411457
