42
Energy = -110.12324902 eV
Ga 5.52753048228773 7.721138691484916 0.37302055290070435
Ga 7.656934603834268 9.70360388420787 7.56574913396752
Ga 6.76208969856209 9.096791159677931 5.142829217434103
Ga 2.305957980052367 8.02277016172028 6.509538466781198
Ga 3.1806371646862717 7.525375816801044 1.8429388024741615
Ga 4.481091072615912 7.611846223700019 4.4862385458109495
Ga 6.669018168643438 8.70950356328251 2.5848944093035833
Ga 1.875218106579575 7.065790591219301 4.042037956800054
Ga 10.446732319272265 6.366183495728321 5.839087235226522
Ga 4.797021255231509 8.946511813110035 7.0312252679887415
Ga 6.466993066885909 5.195939302440062 10.471210467029266
Ga 6.448327760181973 7.623962275084455 8.8575165462465
Ga 4.0404917895389305 6.525681001977211 8.270671935121161
Ga 5.568471968189804 6.062545357671777 2.6210331529194266
Ga 8.454419451946602 6.889807232171226 4.182687644132652
Ga 8.192718176084496 6.688725856976442 1.517041100986687
Ga 8.849450630438161 7.270430731308244 6.814200136949751
Ga 3.72068632648529 5.307797294501864 0.38558439283050877
Ga 1.4805482172645303 5.8156193209367695 7.984229694646219
Ga 3.1265864094313125 5.3092647576159715 5.796935201234664
Ga 6.164376625037185 6.550186159168248 6.310274181018621
Ga 8.144254189326332 4.723954996923829 5.853423477036353
Ga 8.055422858415342 5.245544915585222 8.485572761656046
Ga 5.617773317191887 5.268174885486201 10.14700033537432
Ga 7.794105705652633 4.366736000105982 3.1461074089468615
Ga 8.671036614862711 3.6895452448681145 0.5978023309633977
Ga 5.418745053697324 4.158654494625541 7.4775939246170555
Ga 2.977856341729219 4.232422657276865 9.61587755262003
Ga 5.466501697233131 4.334672983856548 4.682606921689827
Ga 0.9068237733251323 4.173998622666253 4.253844591746012
Ga 1.1591830726419048 3.4248570657170943 6.865623033458872
Ga 5.446732933398039 3.3264268212210353 1.5860941572983658
Ga 3.1855667366955958 2.6586742716231084 5.028735181141472
Ga 7.687308713828887 3.4128411698343553 10.471210467029266
Ga 3.113813667002995 4.390558798959808 2.819783900840206
Ga 7.548042338298996 1.6811474230914811 2.2696437156512212
Ga 7.650282315701683 2.565538137705222 7.6723493972333845
Ga 7.817796809176525 2.151684669000747 4.963036478832545
Ga 5.278480685416924 2.357533613428928 9.486681099624565
Ga 5.335470332061423 1.3785063409033314 6.441361188804914
Ga 3.218413380744523 2.0843461485381685 7.814947303995663
Ga 5.207375725211837 1.5842790936136388 3.7234976339268533
