45
Energy = -118.24212152 eV
Ga 9.842614431149242 5.819504696469039 4.45789558201554
Ga 10.480649254696106 3.29131692220039 5.673420617279891
Ga 9.111690912275566 2.069285630298628 7.766565579643146
Ga 8.594831176093335 8.084083455180217 3.3914163165723927
Ga 9.761593335654062 5.336771111655207 7.283948026689113
Ga 8.92424016537336 7.6837524109829864 6.135102436548296
Ga 8.287513485014252 1.2609112675888474 5.012582719327386
Ga 7.695512910890907 9.922623413214193 5.422636730121124
Ga 9.32426507454302 3.3544069237621637 3.2251034197369344
Ga 8.60210080629342 7.050807355447465 9.005686547284181
Ga 6.956011218777323 8.974789145408703 7.9124069474641106
Ga 8.375180893800174 5.655241001675177 1.9646520110963477
Ga 6.205862337284848 9.619566419302991 3.344506814360845
Ga 7.824876110082727 4.177931928696974 8.908890549177933
Ga 6.784967246151419 6.127464225913648 4.294006856071827
Ga 7.558787789525722 3.904323237235661 5.841276163769348
Ga 6.434721932776632 1.75326892555469 7.237967693253112
Ga 6.071562404814085 6.257025321595182 9.731109422587213
Ga 6.706328185029383 6.20717956403674 6.9808631262707275
Ga 6.4664663848005395 7.479945258589553 1.4472116449145322
Ga 5.362603094277977 8.173987053584556 5.494680381123621
Ga 6.6598649701512995 3.1622764667698644 3.3093647090607186
Ga 5.439906566905041 5.031497224053735 1.9651835826563437
Ga 4.755679267888009 9.648438146065654 0.9947929836676083
Ga 3.532583647255632 8.973730153926201 3.4911262810062422
Ga 4.567183418389486 3.632902650936658 5.410394849629128
Ga 5.49754246521976 1.0406252364401516 4.632908185458672
Ga 5.197383992889786 4.012588821862508 8.132242781928348
Ga 3.982797912787492 6.080922692649796 4.141467384329379
Ga 4.522471463200776 7.9606618119907315 8.053454692978072
Ga 3.7712880719519455 1.3852679344218173 7.321971223562606
Ga 3.9270965324003297 2.722227631783239 2.730458741980095
Ga 2.451902538108332 4.840942415765452 1.8010720631372499
Ga 3.675481627214023 7.125461301409464 1.404830568902106
Ga 3.2884360773312182 5.485864657398572 6.778451610887627
Ga 2.479617036931736 8.269239015372829 5.7977321504899155
Ga 3.4312467374639106 5.6651331288583915 9.698112332182648
Ga 1.715436593240531 4.13445848517035 4.279710385561764
Ga 2.6707246638387185 3.0913218268912335 9.14808614962795
Ga 2.7209364542627283 1.493204160976097 4.799335559106189
Ga 1.3209108375826613 7.0804785958714875 3.349888045082374
Ga 1.9238828667373886 7.607174439141873 8.31556382782453
Ga 1.4417229731749832 3.021137898759309 6.645252648118041
Ga 0.606347510113168 6.07347650021078 5.817490329222007
Ga 0.8390332175875526 5.117786106608733 8.34400947552278
