40
Energy = -105.10759361 eV
Ga 7.938701246013825 10.014795703811245 4.542765724423568
Ga 5.485574785604622 11.185124394648104 5.151038705544624
Ga 6.241284749463789 9.60383881247365 2.3297008133189867
Ga 8.841949080632507 8.023608049713552 5.973026654274471
Ga 7.744763714124239 7.446514488542166 3.402874298839975
Ga 3.805251401681053 9.563282868003382 3.7065273104232865
Ga 6.742239183377746 9.84233627422813 7.2261376409482265
Ga 5.763262935425529 8.044512189916478 5.2529506865713085
Ga 6.732866884683112 6.715982939571878 0.8338671498298275
Ga 3.5805981301252685 9.577340465206884 6.562007997731358
Ga 9.710401513927335 5.931077905485249 7.503081158463664
Ga 8.2378968144434 4.993682312465178 2.3666910560425607
Ga 8.933332300761425 5.40154110301502 4.984308158992433
Ga 4.7452916829582135 7.164878546770017 2.7624446406455334
Ga 7.817201305262765 7.908268827228776 8.742256415912177
Ga 2.658999497376949 7.425850651799447 4.705780338567853
Ga 5.056950137385539 7.733997526177884 7.9736630193394875
Ga 7.060549880639077 2.6500402697644176 1.4761087277199878
Ga 6.082095492666547 5.360927400415492 4.405733075401812
Ga 6.844567930846672 5.793930996974147 7.152257559492187
Ga 3.9510457876250777 5.50115372363092 6.5168236879613595
Ga 6.283695552625305 6.234621309822687 10.010352315468323
Ga 5.1375078192710015 4.628613005102268 1.7073840800821334
Ga 3.6974817385617533 5.781193387956348 9.369743675342985
Ga 2.272688096481953 7.466149949985421 7.6812376413456755
Ga 7.862379659328525 2.9781159790952105 4.144111901534492
Ga 3.286551258317253 4.906423749417816 3.6248348884610913
Ga 8.363329307964676 3.4525206625668448 6.964965010852572
Ga 8.585387735880092 4.618133828573759 9.7418298728003
Ga 1.2962778135885467 5.273415948196127 5.428852215842655
Ga 5.5677516826666436 3.285595513008719 6.30136705881693
Ga 5.942049827347112 3.7938833219844112 9.065482367334877
Ga 1.1365439125078114 4.945862113370336 8.185946783317657
Ga 5.070942507845998 2.6236612522131377 3.5214627916134567
Ga 2.7338390462939564 2.9250931067271 5.719499803897098
Ga 7.1723207226109915 0.966969602149011 5.7371415282852
Ga 7.12887553579742 1.5564510366742477 8.412440090248374
Ga 3.3260856942103074 3.2997456497129796 8.38621662284958
Ga 4.392501660664979 0.8400737218838259 5.309486172127885
Ga 4.4985488077885565 0.9511445537734237 8.057623819985979
