46
Energy = -122.40892754 eV
Ga 7.8627188190984025 6.809609459657015 8.491706754058969
Ga 9.556078731932674 6.443962504345531 6.136484820965223
Ga 9.21913200818759 4.421676282182645 7.939005620094391
Ga 6.640836599223471 4.184596447486945 9.271012460869139
Ga 7.671685581984292 8.526042598307155 6.1608215273067355
Ga 7.992675567500636 2.0753580397126834 7.816540014889682
Ga 8.889272354945609 3.2654461658873655 5.1748400953313745
Ga 5.415783363979167 6.632881064530612 9.924228677533902
Ga 6.043430305827837 8.91230198841666 8.31577307740023
Ga 9.035943218014328 8.009539993045484 3.857737359127376
Ga 5.223127856332091 1.7832817574264304 8.132334723921476
Ga 5.335741437487718 6.570123367894313 6.993966232891994
Ga 3.8919639719255774 3.7291685120062543 9.697636614373524
Ga 4.043133064804418 4.1383928906123835 6.792040923533208
Ga 6.732919329584103 4.291314642367775 6.569689059999087
Ga 7.922302971858745 1.5050556624651843 3.305920677257824
Ga 2.877632998833311 6.171623484035427 8.989422709020126
Ga 9.904679817614584 5.267937744125282 3.6084074981225998
Ga 6.654338246593487 0.9036096387497893 5.740798302377949
Ga 6.601144794164611 9.067178548461042 3.505075457695819
Ga 5.216076808256159 9.711234149375688 5.728795121696558
Ga 3.3451741158257873 8.657408216959238 8.042565805009493
Ga 7.146009949107978 6.0402297084455245 4.655060491500653
Ga 2.4586974769157317 2.0974372881739534 7.824919413238756
Ga 1.1681100844612153 4.495474256719473 7.734578278063779
Ga 3.8495061775210666 1.2237679050923536 5.641859646758883
Ga 7.9136641271961725 6.644064001089602 1.7490252323644448
Ga 7.955694630853482 3.9796498330135046 2.270262689477444
Ga 5.1776290153970885 0.6508777519696884 3.337896060513844
Ga 4.54662249314308 7.216728685473259 4.443216047124933
Ga 5.642059572038621 3.2310931737806756 4.429835685265003
Ga 3.862852639240863 9.480610801098285 3.0687649320557595
Ga 3.2313664035492478 4.763833031154147 4.24044863717868
Ga 5.747323295211693 2.5953606597935246 1.4650503586933667
Ga 2.4782250875219165 9.173972361419281 5.490792262929677
Ga 2.5737794661073523 6.527241378407707 6.284818216204693
Ga 5.336343451488327 7.776175493268377 1.3511627812736275
Ga 5.410679061163211 5.301346271226419 2.8174576082370795
Ga 1.521175421858857 2.6450650022167106 5.213687047052536
Ga 2.9627211175731976 2.117606535564186 3.0029238983538287
Ga 5.918682352776686 5.211696185664287 0.11237684930835505
Ga 2.9362957704199246 6.691521948877346 1.7331624924295745
Ga 1.3614638019493237 7.338948696719893 3.8626005035060293
Ga 3.3954450290617264 4.1526572592635675 1.0965588437761784
Ga 1.0655112090999133 4.163170443446891 2.6893978054165206
Ga 0.3843179078517797 5.212766779659038 5.201307411537519
