43
Energy = -112.37743046 eV
Ga 2.97411715291031 5.922523693592195 0.2022201789951143
Ga 2.8965636275266995 3.532703643472466 8.53338091535841
Ga 6.01931541744479 2.6354525897167775 8.540759834306119
Ga 5.56287379372611 5.041003773314346 9.767632431772046
Ga 9.669591774753497 2.8215262036387756 9.261614381011062
Ga 0.26021596591250806 5.599018294255019 0.31128675841824355
Ga 2.274369283948151 0.7308675642141662 9.692698696778336
Ga 5.18765790298174 7.335629611476713 1.664493296114387
Ga 3.9067299472652603 4.694049594334298 2.4388907357537404
Ga 4.38432408814028 2.5029017454559117 0.8088367050615761
Ga 7.166644710388748 2.144552702907676 1.3420071395831992
Ga 1.7509351586596396 3.3665281420574886 1.2502174631407448
Ga 1.7808068964935382 7.8229746779695715 1.9467514877807592
Ga 5.1412758260583695 9.75249167801645 1.6961823724254292
Ga 8.78784077863814 3.812223270361537 2.1256672940842765
Ga 0.070921526360422 1.0304134450782503 1.8713791760395513
Ga 9.02683787964415 6.765190869103741 2.697327912571189
Ga 6.608279834629189 4.785992391400584 2.4642702306202393
Ga 2.3505628426425402 8.513732611113776 2.2371601396675995
Ga 1.4115283057797072 5.327517645665085 3.11101673900493
Ga 2.8064272073517014 1.3352374341152367 2.621961106465454
Ga 5.191818172975384 2.3780430979376233 3.433134020802872
Ga 0.9467166791822922 2.8360449927175466 3.9260269574384243
Ga 4.29426576784084 9.60182469369488 4.45594387104934
Ga 7.318375703659804 0.7714650186791436 3.7346297507009583
Ga 1.2448066608967474 0.0011740948778361283 4.61420829716076
Ga 8.325150508448552 1.6592764545084926 4.126608414408766
Ga 7.490401590863447 3.60388176384152 4.760985324561672
Ga 3.6867314607634807 6.937107134808872 3.963105252728554
Ga 3.1391890447082518 2.2019643688307258 5.237983744574156
Ga 9.07993611238683 4.785717919678837 4.964669074367169
Ga 1.1751984017560815 7.364852967646461 5.132198401909136
Ga 4.624662816299146 4.464330371315607 5.052662223958666
Ga 6.5172509950101825 6.511832225518691 4.772375964266509
Ga 6.2985684351654605 9.27310635031582 6.201051594555071
Ga 1.8936855466235871 4.747689439253234 5.893986009079516
Ga 5.621366829195135 2.0629558497786165 6.452701908769656
Ga 0.7735587477088882 2.184188116764626 6.814228340820105
Ga 8.325150508448552 1.4294667178613887 6.240736921944576
Ga 3.407766574296874 0.3918877760733561 7.2560665095424115
Ga 6.396804990190086 4.736993928305003 7.208623238613323
Ga 3.939955650424512 6.55194773944402 6.839395431225335
Ga 3.655390240674217 3.566789027412789 7.717495111345383
