47
Energy = -123.17915289 eV
Ga 2.736778696632033 2.7421843670667694 1.7321835947604276
Ga 8.420006054794406 6.341680704614132 3.542581692596023
Ga 5.847470260521142 5.0703682209980245 3.881074409853915
Ga 3.2589707212442227 0.4616124050587548 3.0590879404961315
Ga 7.190370567959764 2.3398909197755495 0.6023533751714537
Ga 2.443096042583813 6.5721578956579805 7.35268283939186
Ga 6.182978647814804 7.368896106367376 2.1714174862005664
Ga 0.11758259017132004 2.0896268684428394 6.419547300890558
Ga 5.352666572867882 0.5135133768462197 5.515212780937083
Ga 3.1785591739892367 9.02991266560014 5.113518204506377
Ga 5.1215763744235785 3.949888475365495 1.6177496216338667
Ga 2.5609293360622516 7.683679935810992 0.6614728936503801
Ga 7.334416501436773 5.6894657832354225 6.0538715425957585
Ga 7.717801185672503 5.127276126555148 0.9004754653801748
Ga 5.961599268209157 7.940449228160115 4.841649012581008
Ga 3.9258713073548908 10.129212063798082 7.72382861786698
Ga 0.5320743709448772 0.7234004723974575 1.7214158513884594
Ga 1.868582402755494 1.6628629481612547 8.617811414715502
Ga 4.174668597438799 2.337428937920009 9.904305591514355
Ga 1.3967352914524085 2.7600021750049435 3.9455802812577323
Ga 4.674068350470625 5.236359706765028 6.518649075516522
Ga 2.75771372680902 0.08480520833941267 0.25061303695656095
Ga 10.107020118002959 4.506167885848785 5.126039003556793
Ga 2.213394866761584 5.224944901618192 4.743222794220603
Ga 2.0966510355157157 3.9838875217807135 7.217151147917359
Ga 5.44638652309766 9.385599412234868 3.26381936747942
Ga 3.285957477241374 7.887687474679666 5.250354201719574
Ga 1.002174327882714 2.4663774156100473 9.95601930788376
Ga 6.884022808683268 2.954318809299085 5.77112639776715
Ga 3.7250764718027227 6.16967750389175 2.7315069017642215
Ga 4.090702261174 3.049892314906219 4.534674160788953
Ga 5.847559463630574 4.353731641588523 9.376315332015283
Ga 0.9777400962444341 9.804675784973513 7.061802917178791
Ga 1.3193573550915252 5.28914372267643 1.7147613818497338
Ga 4.926718527283267 6.576555086688235 0.024848205438996688
Ga 8.136666456953071 3.562875554476383 3.2091315504110183
Ga 2.675352896677976 1.2408215119782697 5.86354534097007
Ga 6.172271257106578 1.652050834295004 3.1971103431735304
Ga 2.9202996553000125 4.754070044432239 10.234398255230763
Ga 3.808085384256586 9.029912665600138 2.8326032594863344
Ga 9.166675770932294 1.8822032954720986 3.9359734232038397
Ga 9.386490319466269 5.877251470818673 2.915149351215916
Ga 10.00901618890789 3.328428998496999 1.749824438426084
Ga 5.492696073937897 0.21796415125978344 0.8655144800388767
Ga 0.7777431210204246 10.409974723255461 4.311850818914761
Ga 4.541804280902052 2.508781434116737 7.428817909305006
Ga 1.1810602281867775 7.475098130474042 3.482796687850274
