47
Energy = -122.44315418 eV
Ga 8.834418580624131 7.964152915371877 2.0846451517691937
Ga 6.761525071455092 6.39525334643626 2.9894226245892432
Ga 10.70382317803277 7.065369415172397 3.919000512494427
Ga 9.1054399783741 4.9927607369412454 2.2257405834450674
Ga 7.002086657188749 3.67492339064938 3.8111740575449584
Ga 6.5711726224056175 9.380407532437726 2.768845537488107
Ga 4.817694503892335 7.803497038766244 4.150482460150982
Ga 9.543073161828643 10.119036393175415 3.660636056330721
Ga 10.78370991777382 8.818032346240068 5.936450435563861
Ga 4.184357039128465 10.453823255944487 4.460469228184711
Ga 5.561742373457612 3.5619301168549846 6.120883815848131
Ga 3.903270383893015 5.41373849017208 5.012573015635198
Ga 6.57707623537646 6.134780663775188 5.681306803359338
Ga 5.339818878159618 9.278962891453345 6.813704570682231
Ga 8.172522815999855 8.048072023929791 4.9891909082182595
Ga 8.997905869638835 5.1708546985702775 5.057298501398901
Ga 12.393515182820506 7.826390070461203 8.103352827749905
Ga 9.326334582701138 11.77033503579631 5.841640407419039
Ga 6.918441051673618 10.873499325839099 5.012297024663171
Ga 10.772152232924736 6.036915705857635 6.844238550775339
Ga 8.020797699815096 5.638208213042104 7.826555665312348
Ga 2.9205859523502946 8.075412392497384 6.157307083386035
Ga 3.14359862887905 4.570166458640468 7.520778747375255
Ga 7.9705996211503845 9.53424211759209 7.223156716704703
Ga 1.7973482455492447 6.753318860281336 8.280757443875162
Ga 10.217748282344093 3.7892264316318403 8.10651596189338
Ga 5.050323173606942 6.515531523333502 7.6333826177615585
Ga 2.306717602296055 7.473254756495918 10.890944659523608
Ga 9.013513210913842 11.850748746841889 8.414583375733859
Ga 3.7632417544189227 8.657365468063935 8.916791538979629
Ga 6.411324051733133 11.98609951612919 7.4236452914268005
Ga 9.314626673862207 1.3641059109197318 9.0099733444827
Ga 10.924708994787864 10.098497062896927 8.423267641051117
Ga 4.94072995029286 3.2958671362367573 8.924530957571264
Ga 7.577737790219011 3.057610214517792 7.7174173550381235
Ga 4.21050704397431 5.735232537208422 10.15087237726255
Ga 9.377460843970795 7.786456777457085 8.404582625415527
Ga 8.925361901356398 3.5761665361313373 10.714486383646298
Ga 4.9200257857769145 8.336134507906074 11.504670646720323
Ga 8.47198872625013 9.685287705464466 10.301617498102878
Ga 6.779435038462049 4.895643711639946 10.188079899401092
Ga 5.80838819563905 10.211212289641718 9.567263199104582
Ga 6.820865511483602 1.755855354712159 10.100210380910681
Ga 10.859054261539923 8.413726256951891 10.714961005917045
Ga 7.178997041764073 12.401479443398362 10.326262885674133
Ga 9.944951156550525 5.905877372978527 10.223188670227596
Ga 6.733563637764097 7.528818397644417 9.525124048291456
