47
Energy = -123.6011038 eV
Ga 9.513037887618177 6.969553879746357 3.3677869134716936
Ga 8.662176882605257 4.740502102982168 1.9511976432042293
Ga 9.28395053356748 6.597655421500526 6.07295777427963
Ga 7.3690299100991945 7.194044543502465 1.3799374576249785
Ga 9.472776214244039 4.390288581397812 4.527261791010728
Ga 9.230499044926807 2.1484368763901704 3.0627821454136703
Ga 7.557070069707468 8.457909852480915 4.908569385770653
Ga 8.403357117571218 9.449955946942765 2.4990069382056253
Ga 6.659928867967461 4.948215170756998 10.804706205694893
Ga 9.383743213037492 6.575187539508102 8.772393483320391
Ga 7.3628547343671435 2.425068677782999 1.0819422542216408
Ga 9.204496570534547 4.135602046708068 7.5175816290993165
Ga 6.978236010786245 7.465409029125528 7.464669850490715
Ga 8.412745170552276 2.066507949608939 6.104787308660566
Ga 6.876661526884002 4.519167340512921 6.17783203439098
Ga 6.892307104741602 6.012005454123206 3.945141867788944
Ga 7.798176707322348 0.08086387493310411 4.326127772117623
Ga 6.740334847138226 3.0600020791472944 3.7997845657682205
Ga 4.898513590437113 7.612660742813193 5.47915478571769
Ga 4.969477347743622 5.912702313095659 1.773360116492778
Ga 7.030131252849458 5.216908736873895 9.122334068564687
Ga 5.564313566692424 8.701515620854178 3.0115208703325647
Ga 4.785892751085743 3.172791902715268 1.625166009988248
Ga 3.321773268936267 9.790844669648871 4.28747808702355
Ga 4.640833425084197 8.160530570443514 8.38625803030186
Ga 5.6002068342132985 0.6552220765640936 2.6762762005903427
Ga 4.520634662098919 4.59943632146369 4.308281984929541
Ga 4.6689461116769255 5.449656159405757 7.349925012924049
Ga 4.580015718329989 6.044127206813874 10.152171673683586
Ga 5.702236116980664 1.3843269931923705 5.680395191706819
Ga 3.0660905895717385 7.187597767897162 3.122141542105745
Ga 5.974003796477475 2.729645854697558 8.12404422093157
Ga 5.518892008915541 3.4536000175477977 10.759745748213353
Ga 2.5595755334305594 4.4871126198697695 2.1943071182733784
Ga 2.511061031216481 8.506318375556427 6.784704764897351
Ga 3.5516393730815525 1.82434057508037 3.906498354304208
Ga 2.5047884915732257 5.809824029116164 5.560586467248588
Ga 3.6945628154953463 2.9403957814315387 6.53118300085848
Ga 2.2481150359274844 6.315890487070525 8.732112254311309
Ga 0.9998876439049721 8.246239255918798 4.471663449017042
Ga 3.286580357966454 3.631234101465006 9.211950321646551
Ga 0.5694447868235438 5.53581566466479 3.555832565375061
Ga 1.5730838071380866 3.225986687168639 4.755511899651854
Ga 0.36757907281280877 6.697530065173864 6.898585287151195
Ga 1.2616963017021023 3.9241690855964233 7.513251685969976
Ga 9.513037887618177 6.861607743585383 4.821370194463225
Ga 10.105419827923152 4.233651068963765 5.784148556222166
