40
Energy = -104.48239949 eV
Ga 1.2468187408863691 6.79168474347241 7.578528464297265
Ga 2.9818665984162944 4.213467672208086 3.397734229425779
Ga 5.249412647508471 8.63005922129365 4.616355471731479
Ga 2.27574980687221 5.874292147897421 0.9435103104448476
Ga 1.5254099576723505 3.687745762192551 7.602528113741692
Ga 5.549038411321624 3.597229868929821 3.6120421906479407
Ga 6.3518207556394435 1.3637978654946268 5.536826954276161
Ga 0.35121180499309623 5.212505618357765 2.6441269158291285
Ga 4.927309377696675 6.263650807328548 3.229010492554343
Ga 8.585030588987708 5.012838366711619 5.412277324052252
Ga 6.174170751578268 4.049965218613788 6.547385068315872
Ga 3.721238541924876 5.135996847112943 6.412266661091434
Ga 6.324884370296522 1.3179781390769139 8.214091772569184
Ga 2.2142076178817613 7.135726651088362 3.543978416588935
Ga 5.746924886140336 5.790643433703206 9.314669129825054
Ga 7.417660795272945 3.6935137869183294 9.112697575284065
Ga 1.673273603089264 2.4727292111246033 5.280452932739615
Ga 3.1224213341849474 7.927503666082455 5.915737151297821
Ga 6.530545034302616 0.6659697988485499 2.8193189669926957
Ga 4.566982835645867 7.1825987816126995 0.5580583602023701
Ga 3.9256738734628573 7.720352879948011 8.55030676169885
Ga 4.401162740024837 1.8305650445660289 1.464975242924056
Ga 6.826845735614479 8.316112211085429 2.077963638714509
Ga 7.493917029299685 5.395224964017869 2.955490448508937
Ga 3.9338131365151905 1.3992436561739976 4.156380660706937
Ga 5.865938439000738 6.771410691833237 6.575141719705921
Ga 4.6428060021163535 3.2128970901499243 9.221485709915237
Ga 3.7654016211707533 9.016573502431816 2.418798704137365
Ga 4.653794218257334 4.413114590797363 0.7700458019582226
Ga 2.1782303736558832 3.16442904371186 0.7696346704862796
Ga 6.88814196123204 5.7377401453120465 0.43326176479852163
Ga 0.7065061992757918 2.4465506321333232 2.8415567519515648
Ga 3.969425731888966 2.2451299631131967 6.7685731231535735
Ga 8.699545282770272 2.487732736793884 6.768552055861634
Ga 1.1126209966755145 5.308632168026304 5.2704456172131495
Ga 7.147445687124496 2.986770555522448 1.1287219777630584
Ga 2.971209734436261 5.239115873260399 9.16934272139047
Ga 7.727452733555749 7.488040864827176 4.657054816440739
Ga 8.36848370537216 5.968571800446843 7.834640520099863
Ga 8.164818144365949 2.8111057839071156 3.8552425967895676
