40
Energy = -104.2750466 eV
Ga 1.2254524621091163 7.234169285718503 3.91176081429373
Ga 5.119449129026281 10.033619030157354 6.569192433177714
Ga 3.1285360935312276 8.706719516986588 4.975828628036917
Ga 10.098372090343553 5.239329611786943 5.2003790389556785
Ga 1.930595325356359 6.669101108944503 6.581464806222703
Ga 5.631011940007548 8.698232423291348 3.9606135696668394
Ga 1.371700236735571 5.034037516083965 2.3915947540056055
Ga 3.370955356975423 8.396851003187733 8.08008060545009
Ga 3.832116210079462 4.075334554307796 2.0808396708837575
Ga 3.9331279643787544 6.6430465561315994 3.122162761439829
Ga 6.09064040561738 7.294956002266134 1.471312572706414
Ga 6.327551601893011 8.181752484508339 8.48168695794728
Ga 7.390193956937399 8.30638832207254 5.960650128650247
Ga 2.653508993981058 4.546888827754827 4.840634669913884
Ga 2.201579064538125 5.884537755728636 9.19521667179534
Ga 4.81935608154608 6.790866129631698 6.187372165716257
Ga 8.320780783695234 8.320447598917392 3.1157936299196747
Ga 0.6335008878067561 2.822466561367314 3.9210437251021304
Ga 0.8099444666243256 4.115307286146928 7.557614720673609
Ga 5.268302813833317 4.186549153395159 4.83339410040468
Ga 9.222703383040908 7.852035974281243 7.9869156601206805
Ga 9.835811913652226 7.6015552082142435 5.207768644279695
Ga 8.67918538657704 5.867737851131831 1.7349480998291158
Ga 7.02410412481508 6.160481702977093 4.164440514218052
Ga 4.911803883572245 5.8895221438406 8.903168614246926
Ga 3.251240947155899 1.9557430316949929 3.730007652555396
Ga 3.5833431763077512 4.153775591997171 7.305716614458834
Ga 1.830441655174424 1.9638151122735241 6.292656042665263
Ga 6.36052750294364 4.523142881054368 1.9973555872638011
Ga 4.5821222049386074 1.7549191321283184 6.215062417490706
Ga 5.907314709623625 1.819921649372648 3.5763135036158085
Ga 7.730208880105945 4.24491968119454 5.769134119003315
Ga 7.4593763407837 5.76362448388583 7.9814825597226555
Ga 9.970101208069867 5.1914292632119245 3.990744430379457
Ga 10.098372090343553 5.276573110742556 7.037565010011818
Ga 5.987368858477462 3.332264304723534 8.003600296494852
Ga 8.346162670817945 3.064150206748449 3.201469769797972
Ga 8.611135219005364 3.105480649119765 8.278217795968441
Ga 7.550981407234856 1.5053275354788744 5.752450629864944
Ga 10.084082141949686 2.804681549245019 5.444047404751902
