47
Energy = -122.81294293 eV
Ga 5.52274097071537 3.285481939220606 0.09854051883096888
Ga 3.2759710904919337 1.0127451234324016 0.04065107997742569
Ga 2.932299550748169 3.6004792076518806 10.144980136797631
Ga 4.55047002406975 9.589093145981838 1.4152942629983762
Ga 0.29982603287131887 4.305158198577086 10.23474994093363
Ga 5.864105361001354 0.4764412812678502 10.155982183602962
Ga 3.0231494881721654 6.129424083207252 3.057700427341395
Ga 5.288400341238751 5.810201073523129 1.2173180352497976
Ga 1.5147083629583085 9.725238222284549 0.9645347525888932
Ga 7.341987253790977 3.8145363445196834 2.2847066657571995
Ga 1.937895714863984 6.2138450475958615 0.4775031191622873
Ga 3.3137756566841494 3.551653737848743 2.0846147684746588
Ga 0.9711673680407682 8.006071554443306 2.7361490696660997
Ga 7.824032510621233 1.5897498774280434 1.0243074835829793
Ga 2.9691545966206254 0.5291793576069493 2.7680596991448914
Ga 7.2280851934196235 9.867574410518818 2.289373448321748
Ga 0.8224797752771884 1.818730401923077 0.8478029841403611
Ga 0.49359887301741723 4.616394292403604 2.310878046598029
Ga 9.60082979592493 2.2544131812292383 2.8570836788429044
Ga 2.8168093180136338 8.58472410928106 3.7580463142792087
Ga 3.7817294768461673 8.266636976699951 1.4839941100744
Ga 9.654997476365411 6.321526047774366 3.8312211647013
Ga 5.3727525466308546 1.4082746171557876 2.1231915225649995
Ga 1.3871738847602846 2.28607503282953 3.7989252730261724
Ga 5.112464447717742 10.232925646343498 4.428720312046873
Ga 5.627020312588627 7.667441178415856 3.554245073528587
Ga 0.32279953235600967 10.47832179212718 3.492603786106741
Ga 4.43069558487453 2.282684108107529 4.549843078939168
Ga 7.914298882377359 6.030261001446382 3.57598483939177
Ga 5.30441215381811 4.734741954115544 3.8739869005278615
Ga 7.275497791860704 1.1860591884513454 4.12429700082585
Ga 3.055368719413783 8.55271427827477 4.513318488193869
Ga 2.418509294851534 4.3289660872983715 4.921397290870247
Ga 1.0272282709055733 6.64248102508055 5.473792831538846
Ga 10.63555344460331 1.1820320545535232 5.858757580174467
Ga 2.4849979417844046 10.754600347980901 5.50109565207297
Ga 10.338131902388353 4.032019447273976 5.094249523287444
Ga 4.046260006299024 6.206388541955604 5.697590738085722
Ga 7.2073324410491715 3.4985376963878796 5.4047066541861035
Ga 2.2788619553852945 2.4153388499597814 6.810537053035102
Ga 5.010927709011308 0.9181098779557751 6.832899822097385
Ga 6.894892502362771 6.146102539308873 6.0602896100387245
Ga 5.341762049695652 8.58472410928106 6.363198380536977
Ga 4.945628507742551 3.8086736730926627 7.037934810717093
Ga 2.6026373059141283 7.836446939202561 7.421946374907102
Ga 2.35705234855947 5.023789980833982 7.7333131555055505
Ga 5.067626103542083 6.227566063647747 8.37562430455547
