47
Energy = -122.18620932 eV
Ga 6.418490261242617 10.440701461569546 1.8356154726252647
Ga 8.05369583580946 3.2417914240778734 2.135347125084588
Ga 6.5208075980497116 5.209047608998518 2.8426225564279455
Ga 4.44307343662885 5.547800772261607 4.499735679347759
Ga 6.355183376191552 7.7709606359697725 2.317244312419204
Ga 9.517905899395176 0.9400974146865897 1.8421259172121056
Ga 8.077607154271758 9.475496137688848 3.7376619580675055
Ga 5.930240153391144 2.7061254190923743 3.8086608808164253
Ga 10.523416563266991 2.3162211670439024 3.9286224124236364
Ga 4.87992450528449 9.48189670251958 3.9990869472404014
Ga 4.189099396321494 3.0034743010078104 5.662809300383451
Ga 2.8884757717998872 7.776079835012976 4.393078610650739
Ga 9.543284084229281 8.850986829936037 5.934525427674047
Ga 8.502872355791302 4.043442506220949 4.748759374769006
Ga 7.993283276606817 1.002237548256772 4.155486191604171
Ga 6.346234980379952 11.885478438933267 4.336829984646383
Ga 7.443603246713659 7.050492242445079 4.831402312483108
Ga 11.200583132620539 4.1888886714653095 5.683442186416563
Ga 4.4082594981793015 10.983117054415327 6.184194618830379
Ga 8.805584103223165 11.562032890110489 5.835353929798289
Ga 9.681279767658125 6.242128979103111 6.199752394529729
Ga 4.98352445245297 7.781095017462437 6.2304292992704795
Ga 2.3770376865358496 7.243640375967614 6.980506258818309
Ga 6.540298936523527 4.958132990527511 6.540249320095037
Ga 8.78735872608155 3.7219840528374917 7.6011161973732655
Ga 8.568192449175337 10.061890194941267 8.495093846743426
Ga 9.774293949692352 1.546880937694941 6.502012692346662
Ga 2.2868151869270603 2.803626492864441 7.43031121911965
Ga 1.5475966994237538 5.2058893727108915 8.43763363974393
Ga 4.206437556215653 11.87826451178928 8.790725783899356
Ga 6.822360471261158 9.68699313109021 6.197496024173755
Ga 4.021846377391217 5.07208498054592 7.38885656169235
Ga 3.0536036282057673 9.545919976813154 8.148447259989466
Ga 10.111123655315476 7.813431421957356 8.583022880118829
Ga 7.027758390064231 1.9426100302231173 6.3984850044059876
Ga 7.368343806999894 7.482812676161456 7.6840969050001
Ga 8.39086413539876 5.623703961938634 9.397380331445616
Ga 11.00133432064842 5.175085963393987 8.54411100902275
Ga 5.414529173783401 2.530295645072216 8.244469900489488
Ga 6.954821853803343 7.682537776938181 10.671816555150746
Ga 6.770909612079649 12.269638681806263 7.607386683960889
Ga 5.893576666436868 9.69857265930842 8.894367609638481
Ga 3.30973419781704 5.733514593612604 10.58841257082128
Ga 4.544560774350759 7.3876877636285485 9.043841758107472
Ga 1.566688219733686 7.75583534278652 9.849712395825646
Ga 5.9174805085650295 4.975469060397981 9.493303445396304
Ga 3.562032359939217 3.2299325385910747 9.870385445776783
