45
Energy = -118.12567556 eV
Ga 1.02235530551975 4.420944332584041 1.6163076227201665
Ga 2.760767245577483 7.366245604885753 8.598371480202056
Ga 8.712509606573986 3.706635204831906 5.72405487157762
Ga 4.113045596746194 1.762438887961842 1.2184636059724756
Ga 6.02636318460259 5.142625275027242 6.028480512519832
Ga 7.245294445629913 4.409080811239971 8.3797093482377
Ga 1.0659068648164682 8.679760552844298 4.156267647222493
Ga 1.0362366844289514 7.207337030823423 6.455556396081567
Ga 5.058871258657363 8.098755340110404 7.386721310561992
Ga 6.763851567855282 1.9396887800605311 6.992578775869265
Ga 6.636716603641395 10.309078238338389 5.181265765651304
Ga 4.876119810237548 0.5208315365757973 3.3561111811806827
Ga 3.477637452950688 5.661061871903125 6.478115815121309
Ga 5.97889383018388 8.259672009257566 2.2604422917939
Ga 2.337502692786817 4.559756098740859 8.80631591330441
Ga 2.2206532385918836 6.38683204365479 10.369618170664769
Ga 3.7770244342361865 7.8906664431764195 4.888480051250197
Ga 4.928736261057348 5.544335322055697 3.2123823442904498
Ga 4.588207537368264 3.1767184816262133 7.894066577024595
Ga 0.5713376125554082 6.994359243565575 2.163998404799366
Ga 6.6474838547013135 2.937441032921271 1.4386806595279378
Ga 9.822428440129938 5.500908418730387 7.833679129139881
Ga 9.822428440129938 5.850286954220594 4.415393886015203
Ga 6.452338467605853 7.556648985434559 4.812376525876043
Ga 3.280063302199199 3.426267923153655 3.28549681179731
Ga 3.27246603322243 7.596470057599795 2.24785391644497
Ga 2.7016587517398802 2.986720246580839 5.980081912390658
Ga 7.035623107552181 5.588630200130568 1.0852477506943186
Ga 9.189890987480089 0.908462683085797 5.810681744462028
Ga 4.944396834047891 6.9184425289314575 0.118314004167319
Ga 7.496531185836862 7.122670714613191 7.641581277850516
Ga 3.903395686071142 4.353915659320408 0.747148415137163
Ga 7.469163139390684 4.657103135456222 3.5487484822337665
Ga 8.831600299286839 6.348787707352864 5.27030206330014
Ga 1.3831955439846038 1.8398778969450815 1.73109666402431
Ga 0.5965153753531416 4.522154812590739 6.652761565874164
Ga 8.479879147357222 7.300877827599947 2.736807508480477
Ga 7.821347530957231 1.982483973362598 3.6139756124821
Ga 2.20264765823769 0.8759506041308792 4.1985963709849825
Ga 4.19046377424689 0.7016741884800278 6.520556162129991
Ga 9.298992786934553 2.5757953432474645 8.164081287401567
Ga 2.143515318788444 5.661982948971194 4.198652071296082
Ga 0.4797433456098264 3.201395060274363 4.1648417872271
Ga 5.392284249954354 2.879594358642389 4.716674403744337
Ga 5.016733161794525 5.741451285587383 8.97187955789967
