41
Energy = -107.25986258 eV
Ga 5.030256918798219 3.1452868171616397 9.046790637731192
Ga 5.14451347844491 7.884435747407409 8.738336318375612
Ga 6.272744344655963 10.250595454851632 7.794689764600828
Ga 6.369105711235418 5.516297960531414 7.934332297169215
Ga 3.9065087434550385 5.538854825816631 9.338136225604654
Ga 7.711885398335581 7.929770008044385 7.145665719613602
Ga 8.546554031279713 5.525816742982914 6.215556160882326
Ga 7.200933985632354 3.0667789952034012 7.398395500543824
Ga 9.104982724649556 3.0697960919641374 5.399176485603944
Ga 4.3911566220903 1.6187171427082243 6.9520939287268115
Ga 3.7645017362146658 9.542413304299362 6.72617738177635
Ga 3.990383947260512 4.55724694521309 6.79340905193144
Ga 2.414057922570368 7.447181072623159 7.855892231010067
Ga 1.3632519037343054 4.903903458025132 8.359390281796276
Ga 7.559274157793782 7.355216224552 4.282612890353828
Ga 5.059728871932341 7.106195149029156 6.016912594789169
Ga 6.226163634558074 9.550838702162231 5.158419887158836
Ga 8.730041246042912 5.090274468934613 3.220370259473183
Ga 6.359614804814097 4.490148487257153 4.911611764634132
Ga 6.574957677521779 1.694909841017519 5.21680478553932
Ga 8.541859380817257 1.8054805348222132 3.1702144632423255
Ga 4.178685955171549 2.8197593003555537 4.400743100618475
Ga 6.239567243214244 6.0958440307046 2.3439180303915848
Ga 4.296394619120179 10.250595454851632 4.819096586555462
Ga 5.942762544271997 0.5410891017419811 2.8567261229786634
Ga 6.561344821280729 3.4992708132505235 2.338345462200085
Ga 1.8964650898180608 2.971014384651054 6.434639814237509
Ga 4.841287656948387 8.334702354246554 3.247100414177085
Ga 3.8365713074006376 5.636915054525706 4.11479673943578
Ga 1.6731660388085279 0.7196826499127149 5.041170248492525
Ga 1.5206959111037548 5.746502011893542 5.82525683190653
Ga 7.511349333051174 1.3783917238782177 0.7097201009725526
Ga 5.257020050128602 4.744909914930231 0.06437972067162785
Ga 2.8222418546367876 1.2938592803863878 2.483365496388697
Ga 2.5334079903451476 8.091969665766372 4.874131595737975
Ga 4.845542264670621 2.0639915632993087 0.7303875724322483
Ga 1.3946374007058762 3.647803586055906 3.713546318708938
Ga 3.6465545030764273 6.589411908500753 1.2877705383576574
Ga 3.431740523684862 4.006096257691403 2.0064717072135023
Ga 1.2554004772428276 6.264354264040144 3.0575630280520767
Ga 2.2702904225119673 8.77227860109958 2.1934851889435243
