43
Energy = -112.38562574 eV
Ga 6.634132577324197 1.5983290729801363 1.7475083189752176
Ga 4.688816021850587 0.49660726221245666 3.3344364164994897
Ga 8.828918841142087 2.8942538996513165 3.0117839224432057
Ga 4.333903882939334 3.1272762233539355 2.730223549155629
Ga 2.7431383028689154 10.409841507606883 5.142853830364564
Ga 6.660446453564013 2.1020317077458763 4.532701045073918
Ga 2.059126351165209 1.7646106464866598 3.569133235519589
Ga 4.585352954398815 1.2706286972307725 6.168345574485482
Ga 8.570589376690704 3.4841203045286244 5.8714294158320115
Ga 10.328460921436156 4.866878220544668 4.370685165395172
Ga 6.364896712776394 4.285485752367117 1.1478267423875463
Ga 6.391660798544342 2.632473075775247 7.3920280309873085
Ga 3.816804041038735 4.874116555325115 0.5965848201746399
Ga 1.7347282031141786 3.863897700212859 2.1006243374151534
Ga 5.042322172396978 4.174578268640769 5.262668907197768
Ga 4.746150932126347 5.854947342853977 3.084416995706722
Ga 1.9075251392199648 1.8947465583930978 6.324519930299486
Ga 9.591415020822378 5.823745371893075 7.114497794301251
Ga 7.228654786656051 4.969453297698204 3.7443586819360535
Ga 8.14169527900439 4.158440388673683 8.7094104012608
Ga 7.010028835808353 7.100529638641168 1.8621780176062601
Ga 3.6553756070882994 3.5915455697381877 7.559664964917001
Ga 6.964886132228263 5.8705015493145725 6.385371846681341
Ga 2.3873756107017376 4.306720067738417 4.918103121221623
Ga 11.221693080575884 7.2584577343512 5.436248031808446
Ga 4.454278060887591 8.635387523175105 2.586061749992148
Ga 8.874661792385528 7.140267892954554 3.879282870185807
Ga 0.7983436515445878 3.9439320692435773 7.571443165165121
Ga 5.507150304282402 5.2305548733799325 8.772791050242368
Ga 2.4413342866779937 6.8104638080678255 1.8027528340076904
Ga 0.3929487139757205 5.816025897593465 3.5349647678466125
Ga 7.691648114172939 7.0992014397757846 8.937026713540199
Ga 4.318600698926382 6.451048810638837 6.513192319932857
Ga 8.813930686776448 8.537768866943765 6.298048494594638
Ga 6.4503550582386175 7.97748102084508 4.479063622905596
Ga 2.6422116040045585 7.159361091124023 4.444519569839348
Ga 2.5223610237346388 5.7843202550476045 8.788420257014955
Ga 0.7001381568334305 6.243412270329765 6.132674289728576
Ga 4.474243687081167 7.653136238258957 9.158245388407094
Ga 6.192504734591345 8.605938488142787 7.1065833336169515
Ga 4.162295703196578 9.218421491255354 5.329069551737523
Ga 2.31543690525852 8.208479469846125 7.167596918046579
Ga 4.037454182554348 10.201501791816453 8.038609420707916
