44
Energy = -115.20940902 eV
Ga 4.212636416420456 1.736158292279291 8.713547452076703
Ga 2.5412178375749117 0.40810321687617584 0.6264433261884503
Ga 5.246328039603394 9.23497945340168 0.5561001692723964
Ga 6.5346540160019675 2.342185875953986 9.790112990794778
Ga 1.7222079626332087 2.8287929481360163 8.466937223383935
Ga 4.318655143581828 4.5866847875533105 9.270963152693229
Ga 0.4627208075657992 2.1812372549957617 0.9933200347268695
Ga 6.855576494532482 4.8373076519076035 0.7831785059603746
Ga 7.535435186809336 3.228328283633307 2.7727039305882233
Ga 3.176076979977929 3.000165480723172 1.3278401799369612
Ga 5.612665616746899 7.139858250227724 0.521159782869681
Ga 1.53629393048964 4.976094000116083 0.49481086550022935
Ga 7.687677733602762 0.6595281174226244 1.8687565138822706
Ga 5.079384629876167 1.6444907252969707 2.2846641513385486
Ga 1.3166867136256366 7.325516828916565 2.0215304614351135
Ga 0.7253993301622759 9.82096201365104 3.1599876562179032
Ga 4.948305778741831 3.8459665805309915 3.8918799695438446
Ga 9.336906829105526 4.7351933700164155 2.2509935214100785
Ga 3.037392719048211 7.198747614690517 9.579595237299426
Ga 8.554413889296704 2.035353525160309 3.1918345184220684
Ga 3.8652195348427525 5.528116525923791 2.061421287673261
Ga 1.5407690803307599 2.8942776669407184 3.432082480951497
Ga 6.448009550312883 6.070633349353051 3.2644426620869202
Ga 9.024656496794995 6.565271115570392 4.218960355773252
Ga 1.5781987730116547 8.113925997041376 4.944217580924383
Ga 3.639950906308108 1.383602039173492 4.621847673544768
Ga 4.129878878751565 7.315738934229451 4.1529070409678015
Ga 9.174258341627063 3.8114946058294668 5.100961569074028
Ga 5.979113889391574 8.934386086945535 3.3825434858177936
Ga 1.8186357148109367 5.483855316717648 3.9465734277487985
Ga 7.6953684682381605 4.051035656027936 5.456473961760652
Ga 3.3923148762422732 9.026751929662991 2.9452402919786906
Ga 0.7546000338448886 1.4142083193502857 5.583563137307618
Ga 2.8679489565081737 3.7937155922530463 5.675378776033527
Ga 2.3409115837261982 8.87358137558373 5.614714753741482
Ga 6.729576294781479 1.3994852915453706 4.76043429473684
Ga 5.328565831978508 2.718148929855368 6.672961135921474
Ga 0.4279781922439848 5.930181906838097 6.646127679393868
Ga 5.071662995337159 9.606578047898212 6.479468091337466
Ga 5.547362588381985 5.548032220637572 6.1579227534679
Ga 3.066890646994627 6.446057678638974 6.683905795202979
Ga 3.0266835687052147 1.4446202095346539 7.553710924602981
Ga 0.8597644096351326 3.3480772404217105 7.504387218203513
Ga 3.3156910179938133 4.25500949669816 8.466937223383935
