40
Energy = -104.18059211 eV
Ga 1.5991647962140696 1.2903964524818459 8.412188329834509
Ga 3.7951691441111253 4.5433353757845385 8.535629439502625
Ga 6.627781781616081 3.9681005825600497 9.427783725679594
Ga 4.250056986818254 1.893405855324631 9.414368157806496
Ga 5.578929529753389 6.3892299704529405 0.6953360167862798
Ga 1.791016973558173 3.303318814911962 0.2483338792245428
Ga 9.629651330087883 1.7080812121116131 0.7477480017455518
Ga 2.453960434741772 5.835007813196432 0.8498324483323108
Ga 2.048162270433713 0.08819455598785601 0.8444178595178441
Ga 4.474741390257272 3.9062508213819487 1.2090476228813873
Ga 9.63977698421987 4.653559178270065 1.688626206281249
Ga 3.469264902802158 8.305308064441464 2.1478193721987995
Ga 6.597667890191252 2.0655551454901784 1.595287610668426
Ga 4.9191759315557535 9.569721242881197 0.9710090974343029
Ga 3.6139315215520855 1.7202314444030515 2.2476453673058443
Ga 7.050931728653154 4.772264060892497 2.7690098693651133
Ga 6.239232247922496 7.532341464840984 3.476211616314269
Ga 0.9131457036598394 0.6321512262022015 3.287977720053873
Ga 4.176134841642119 5.733148855561852 3.016117603622535
Ga 1.5872914002439413 3.301700578459765 2.945487890717428
Ga 0.12656953825077308 4.288320743853598 4.9459855783893705
Ga 8.693747645023333 2.2736296108094796 3.6436497893088973
Ga 5.0291253665815265 3.259702025173456 3.87003002881978
Ga 3.2694939288895144 9.206484939666119 3.2047872448231214
Ga 5.700474982703734 0.5859448709280146 3.8227706669323913
Ga 4.997727082338278 8.305308064441464 5.347173994473771
Ga 7.415470235222438 2.95615152308913 5.146583555811923
Ga 1.3711883444180133 6.343648729876474 3.414286255443673
Ga 3.043907861569596 1.9328822219871515 5.033271590217144
Ga 5.795307950156793 5.492047232228744 5.40277762279215
Ga 9.322989579486055 3.106912622248802 7.36639069118767
Ga 2.94947791020902 4.676514952949334 5.063278506330439
Ga 5.717446480661085 0.7388515749504289 6.585100752584127
Ga 3.615063206705033 7.456299815016008 4.997722381779339
Ga 0.4877417214725225 1.2683764743810368 5.852934824540329
Ga 4.751044279341083 3.26700933256248 6.789389840590089
Ga 2.482932045133244 9.469459748906939 5.881298267572631
Ga 1.107366691796326 6.608444792160571 6.340375997033628
Ga 1.9301647456178714 3.769654433613551 7.3835200618164505
Ga 3.867739635487332 5.913220596618677 7.508961535377695
