43
Energy = -112.02776798 eV
Ga 10.428478732765452 4.059131548290296 2.8662215389619514
Ga 9.571587806694854 3.724761478443672 5.2819571072894895
Ga 9.184474355541616 3.2725416653059907 0.6532855282703003
Ga 9.4493236816778 6.331436777815471 4.333134902679175
Ga 7.71238059716334 3.3032816278839974 3.1126627181845783
Ga 8.542292400999107 5.796849639240912 1.5529259429590057
Ga 8.978474449656357 3.985842983828365 7.802979321928734
Ga 9.219283722620789 6.56545759362069 7.183741983728418
Ga 7.991863207624405 1.523750885042377 5.956534465935134
Ga 8.429655723901467 8.29118612508197 2.985374209981549
Ga 6.436504460440669 5.76255769071176 7.647186672615683
Ga 6.759131005033324 5.871210740242393 3.6552369108038776
Ga 6.688678687818492 3.0342951854593543 8.535594669091527
Ga 6.693980112146711 4.025339150297552 5.680403923359822
Ga 5.135443488697696 4.740751342238042 9.911090129435452
Ga 5.234075470269643 1.5315655162978659 6.901987686443761
Ga 5.886220767729017 1.6338036385818582 4.051040167250206
Ga 7.485906312561535 8.162568682355086 8.428228285538381
Ga 7.3733591913467125 7.926631349164565 5.610264885335725
Ga 4.135293066518612 10.57707858659763 5.164505441327895
Ga 6.850955927048623 10.39718224560658 2.7277018058710407
Ga 5.048152465267813 7.53454702321133 9.752332960254153
Ga 5.1988588227287975 8.813729007405984 7.069846121214392
Ga 3.2292605283294917 1.8095507313188157 3.4364791148189884
Ga 3.6226468512248053 3.228512129870383 8.309102243241655
Ga 5.202980440824905 8.75202168430019 4.232447281219992
Ga 4.810980852279901 6.227160379557724 5.393672424318276
Ga 4.010683675123753 3.5845387228434586 5.420318287030723
Ga 6.580334879326723 7.433445347491366 1.1851515564230002
Ga 4.876502546195438 3.851273732080631 2.6509015085460486
Ga 4.271197788955102 6.377613926151419 2.5589131620261796
Ga 3.6154292249390623 6.016336408966571 7.825104539776254
Ga 2.3256964734707615 1.4915856975545745 6.361319153933562
Ga 2.7415011709380575 8.550809739752562 8.385543954056018
Ga 4.561950709076024 8.989422954185526 1.6568398865747245
Ga 2.8854299317604206 8.484069975633725 5.622482385756839
Ga 1.2946277320206168 3.300545440616304 4.334773904460063
Ga 2.3236138863675473 8.405137772570637 3.0308755498163573
Ga 1.683933154522712 4.351151605390047 7.004932365273891
Ga 2.2375706069937427 5.837187047256842 4.270088844420971
Ga 1.0045879307913446 6.988974194670477 6.931882646213972
Ga 10.50015955770529 2.4837440707345917 6.508079430635156
Ga 10.428478732765452 5.28322308796872 5.315992531796444
