46
Energy = -120.46634543 eV
Ga 4.121886983016604 1.1010179755902678 9.016009078377472
Ga 6.994496907437945 1.5454496780019136 9.476199663088785
Ga 4.692510047140244 3.6267484240747305 10.7226250069454
Ga 5.7858841031064285 0.96599216735449 6.702891667777866
Ga 3.066404341732613 2.00708491863459 6.725447428232652
Ga 2.875832837938113 4.027754729130387 8.712121553748169
Ga 7.476820401975804 4.474095802550306 9.764167809018838
Ga 5.495833596585705 3.40023851492849 8.015165904606215
Ga 8.371017946347113 0.6268609150815304 5.880340127444597
Ga 8.230401864529183 3.017214464322401 7.373972307516517
Ga 5.0201729627644065 6.059568972616206 9.170752339041973
Ga 6.53202787884349 0.1471693440194524 3.897710824267568
Ga 4.332450825038202 1.5513037767538094 4.240590973275048
Ga 1.920446575733815 2.806730678485817 4.462973452867202
Ga 1.4023279370838775 4.6484629602815195 6.573450552006451
Ga 4.344880044654052 4.246221897907994 5.905521785195256
Ga 6.87119194184818 2.9907711613449504 4.916076162392545
Ga 2.7796203036631733 6.893308862469688 7.689093965222498
Ga 7.074672668305731 5.566652101776546 7.310015606328656
Ga 9.829367416142578 2.7003027497521686 4.926977324084383
Ga 8.347707110848326 1.874808198674004 2.6602322432963446
Ga 3.069056748079174 1.6618607868042596 1.945574279065003
Ga 10.140819970305158 4.692226331729134 4.402409781288062
Ga 0.6527279720274444 7.375669656711901 5.557741396514151
Ga 5.334215486248437 7.33662093601737 6.58214259671417
Ga 5.961685704029271 3.0287955382854226 2.206927145890255
Ga 8.572087216698897 4.5553340998416605 2.7699254320420135
Ga 3.207591932874686 6.372349300707471 4.97985984880472
Ga 0.986150170247214 3.5592234365809934 1.852300088021492
Ga 6.002251315627559 5.4010103980018656 4.06529051352778
Ga 9.010839150937178 5.14592249014584 5.506579325480989
Ga 4.060528023309528 3.582370386616925 0.3304969416047988
Ga 3.5575281641885597 4.390974908876881 3.038979011168451
Ga 3.090950256851653 9.219377042545318 6.131709279393756
Ga 4.891651091848002 7.810919900231076 3.4571104896169964
Ga 7.718165521162984 7.3975044267019925 4.9747904228993445
Ga 1.4272767748609576 6.305476167967558 2.917774546547222
Ga 2.2658187038482187 8.75016056146203 3.509180144033354
Ga 5.759311931209361 9.58921170348863 5.3457366255207885
Ga 5.043098497680371 6.011785049838962 1.2274687768568207
Ga 7.4685393019614965 6.839927347731832 2.1072861188722714
Ga 2.3404485984408607 5.588479542580526 0.4857356213811794
Ga 2.942764464887783 8.253917514456957 0.8320380882273687
Ga 4.384150082721263 10.554162397367188 3.1748978939006283
Ga 5.663125461277537 8.7383407118179 1.0513390208532123
Ga 7.426453702742109 9.563283650351758 3.1067667082579455
