43
Energy = -112.49548864 eV
Ga 8.113639058680807 7.941130759321128 1.8397201231961782
Ga 9.132447335073493 7.010106605769135 4.348992864821149
Ga 7.032374677343542 8.823010321433863 4.41880376242166
Ga 5.9902997856853455 9.890567273921741 2.152937024575399
Ga 8.929535370939597 5.315177601390079 2.0036005520747997
Ga 6.27469706119766 6.230738478909317 3.4993788838298796
Ga 5.541629589506637 7.325799513277154 1.0150046909190997
Ga 7.649774124959399 7.336165912488873 6.560302803466042
Ga 4.307025825085691 8.421688661660518 3.7392037246852126
Ga 10.270966872996178 5.36688181522231 6.114149968656554
Ga 3.0713392568343085 6.8768022779589915 1.6099413934832119
Ga 6.690713658334841 4.9941494211113735 0.5693249864310894
Ga 3.1705310558068494 5.870658204809762 4.333876506430607
Ga 7.123455367997669 3.450493654363582 2.7930639108117923
Ga 1.348795568392991 8.217029882875261 3.1158267221983262
Ga 9.771091414596953 3.4640164823595105 3.8685063552567747
Ga 4.803611278895975 7.664459481072051 6.269577658978516
Ga 4.3912736381317075 4.344222017450573 1.9753808258724588
Ga 6.037688150793699 7.553372489498358 8.730987126660535
Ga 7.078992830877287 2.889278682269475 7.716627347780808
Ga 7.85591613116742 1.7019931395380605 4.781653226197181
Ga 1.2477851029871967 2.1043156186463996 6.804425693735267
Ga 3.545202006844937 1.0198587465279718 7.907573051900665
Ga 1.6822226645814824 4.127365494256098 8.967207765230183
Ga 10.270966872996178 4.367320007157137 6.715684621152079
Ga 3.1971666046736766 1.6196255785305134 5.047648106580318
Ga 3.226653531224288 4.148614097927853 6.556828947407809
Ga 1.371874464821202 3.590227443252521 4.534510049408851
Ga 4.478080040010035 3.3940899959254667 8.921041541921781
Ga 3.6685943628681903 6.159223100289672 8.652705746469783
Ga 5.63113410309155 1.2406551156052548 6.117848040822064
Ga 0.2272926705450267 6.103271134064729 4.456102824658782
Ga 2.529043375061848 2.2311230786759455 2.378551775441773
Ga 2.2451024164863247 8.274122421049196 5.662245832545563
Ga 5.128197374159762 3.800748548075955 4.743820921016276
Ga 1.4966019815947764 6.343406236063296 7.148815836036184
Ga 5.1652656397351935 1.5804013290658303 3.0768176928561295
Ga 5.7651664699859575 5.209396782391666 7.079211324568981
Ga 1.4666703235385654 4.856882568030159 2.1780073275151217
Ga 6.3415652348488125 5.029235572902782 9.928879872405274
Ga 8.481480990343995 5.283913327333169 8.203312260330685
Ga 9.746226498203011 2.724066642636469 6.636603949517048
Ga 7.679703979444867 4.629381854104857 5.350283728947341
