47
Energy = -123.99271082 eV
Ga 1.7567510716299823 1.7728431042970008 6.843592995183352
Ga 4.017375144506738 0.49854590996966636 4.982213350581039
Ga 4.115230045194964 0.5499969525458749 7.907090542143194
Ga 2.127020738872722 2.4911685460406714 4.24244725224576
Ga 3.224466988686485 3.230738734214831 8.837826199351273
Ga 0.496803007362495 4.658957140653864 3.8072287705484453
Ga 1.407365420429168 4.552085528564201 6.495906241988494
Ga 6.506320616853271 0.8723975993280568 6.472412201338918
Ga 6.508355644329803 0.8266266782093846 3.7302375693684877
Ga 4.3506675902748855 3.076772063186246 6.2193454642990575
Ga 4.741470881704665 2.983903993525017 3.353777459103418
Ga 5.930373389446979 2.5004231747640575 8.601332318698923
Ga 2.5377295528773667 4.014282401492462 1.8732545305640709
Ga 5.193434002120108 4.809233536017098 9.89246379221897
Ga 6.83192025646862 3.5174005744757926 5.165727471089706
Ga 1.23774902839929 7.182088664672183 4.509578320443788
Ga 8.398808322246913 2.5380825850789233 7.412623562476972
Ga 3.3680212827459575 5.179093457083308 4.545262155571995
Ga 1.361940346057598 7.259518525807495 7.212158253156388
Ga 3.7720013559327006 5.654091631113509 7.377171489307079
Ga 9.0074538098472 1.6621343098772667 4.8280965443274475
Ga 7.551175044649677 2.980432172772178 2.3811350903878945
Ga 4.9417069012133 3.0977911020439315 0.5700638149010269
Ga 8.025297828913166 4.0834017814055485 9.567389000852243
Ga 6.043441547869977 5.422786558300242 3.428337361253731
Ga 4.054626248384416 7.409945274891131 3.298422283921719
Ga 9.54816421941747 4.270744154341741 4.0300121231821695
Ga 7.446184854552557 6.452181411987965 10.862316597933878
Ga 3.7816452186333107 8.378737214151753 7.749581432567956
Ga 5.360650416705369 7.154926565991825 5.681462557929816
Ga 1.8371512844645093 6.697537677700432 1.8650026680222973
Ga 4.355450765338231 5.845006635978212 0.9777683109069025
Ga 6.439150035873475 5.04075246100762 7.3266184910974355
Ga 6.944547823380216 5.182332011107915 0.7789720297275123
Ga 9.891398753283747 4.655797130115732 6.697412175576471
Ga 2.1544034590078325 9.64847916970214 2.698468884395104
Ga 5.932083537821679 7.443512799775149 8.88903887855583
Ga 8.717758740385928 6.558417566977252 8.238864486567332
Ga 2.9991946068387856 9.043176497018525 5.294242543446394
Ga 8.677553179505965 6.400325845988926 2.626826617022105
Ga 7.457817865834283 8.69433463955044 4.060717532412
Ga 5.132537110542533 9.881190293829983 3.2446764269978434
Ga 3.8468826012779744 8.616921590712261 0.6717791002755488
Ga 7.686321578986347 8.597662098073899 6.871955457048877
Ga 5.5026917158693385 9.973701650770522 6.134119910719373
Ga 6.34528579559475 7.788232348249341 1.6396832096038005
Ga 7.94253093799588 6.253128094090259 5.372874434570406
