40
Energy = -104.70289201 eV
Ga 1.367915577178298 3.5154063600220127 6.46260167095499
Ga 3.1827844000424452 1.4768811793786905 6.889768998620396
Ga 1.1844122506303574 1.5311067148912654 4.507734384673586
Ga 2.2723899211591885 3.456164018275785 1.6171681044086519
Ga 2.6647144240719443 4.301352543931687 8.737628174476194
Ga 2.36037295246745 6.077130771538472 6.478952593748242
Ga 1.7972275113774627 4.786523820332668 4.1019095676089234
Ga 2.46351248958962 6.401184174220076 1.7316121539656304
Ga 5.88290120483955 1.663602085516539 6.167787013612289
Ga 1.4069171102301334 8.001251163510242 4.366067863004614
Ga 3.9024982682609273 10.251727995887665 4.922925098742004
Ga 3.720147981070599 2.718161938900493 4.4247814360418385
Ga 3.0227862321554255 0.8003220208151197 2.4246459874553388
Ga 4.448430074920204 4.850794124105881 0.09704143429704426
Ga 3.695542165700057 6.693823897403115 8.918369614186968
Ga 3.5413416755412124 8.958515368480773 2.5174230924175744
Ga 3.285478904637176 8.57545493448618 6.54982242933687
Ga 4.6141523697667175 4.308935855713499 6.507956828713131
Ga 4.81835003663957 2.546258416032768 8.733388651734634
Ga 4.44369547367154 4.78748306216726 2.935552104153923
Ga 5.4816863802481075 7.000212699572214 1.7561231230045546
Ga 5.058535538494269 2.429247171040919 1.5883402437245895
Ga 6.397252434450211 3.610023190470906 4.205645213505712
Ga 3.9929914314492683 6.9330471417508805 4.319313220912598
Ga 5.915641280349655 0.644446210005859 3.44409671622223
Ga 7.482809912139541 2.855655422944174 8.072826550376176
Ga 4.31196149799386 10.251727995887665 4.811437447226126
Ga 6.058079429992486 5.1802241324070435 8.687978150810492
Ga 5.287677563521434 8.731359789179374 8.384218732274444
Ga 5.68031519588213 6.8510073760278845 6.224396256651567
Ga 6.955044763777996 4.461592345518933 1.5901537703953013
Ga 7.644154309741922 6.202698713430461 3.6204208000255855
Ga 8.057332996790038 1.9445186479450398 2.4993818771408325
Ga 6.756250021113707 9.638856275796176 6.376215208655222
Ga 6.29536059734511 8.544640407037573 3.814729931441842
Ga 8.455874115437172 2.4406831705075143 5.4962961783585484
Ga 7.723328240864782 7.23596515387412 8.150163520306847
Ga 7.6717992498228815 5.011932061837326 6.228399895470176
Ga 8.609924007609832 7.860456025786967 5.465910518829013
Ga 9.464044992233903 4.147596620003841 3.3141814479050407
