47
Energy = -123.2091264 eV
Ga 8.43274617292064 9.350521963095337 8.315963133649758
Ga 8.007522562160071 6.6233020884485665 8.897295942457603
Ga 5.717365560041237 9.180881287350571 7.999876988605024
Ga 10.266271641791988 7.512564685129979 7.18836282437069
Ga 6.396853308969856 4.952208405644431 10.512097509071852
Ga 8.996346832712481 3.940702330852337 9.13541724778653
Ga 5.075444885766159 6.656384461761233 8.726547023623077
Ga 8.87635790275639 9.320536024774874 5.351896629076716
Ga 6.276046950642668 9.865296100306264 5.401715554000031
Ga 3.064878254630983 8.390549305905218 7.932584974467657
Ga 7.250081442124557 7.225874887347151 6.3305816843386715
Ga 6.504602940212658 4.620315602690586 7.563583691350106
Ga 3.6241604585413665 10.205962051182295 5.894437894630429
Ga 4.567205906233687 7.224427082244912 5.90782449820697
Ga 6.809938745233247 2.216300293789181 9.344136296467909
Ga 9.34464796928351 4.994766373445977 6.691376243240342
Ga 4.286552095000325 3.7943276910859076 9.051132878130115
Ga 9.527352592379456 6.714883289668452 4.582101481199608
Ga 2.3932343817031168 6.141595746848391 9.541408797613457
Ga 7.248582227016097 8.117696464552973 3.4443924891705153
Ga 8.001108688497347 2.6011664046055536 6.590338777048409
Ga 4.588982625419989 8.463757490812451 3.5585355555186857
Ga 2.009412874750344 8.350740987549166 4.661343320523664
Ga 1.648029038680851 6.297145162839788 6.524284592864277
Ga 6.8331537068605375 4.740535422493968 4.970182096890603
Ga 1.6390954123746588 3.909744210296867 8.116681343818282
Ga 8.057328368890419 5.639955196948728 2.63340638707524
Ga 3.919059998974144 4.7341995620227255 6.50781922662588
Ga 5.864270101717773 7.678010550660912 1.1145782198601344
Ga 9.535923862690012 3.645846689850925 4.181619064199971
Ga 2.7386890751735526 7.483991969331056 1.9844969394597163
Ga 5.324728977205473 1.800770198979383 7.178668511741056
Ga 5.19356547278217 5.677684328186558 3.0249329583974616
Ga 2.554582596194635 5.669134464841113 4.007470369724542
Ga 2.80032858030523 2.128642096184067 6.56368205005424
Ga 4.454717809063734 3.3352657744680076 4.276804720108763
Ga 0.9601172764923498 3.842577417739475 5.2615213672811985
Ga 6.728389418877162 4.905423701032875 0.4403091819109681
Ga 4.039503389497676 5.467437942586514 0.3036622326744473
Ga 7.2034458947652915 3.014115669094602 2.634405300409048
Ga 6.55475949123816 1.3879049560874963 4.600004339461821
Ga 1.3300451715549846 5.680581604150863 0.5260105363554817
Ga 4.13795926939015 10.205962051182295 5.324142922559832
Ga 2.388608409591273 3.7386623243569765 2.153659535888318
Ga 2.1890188336575047 1.705036671016167 3.9559968882922476
Ga 4.928406259591238 3.073959086666679 1.2466581844205988
Ga 4.550857717211705 0.9553133758087523 2.68633274694621
