48
Energy = -125.59840694 eV
Ga 7.587384327341693 3.403004451726464 1.4581751049546023
Ga 2.817113922708808 4.467782706944079 10.447362492649482
Ga 4.290130965504773 2.3956848551867695 0.5620718093875546
Ga 9.947269233299693 1.9054792320167735 3.8949780368321942
Ga 6.424146566946344 0.9949783973605929 1.2976133432590722
Ga 7.7465559656227105 3.726119188927808 4.114590570415247
Ga 2.4822688945692146 3.3254792009206224 2.5047439051615346
Ga 5.570077818101464 7.2651843356930055 2.7804627557917057
Ga 2.603983279802863 6.257761347600163 1.696798945007572
Ga 5.082945652149918 2.493874919128168 3.314047722590952
Ga 0.3177912930905495 5.049417187171947 2.713503072244548
Ga 9.28791692734932 5.927445348293248 4.747668997319101
Ga 7.423614120210393 0.9530799021760262 3.8065802603100938
Ga 5.238491464752652 4.879698654400943 1.447861703164779
Ga 10.024753462538113 3.397497553745554 6.100939175329526
Ga 3.3436634187458996 8.73726411680756 2.3083332796711753
Ga 4.078204512293205 5.021894740124495 3.8806525349258294
Ga 1.2407372969026758 7.338433989486186 3.8705307218699585
Ga 7.972383992752639 6.012621990947556 2.2099525440437646
Ga 3.175752328424553 2.6408364096641384 6.596859770296446
Ga 5.06677305321659 0.6816001699207722 5.807244042231122
Ga 7.991890139982895 1.5702271153188685 6.440063998061439
Ga 1.6023524213371831 4.082788296667715 4.970400045199688
Ga 5.620769856344743 3.426707935661616 5.749392778126299
Ga 7.539689623325069 4.4488259796398815 7.243547340169679
Ga 6.38198566762623 6.00312304140538 5.192790858248662
Ga 3.6001698121929504 5.38052379066607 6.520044574862444
Ga 10.143677726144382 5.604006842524113 7.605222957709678
Ga 2.071083138873722 9.856153743862949 4.508441913758548
Ga 6.072665195713146 2.0740648196734144 8.131994964529799
Ga 3.790646007162267 7.535394835715801 4.96303318257388
Ga 9.177016914951876 3.0574911465577994 8.961744894084916
Ga 7.865629384647041 8.376383838694075 4.125179876500495
Ga 10.143677726144382 5.78307820087125 5.426866930514994
Ga 1.4882654894461995 7.252629873214166 6.654016771011481
Ga 8.118274364130714 7.338940209928933 6.8154361712644524
Ga 3.921542731881086 4.032943873172877 8.895605028740981
Ga 8.172338247390776 5.90615521539444 9.554058005674818
Ga 6.436459321094085 3.8683882754020322 10.166595376520302
Ga 9.92240282671531 8.180648543720922 8.705565610431659
Ga 5.167496918902166 9.890175540552928 4.195509313630646
Ga 3.3030465147825003 9.567580414037188 6.810447327258861
Ga 7.184118035484567 8.506646010280617 9.150629361014865
Ga 5.711578000058859 6.203944169871605 8.346077824676486
Ga 2.9983003335589506 6.468907405229413 8.98326933914225
Ga 5.862589382442937 8.663584832160193 6.55204517388606
Ga 1.8351810801038555 9.021979385541227 9.07137619835858
Ga 4.576274148918737 8.790093367498628 9.120752902272557
