48
Energy = -126.14147193 eV
Ga 8.685416189542757 9.57838958912136 1.9385923107457623
Ga 6.3775067704392425 3.383571403247 2.80709384953297
Ga 8.566792024080305 7.292134634032945 3.279594652767446
Ga 5.871415507177205 6.22731234508634 3.793115375549051
Ga 8.44342581047905 10.502275527206796 4.476192185725628
Ga 7.525907839285303 2.557982123763598 5.472411605845792
Ga 6.219943020594578 8.964130682851158 3.3379928195546427
Ga 10.719429862958295 8.977255777428384 4.0874331978151766
Ga 8.23110002208842 4.851064412231157 4.2566522411195375
Ga 4.653080973632351 4.110117573200233 4.9614325200268325
Ga 6.182784911847625 10.34012511601324 5.894052401368987
Ga 12.598497540170687 7.6863303604496895 5.953384525209454
Ga 5.154260801061428 1.4073294412229211 4.729511060701645
Ga 7.670085813598017 2.9767022930752187 8.348478721271684
Ga 11.559557184139742 10.478170526573734 6.408858468962743
Ga 9.606273277067361 3.9286825633628353 6.543538167506003
Ga 9.351644964308765 8.847436843395938 6.588461062249432
Ga 4.440337860196822 8.300454228069542 5.252808937115143
Ga 11.30779571909168 8.155110738461126 8.373967070262534
Ga 4.369057126217872 10.519384404480093 7.882109597733497
Ga 5.192732372956409 2.534067492925302 7.210869037029085
Ga 10.303643513317319 6.341704687046268 5.250704305642502
Ga 3.5378535927275503 5.924923720873097 6.409090017375948
Ga 6.196530923047798 12.37868660634853 7.80672068372553
Ga 2.5661139441257035 8.62553375811272 7.154018179808663
Ga 7.341273569247492 9.713084220732416 8.398167848095872
Ga 7.212539757177541 7.629747992445274 5.82339667530406
Ga 5.528727341216119 7.548474259651416 7.967255333344728
Ga 2.754516373865993 6.4315492760304345 8.909904873330467
Ga 8.772426575018274 11.819350315982579 6.7879115481384185
Ga 6.579302422819132 5.162952713505355 6.697702120843665
Ga 11.919626480556047 6.085596213650117 10.109030526628848
Ga 8.851347452708332 6.43997898317096 7.8084166373285555
Ga 6.722374728228206 8.034586579751606 10.38534895085934
Ga 11.538864613644233 5.378147288309801 7.4949403282156055
Ga 8.129571722070612 12.193809353267184 9.810941384268242
Ga 7.221223731510033 5.347947520893766 9.782493905265708
Ga 4.698394444579838 4.524636049840177 8.731140182816075
Ga 10.056782809514969 10.448530845235794 8.917372627180978
Ga 9.792052431035398 4.176967144269311 9.73831208752488
Ga 9.263371736906082 7.138913147306529 10.377939448095276
Ga 3.944276531972383 8.760176242299917 9.863105149971574
Ga 8.558089820041012 9.80859507406961 11.300164752832568
Ga 2.5344973366122674 7.18397849957804 11.557792619420002
Ga 5.695070158011014 10.904745806738088 10.435495234261563
Ga 4.902228196259939 6.067494199660805 10.939672009508406
Ga 11.23151499362308 8.902283088655297 11.08338062791689
Ga 4.993958032779443 8.98279715992529 12.436250957751096
