49
Energy = -129.29129713 eV
Ga 8.409613687795545 6.656806166733049 8.127641712352952
Ga 7.39046314471011 8.71349077515128 5.965594370265081
Ga 9.49629845077087 6.992605240268468 5.593307322292975
Ga 8.440778341858467 8.25554327784576 3.3957011625317404
Ga 11.00221835109604 5.605605655949162 7.731641012970529
Ga 5.867333412327826 9.351650313296531 3.671263323556732
Ga 6.0183353388909495 7.791260891095365 7.99703408206033
Ga 6.301007009489599 4.923651497939242 8.599018572339514
Ga 8.95107114073222 5.432611926418277 3.2651152006737543
Ga 9.719639694377472 4.277043627147205 5.606474268578733
Ga 3.8569105138459205 9.756224979812634 5.322095873567484
Ga 7.788223120050798 7.030798548947982 1.0328387284478233
Ga 7.13630005695304 5.575079576281713 5.889629461305581
Ga 6.2743203625018875 6.455243305150874 3.4257253276834336
Ga 5.006482153132531 8.157409789666223 1.3941981212331362
Ga 8.931963820995465 3.8118114491121884 8.292642919881407
Ga 2.956768045643893 8.284614264178975 3.183129418694675
Ga 3.508197260250387 8.671846343579416 7.773278273729764
Ga 3.9030166699954267 5.882630209490802 8.231502385450762
Ga 7.4536690528787055 4.289597759988494 1.2619521357333938
Ga 9.069300027795482 2.5041392515311194 3.6603371964689573
Ga 4.649141571925247 7.044929000386128 5.5104109900292375
Ga 7.909663804056414 2.2926485412979765 6.204625798204384
Ga 5.221681337566875 3.635707424941096 6.315070133184711
Ga 6.706970078184256 2.236857735007508 8.650912828894683
Ga 5.1229070906317915 5.574470105411787 0.7381273540608224
Ga 7.239273863066619 1.6954249065476528 1.7987508946407942
Ga 4.066762089424113 3.089124224108626 8.989889222182239
Ga 1.6700907996561634 7.930234110976426 5.475724323075811
Ga 2.861508560113719 5.062116182321326 5.8107535598632865
Ga 1.3717769803371522 7.0397083031740895 8.067049385700821
Ga 6.501661010717935 0.8364594208563961 4.6394726177720935
Ga 2.269305001388334 6.643201863371121 1.030661179199193
Ga 3.808028602377853 5.448004486368893 3.2368627426280216
Ga 1.7240977539051618 4.203017151573997 8.375833494214577
Ga 6.424939211182611 3.702804092709994 3.876980758976977
Ga 4.792386801499161 0.4692699529696822 2.5333897210691396
Ga 3.0386357689949146 4.261747015168851 11.455425545554933
Ga 4.700225430786274 2.9529189194016734 1.4499157724208585
Ga 0.17353406003831556 5.574280319784544 5.839615623190834
Ga 5.06843077563663 0.8990403882927331 7.130550521736566
Ga 1.0123015691448085 6.084468624461089 3.4003666271435997
Ga 2.5641559517013213 2.2198447091071825 6.614770509563273
Ga 11.00221835109604 5.383651335634469 8.348070969339094
Ga 11.468638548217537 2.8624330913038345 6.903911743576652
Ga 3.626414544576772 0.1326029459968945 4.969433437128368
Ga 0.999385674188447 3.3317808642635267 4.466646352925725
Ga 1.874719654310765 3.795301922999743 2.0239224881966296
Ga 3.786519427450756 2.7332238009250305 4.06884466431566
