43
Energy = -112.15967339 eV
Ga 6.554724171005289 8.311175712162127 2.4668245014352324
Ga 9.177900787542582 7.414003520403358 2.7104512063878303
Ga 4.997379740257674 6.467165764861452 3.8009879163436273
Ga 5.324548244842632 12.038172929217962 5.66876301712825
Ga 6.9477153188820155 10.787303748611569 3.684890892442587
Ga 5.145754134663331 9.137010847358663 4.925326672065928
Ga 7.684164483389181 7.914350493105989 5.067399617518447
Ga 3.5396455967055087 5.071714946229928 5.841072181581501
Ga 9.512733584781142 9.771477177060076 4.12663675388348
Ga 9.606671744737628 2.2159537936447378 7.062183989058051
Ga 7.786252451319968 4.268871033131187 6.737756400694386
Ga 6.745153121280419 1.7769593663274736 6.685906705224645
Ga 7.72527116233487 5.366979489789869 4.191575734518752
Ga 3.6970918802831796 7.72118841250801 6.508908110610135
Ga 5.570984410986138 3.6670947955553803 4.867751933286149
Ga 10.03155001490989 4.140201838439543 5.103601702618045
Ga 8.488972417029704 12.33155955300318 5.531292570497964
Ga 10.17710460100637 10.628275729590252 6.827889871727781
Ga 10.359855112469074 6.793619765055144 5.131282194304192
Ga 7.3274126080256226 10.045702098404542 6.510829295369476
Ga 4.659633624570512 10.209173393037211 7.535931439202404
Ga 6.115162319629687 6.364739327951454 6.492988855032853
Ga 11.689744350614971 7.661486078284542 7.256933800391775
Ga 10.242533561861867 5.373879730043162 7.870619798976138
Ga 6.907972701791127 12.336751645581957 7.980348240573554
Ga 5.085401947068874 3.9897915700763935 7.802338488923557
Ga 11.02691200440715 9.46434355162237 9.194524312977364
Ga 2.4728312553795706 8.328228822131484 8.802438917513594
Ga 2.2826794267963013 5.729978956039392 8.080066758040909
Ga 9.004124925795326 8.014475608372639 7.525416849622995
Ga 7.581046447637862 6.032115016039412 8.763359000302556
Ga 6.564279770496689 8.596215192281113 8.666459035166577
Ga 11.415607410576053 6.773377510098771 10.118680773595269
Ga 8.985832817929152 3.3703327350239642 9.34844057604579
Ga 8.540076558559937 10.588495963641183 9.23659054990462
Ga 6.560006014797672 2.272595057713959 9.2833134599807
Ga 4.717868320056372 6.485707041735468 9.125018395159183
Ga 8.970370066568607 8.144701096376904 10.441124850503353
Ga 4.447964827710518 9.213140265657985 10.287375187695893
Ga 8.86568406918067 5.453530841515523 11.107155023239214
Ga 6.425943867947496 7.128057815560257 11.336655654333958
Ga 6.025515406344031 4.5141721042158505 10.67491101894909
Ga 6.81734267507535 9.89134961978767 11.42339770442099
