44
Energy = -115.05694691 eV
Ga 8.253825557244442 3.2050314940251248 7.9904720721208
Ga 8.490798340053475 1.7481533076804505 3.604363371428987
Ga 8.199799341629221 1.1837420726875063 6.259834124621194
Ga 9.532781510574774 3.712568850296201 5.46796474149297
Ga 6.887700502008578 2.173315587712564 10.057959748416883
Ga 7.649617866974565 1.9501695583279708 1.0066640120102608
Ga 5.607860197180541 2.103060126016928 7.461677591031103
Ga 5.895484902096321 2.496759898682942 3.050812100706416
Ga 8.032857945202645 5.687630566296499 7.044288194038197
Ga 4.289115609060193 2.324775746932959 5.109873174789407
Ga 8.573807263783392 4.23832549326697 2.385705725207554
Ga 6.765367982264403 3.6922866690387353 5.345987948305315
Ga 4.563261652460559 3.5342656860277994 9.777550486579468
Ga 8.48697919968226 5.94932750620583 4.366683765767981
Ga 7.170914312058045 5.1093848037775365 9.878609574296053
Ga 3.8269647058341536 3.3719151937318763 1.5728194033049554
Ga 3.048604310642752 3.265189555850295 7.458694170703844
Ga 6.235744941419591 4.33570263985282 0.8284735982430481
Ga 2.492538299893772 1.6494705182304958 3.0869486174228626
Ga 5.3929908360824985 4.970036715564844 7.484451981159108
Ga 1.521512755229217 3.3170061703167577 5.0637954887013645
Ga 5.630179907638682 5.383593358834518 3.406680668571063
Ga 7.613383394608685 6.672112953548513 1.6398692636720857
Ga 7.733061568175087 8.430919147339479 3.6242632832080486
Ga 8.224661152919111 8.203590994837912 6.29317873143575
Ga 4.501350703829436 6.2809053282071865 9.87532757358467
Ga 2.023435681829631 4.931827673835089 9.618200655701248
Ga 5.904050633014438 6.769596371517095 10.057959748416883
Ga 6.718888991338077 7.4655599876754195 8.680439682814749
Ga 2.1060545708342597 4.912905309643415 2.955178239793444
Ga 3.9053863224649277 6.0502019263301845 1.0915929554713837
Ga 0.7338129706142282 4.923606682991483 7.093810624950003
Ga 2.9622789543009205 6.4923228317324195 7.386533896095963
Ga 5.644088783866415 7.104888656361523 5.640944148832846
Ga 5.37221420080489 8.415353666008704 1.5854755401147453
Ga 3.6422085303908247 5.145257903282818 5.3213524583716305
Ga 7.758851428230282 10.695326952798661 5.076329905529245
Ga 3.5223083315830013 7.297441892478512 3.5035285155636555
Ga 2.054666098109984 7.6495972515323585 9.79570954062567
Ga 5.8958421905742044 9.689474354231322 6.785867450061282
Ga 4.123778553818244 8.712047906956956 8.419492836091058
Ga 1.20220492201466 6.735929403349651 4.981883804538834
Ga 5.156590864904212 9.510757520748408 4.095680488810442
Ga 2.9792074441457363 8.83569799662112 5.738691211454015
