42
Energy = -110.08903887 eV
Ga 6.3047355476945395 10.614703931599776 4.132007082332977
Ga 6.2166678076399755 1.432231395858098 2.459276283335692
Ga 5.538178986640353 2.795952995660395 0.17209569484746562
Ga 4.041843539434734 0.8175676390203374 4.409008060776156
Ga 6.656839010583018 5.384798623030571 0.22500272359310233
Ga 8.518319690233097 2.237232753476911 4.1612761628115456
Ga 3.9820090751017583 3.039315590187721 2.445690972772942
Ga 7.497601396012781 3.797471002714976 2.1434871940950444
Ga 6.678133669832407 1.210482631497809 5.942340857369893
Ga 2.40041995123818 5.166076518191301 2.90712002966212
Ga 3.743742753563594 5.042908809367979 0.2995878137804786
Ga 2.458721254031887 2.9576714334504564 4.6604586629669225
Ga 5.68832993141771 3.5791290769026443 4.6448733179287265
Ga 5.0649757736441305 7.547422508857359 0.7000213909786395
Ga 5.214387805935719 5.529445339158527 2.8199730465747854
Ga 4.222648115094398 2.54409425239143 6.718816254931242
Ga 8.094319378210772 3.5976573397527765 6.501834302915602
Ga 7.942693064068841 5.255060552482768 4.332169320526832
Ga 7.718270949459821 6.897362682508377 2.1520055743714286
Ga 0.4823199048181841 4.427618691007527 5.423467173727179
Ga 6.501769144742093 2.2509824086143775 8.353200359804744
Ga 3.995006317277285 3.419574743339603 9.288606669120826
Ga 5.495274300979616 5.059601436259 7.2965342542201395
Ga 3.2847020542363694 5.451016229707783 5.7203534140339904
Ga 6.325586828272323 3.424121313651429 10.77508571853901
Ga 8.561899339827011 8.124604800201359 4.455297851155709
Ga 5.839630503467399 8.86498752688805 2.9109264024710146
Ga 5.734446935827196 7.013998781920351 5.0580852842669275
Ga 7.818133070840035 4.827829217019001 8.89269862406767
Ga 8.282685483299392 6.5100348083155914 6.743048033599543
Ga 3.4906481351566074 7.601588065603257 3.366032823029751
Ga 1.8377103322179664 3.639688058041753 7.6911155199488785
Ga 0.5664911369628015 6.857051990779688 4.081191066241255
Ga 3.068585087191317 6.017755043655461 8.689761328611612
Ga 5.072047708691567 5.903514956825268 10.4378433875696
Ga 4.345437129855803 7.891096566685536 7.409478188087842
Ga 7.044800363165467 10.614703931599776 4.6300184369472595
Ga 6.6386244783808 7.357592251722142 8.840108366152558
Ga 6.817514092803424 8.936281305891741 6.678707646017927
Ga 4.371651373039831 9.844690987288578 5.168863456379525
Ga 0.8331421911338658 6.405184754395612 7.239560626191087
Ga 2.2977149264063375 8.078410999121884 5.730463714042175
