45
Energy = -119.26203459 eV
Ga 2.2334481845078726 3.262419519931607 8.448005854337122
Ga 4.726997887289172 3.8559476038064147 9.327521471247486
Ga 0.9425446766772392 5.05217781035136 6.809346274994955
Ga 2.915368780725859 5.917392872714046 8.893268190106577
Ga 5.432139349332008 6.548357050194585 9.666299580607603
Ga 1.7423106169077807 2.1700155918608197 5.915971833677862
Ga 3.719937241910056 8.654413462949972 8.654411259684114
Ga 1.7249921484237964 7.636489617093893 7.027947659495495
Ga 0.6979022638090555 7.172228517622585 4.396430922802078
Ga 6.87485624444132 2.1955576264851144 8.083781123821797
Ga 4.211442888283335 1.4736449247171965 7.623849849367623
Ga 1.0451103689690484 4.3070953456329235 4.23625875945869
Ga 3.9414353643688775 4.104184821815422 6.420808156099986
Ga 6.623641651900194 4.9587152538101 7.0322250615578445
Ga 3.129070066413329 9.19390271839645 5.308432633771778
Ga 4.7408588267634055 6.865314184912084 6.8469692287076285
Ga 6.502992132672821 8.729130214268404 8.34160553776526
Ga 4.117166378755153 1.0286010936537169 4.883600226305332
Ga 5.68215437736393 9.814765978990822 6.042588596275686
Ga 3.104189384716817 6.104603383589731 4.944265641856015
Ga 7.3323400944683845 4.515550113693461 9.68979672512627
Ga 8.433570941228275 1.805423456001225 5.798709489940565
Ga 8.434049830327254 6.794500585448366 8.558911029701894
Ga 6.724233318271168 0.58227481931213 4.052901464923464
Ga 6.0541613715098945 3.034862519923988 5.202655218533741
Ga 2.642271946391313 2.451500486352332 3.092406378953763
Ga 7.294805573857231 7.440827174980067 5.985028518718348
Ga 4.655357357153946 4.592237745119437 3.4776847905304074
Ga 7.317830530738434 9.392155390902124 3.92439811938144
Ga 7.208329066958643 5.314225680325586 4.225694387741458
Ga 2.097510145809114 5.579623061210367 2.121318975510515
Ga 2.8692599480344296 8.160584615358294 2.800137912461732
Ga 9.13085432299847 3.8759610075000897 7.6835672497431435
Ga 5.327498432223257 7.286116207975304 4.051959774163889
Ga 5.288099142415328 2.0598986628373837 2.26377894220346
Ga 9.773315143888428 6.251423149393496 6.289680497813728
Ga 8.052439042079591 2.707016981397566 2.8363342496445614
Ga 5.333215877946316 9.161040919606673 2.0177441666602514
Ga 6.638988458762284 4.554890469550569 1.3049855970896223
Ga 3.9594317019523966 3.972926550142471 0.8082205760838025
Ga 9.353959481410529 7.515439440173986 3.9374741183745545
Ga 4.720655052448548 6.6063279411897975 1.1345773587276238
Ga 9.662392493203278 4.02772022026514 4.745423916463344
Ga 9.194924919172486 5.246401720079256 2.276907167370698
Ga 7.275717022507464 7.183494543102353 1.8653714743403784
