47
Energy = -123.2711723 eV
Ga 2.522117148837892 8.829567243773743 3.4946408669326696
Ga 2.594693501098212 5.596487321094795 9.09531701861999
Ga 6.9598548817549455 1.3477527891409473 4.624711712964978
Ga 6.649634567880728 4.079783338871443 4.390152486842833
Ga 6.8139523674496765 4.925960429345336 7.015195926843128
Ga 5.422726010809449 9.204771908579849 2.915420225582772
Ga 3.846761486137951 10.023663427815288 5.423465845918206
Ga 3.7837757567019854 8.487698075531021 0.7794117798461865
Ga 6.837976816548541 6.948216075251284 3.937950240167964
Ga 4.834668992110249 2.7102247647252797 6.012066292873145
Ga 8.537687016985842 5.387759023486853 2.4380415106519866
Ga 7.318187988041812 7.665495603557286 6.541095943701464
Ga 8.873717149799166 5.641808401638908 5.372251541249592
Ga 3.425525516201393 0.5272435532722394 6.930626088801324
Ga 0.9446411268549062 10.941474623866933 2.6252056823964036
Ga 7.762344067097239 2.382827150814228 7.043575184622376
Ga 1.8763554682055075 6.403188447592838 4.564017804353166
Ga 5.594682577515119 1.5130823559050859 8.500313593162298
Ga 1.4132896504599493 3.8145944851071376 5.444990677553421
Ga 4.132899881302137 5.790025623778608 0.04638045729202031
Ga 3.4805658351621958 0.2826082145783306 1.5158678437278639
Ga 6.08139297104674 10.68598343076891 6.510641966029235
Ga 4.708739477753887 0.02056707699950924 4.111351754518935
Ga 5.500875199781519 9.436780198536189 7.734358160666564
Ga 8.105645562464709 2.6538760522461455 2.2902495044164746
Ga 4.318976228893433 6.571974695254853 2.8539029616585685
Ga 1.7788745759315288 6.838890098883354 1.7367356795899307
Ga 11.063968274668063 2.11274606684256 3.489852723422783
Ga 9.302554935012155 2.980190406140963 4.721650540845419
Ga 5.046594056455241 6.786603616401825 8.20717534000671
Ga 3.669925452994738 3.232929079982167 1.2734729911323786
Ga 4.7264609557633435 7.470153803743494 5.402138134821819
Ga 5.980576862499251 4.429664050959036 1.722407698756217
Ga 4.008561947449757 4.214435206434642 3.9139789871026824
Ga 2.4061440229803774 7.818407045950173 6.904848062598332
Ga 6.660356899711608 10.129331885531535 5.191152363578677
Ga 2.472291138431749 2.9350916965331133 7.86417551504743
Ga 0.8859288239971407 1.1334440563519343 5.8890227159835895
Ga 1.1496548101949964 4.336221640238068 2.7764482676702262
Ga 1.259259372067885 1.9876585950268146 0.914130178400521
Ga 3.5947484203077837 5.181459284524046 6.457698181450526
Ga 2.714366752732616 1.827757404830508 3.767262208642522
Ga 6.57814140609778 7.054434776289246 1.0168379689376759
Ga 4.950533946755909 4.063079154116687 8.736627362575556
Ga 5.728405617989467 1.5605524766792143 2.0391320525591667
Ga 2.424431312385625 10.129331885531533 4.89818308155621
Ga 1.6040306464424143 4.657335388699401 0.010547124962676102
