43
Energy = -111.80723428 eV
Ga 5.157510106666188 2.4910813164671266 4.482781214982125
Ga 5.032142140920182 8.786194099207634 3.8382961209545003
Ga 9.65724813954947 7.483933387510075 2.1841648185733886
Ga 4.736762706914318 6.050267688118124 3.0390424451627767
Ga 6.780464213247177 4.557676941871456 3.648503224131591
Ga 6.604633901766699 11.375119109903213 3.8797762908671394
Ga 7.1818963165690395 7.288524063337061 3.2386727988962796
Ga 2.4525674156273096 6.929210956711595 4.0158215386767315
Ga 6.632967431873749 8.912853054292093 6.0783416940566175
Ga 8.194755841834523 2.614302286446292 5.034188237928748
Ga 6.276546650917651 3.525104215098397 6.82897229214668
Ga 8.598719196543911 9.39458416498437 4.2261850887311505
Ga 9.230293582846935 5.508791739117343 4.348138288374729
Ga 4.679567253309876 10.95767948993215 5.8003582145345565
Ga 2.445721793758392 9.605949346951471 4.744045549698214
Ga 10.87154550495064 7.786049031058467 4.5324028401591265
Ga 6.6152213281515175 6.21134524933371 5.852947031561124
Ga 7.452562045160146 11.544268949187563 6.566010781511794
Ga 8.932218270897593 7.321889631900953 6.466663969497937
Ga 8.930645192877044 4.563849898394794 6.831084625875718
Ga 8.111163361663754 10.238507656276584 9.03747498614967
Ga 9.713683927841284 8.1229223353183 8.980977115608082
Ga 4.088910772076326 4.910653139553056 5.525712334267626
Ga 9.79469914570413 10.004132373276073 6.640956354894007
Ga 3.9779490985829744 7.682328582597186 6.272051679221374
Ga 2.69767069356814 9.858196161833552 7.544368749466607
Ga 5.51474469059168 10.338084543128936 8.296226031478703
Ga 11.625441287924307 8.041152170002135 7.020830179020934
Ga 6.910775644647494 7.571339009894561 8.46627212277096
Ga 7.072083205554402 4.523269508282088 9.212913955850357
Ga 12.158212161083158 6.411422433382035 9.010702033786453
Ga 4.877451976801859 5.645989229796742 7.960874452998224
Ga 4.003881349791528 8.113452974719468 9.092537536817785
Ga 9.745847618382257 5.106932627016361 9.21927847612224
Ga 6.084053540370579 9.187940422335949 10.711652641800802
Ga 8.879103408548888 9.391508354536759 11.620866354478137
Ga 5.132770439949497 6.1943075974922746 10.624606015435026
Ga 11.954877173428638 4.614673627107361 10.98619371385751
Ga 10.70672819991489 7.191414196381685 11.211315856159173
Ga 7.9424735668042175 6.6952471372714015 10.731115544260998
Ga 9.341672823525203 4.618802256751044 11.986937635934018
Ga 6.2037666673588 7.529078964396739 12.783126466179786
Ga 8.914195939685863 7.016115807007214 13.342758425303813
