49
Energy = -128.7050124 eV
Ga 1.4485906361178322 4.56796645387374 10.248213301031551
Ga 4.051959303428205 3.471245170777766 0.41596837339546383
Ga 3.5459643947303103 6.210676042785699 0.25813488663149076
Ga 1.65077464095421 2.3548684161598645 1.6778592796589913
Ga 6.167319576564846 5.736173501948022 0.22604741825139035
Ga 6.195522748549123 3.3695391045892706 2.1510853924406037
Ga 10.24190000981288 4.598337967227558 1.8529484974500663
Ga 4.346474764452451 0.9336997124166958 1.582304643905089
Ga 1.1393836072880468 7.445335160889767 1.3826546349060984
Ga 8.165729559139818 5.199256903586212 1.8736520610871312
Ga 2.4094029551044973 4.929447773857501 2.5979024769333026
Ga 3.8953416591663887 8.39514166686762 1.904170054162109
Ga 1.1340176446847636 0.28130896861676596 3.4120166010861808
Ga 6.559563065243139 7.934716351641078 1.9715646481415694
Ga 4.902693262492906 5.67975576900627 2.8257697483871946
Ga 0.4422105299685724 3.0547579160202747 4.067675962457727
Ga 8.366888249886266 3.1885257206776467 3.949952265843941
Ga 9.000438134580298 7.843713461990437 3.213780815356276
Ga 3.8211406513787187 10.041442785314063 4.096134435931958
Ga 6.131134639995556 1.1929934567570153 3.7432778433760325
Ga 0.07413183788847079 5.728806135708167 4.32332288837876
Ga 9.93340290247936 5.425028223657554 3.925534414967952
Ga 3.406562036166036 2.4723957668352847 3.7992331010105853
Ga 2.310392022552293 7.403868128848056 3.971338095820614
Ga 9.390751157654007 6.670937739364846 6.337889881855136
Ga 4.525856696793645 1.0640814508323309 6.153098883587572
Ga 7.097689299370149 5.960407766341787 4.438353783352645
Ga 0.47721508747291697 7.2827301806508205 6.54709059413426
Ga 7.552529464201929 8.586410553624217 5.422766202389773
Ga 3.2624287057151173 7.545286835184966 6.4469877218768685
Ga 2.6258345095335867 4.728600553069847 5.3415675524063015
Ga 5.08652359140688 7.863208375529893 4.432175629670481
Ga 1.7451305264520143 1.451473155236652 5.8319919828272795
Ga 5.451807478294318 3.7214095586244413 5.006510463746753
Ga 5.410196628496945 9.041310391384664 7.038980793976179
Ga 4.73066463518897 5.264469015566746 7.039708795132544
Ga 10.24190000981288 3.615872926049196 6.202448097622349
Ga 7.4918957317561805 1.644397309031414 6.066399679221411
Ga 7.569439582745082 4.432208618566764 6.576588164397838
Ga 0.21107863194252358 3.969199364978015 6.707437334121533
Ga 7.039627579135864 6.91996180616391 7.735115523052386
Ga 1.9967384343634842 5.649472131230541 8.194853131999666
Ga 2.847880997932145 2.972956447057601 7.730775081870855
Ga 4.571423520250365 7.126124135386699 9.147799954664226
Ga 5.534504476793103 2.6053592697708527 8.068604857820185
Ga 9.401547865989096 5.131359344125269 8.690298953924387
Ga 8.193119719901663 2.5141908928426546 8.647721702760483
Ga 3.976393757152409 4.43260121774803 9.741666284875071
Ga 6.663470321156341 4.783557643722641 9.41921435023969
