40
Energy = -104.56655083 eV
Ga 7.830857768435851 5.563238216583186 9.113542621110753
Ga 9.572904486965598 4.284524058948171 4.884913103832283
Ga 9.564677581783132 6.200144386339036 6.812590807540697
Ga 8.232363340015908 8.859708422874752 6.212837908278399
Ga 8.318618735464876 8.175507015357748 8.816405935610462
Ga 8.582172508240623 6.953010853769078 4.245595770051159
Ga 7.933109183663888 4.589385372995114 2.678987016489259
Ga 7.469882992372854 2.4652868740009595 4.626499876350744
Ga 8.119757566509668 3.6615745533527893 7.250852463057523
Ga 5.884044489881248 2.720909069401129 2.412640260880405
Ga 5.406594603143024 9.82450443656289 6.724708110313991
Ga 4.659450948334058 6.655133108768057 9.688650476833631
Ga 6.737333638516467 5.193232578057002 5.3676999993909735
Ga 6.204580399546695 7.1006261029916855 7.295329649507115
Ga 6.02612589929187 7.992569463241997 4.643272900792893
Ga 6.8797652736050185 7.155635321742906 2.1964916496703197
Ga 5.765840299201361 9.0556063466788 9.277571874774372
Ga 6.283126077236012 4.773516218166062 0.5772577297979203
Ga 6.077829596451377 2.017692631458009 6.979995038876878
Ga 5.43540126316762 4.503796868645346 8.003159916921728
Ga 4.060887978177227 6.115869029341001 5.8564671549956495
Ga 2.7174683615843174 5.519858687611692 8.230212276803362
Ga 4.816649863928029 5.325975545924233 3.016536713513037
Ga 5.575817419189123 0.6468562731699313 4.3525685830009335
Ga 3.0283743862117536 8.44296503318262 7.999591185464223
Ga 4.939655400688727 7.173323145756117 0.161697523872893
Ga 4.467009686677346 3.311345853988244 4.903227008412107
Ga 3.1537737354734303 3.023707774900856 7.507459622668414
Ga 3.393765097491796 8.735221966693029 5.182392189485161
Ga 4.130702517271899 8.100117086438692 2.6928195925435223
Ga 3.7752590531888615 3.5630841387983945 0.6008389728305442
Ga 3.8534122903648456 0.647843462474808 6.585749352750847
Ga 1.2731679517275305 7.1394219915467705 6.384452204808054
Ga 3.4413454387107043 1.489351222691669 2.685399241511487
Ga 1.9739968892028026 6.6369617305533435 3.754560312417997
Ga 2.640223266286127 6.027117188425592 1.2329575809993134
Ga 3.005304096974726 9.82450443656289 4.402413242298282
Ga 2.2836340600365723 3.9563494334749 3.0605733610703423
Ga 1.6605032732719176 4.466123370313555 5.675196004097603
Ga 1.8851804253970268 1.9183781154335289 5.016908617748722
