41
Energy = -107.35112151 eV
Ga 4.077446824569392 3.9150976000963196 0.2981323926157322
Ga 6.119828509090014 5.530905166984429 1.2572120035476728
Ga 6.603796772670114 2.6212835434895547 0.9945904999648141
Ga 2.3350674971165293 2.410880254611109 1.696153443068375
Ga 1.8360958194538362 4.871220087354264 2.468152466132928
Ga 4.69616618953978 1.31084542166586 2.3375285414567606
Ga 8.496550440080556 6.8640970036351625 1.7717728066378853
Ga 3.7040324971122653 6.691646635330427 2.1770519578459764
Ga 8.618414028767116 3.905965804018458 2.292998539524519
Ga 1.1237921697190898 7.512488957652265 3.9700553787313586
Ga 6.101600025975733 7.776320668506622 2.917796285569997
Ga 2.299046777483305 0.357557954418753 3.7895522977931106
Ga 6.874637234181373 2.4524013156477977 3.9014752037556155
Ga 6.978780435489957 5.292243411592013 4.019885908840293
Ga 4.663060785026758 4.050817789238717 3.1381129093620315
Ga 0.4714422342157803 2.446441707845345 3.665675862494905
Ga 9.893704958715912 5.628247378819187 4.055738008676434
Ga 3.7184929158991293 8.508513928477983 4.336794467017911
Ga 0.07573480113543507 5.030476812565311 4.401472879995115
Ga 8.458153163731687 8.024757835609217 4.515734620399287
Ga 5.95206587933537 4.358433951245961 6.450822490893412
Ga 6.114512078877925 9.703855688724605 4.907907246382404
Ga 3.2109344009292 5.795540955754728 4.989020560892265
Ga 8.879747014338465 3.552927124214395 5.540401349568318
Ga 2.1830487299158556 8.12783583843629 6.787905296823382
Ga 5.747650077785112 6.922483381845392 5.665324043612693
Ga 4.78494529333199 1.0946857322976475 5.037455655362145
Ga 2.9041769370400177 3.167881975469702 4.970476640536462
Ga 8.523562348789689 6.054999932550284 6.57757004606613
Ga 2.287684442095154 0.9669824605808904 6.621774036976581
Ga 4.742858348091455 8.885088789818331 7.372379662370715
Ga 0.22785747468938616 2.8928251449269546 6.432424749701703
Ga 7.5732871222760805 8.666750611787876 7.242458393410659
Ga 7.0957875430523405 1.8096445990523735 6.602316014413207
Ga 8.055205587428755 3.865842090920139 8.371126487563524
Ga 1.000057866221612 5.7856002735514105 6.784433010679839
Ga 4.589186211063609 1.9603329491561357 7.5846531503023975
Ga 3.943251064358621 6.156455124525202 7.7570912988201135
Ga 6.59714062801205 6.396630219671727 8.560314120151252
Ga 2.65696391016912 3.8275438820673315 7.744004965313715
Ga 5.091726293440748 4.1129433270601465 9.301747637944858
