47
Energy = -123.05753037 eV
Ga 0.9731388057008847 9.183399686139044 3.3716108406953222
Ga 1.2318065442104695 5.960116175041116 1.1753502719609077
Ga 10.7673088396733 6.624393375204638 3.6709035139843724
Ga 2.8241805357464647 8.182459829586254 1.6268967234736227
Ga 0.8312905893032811 8.086049338897935 6.062114412528094
Ga 3.138048060441473 9.39107356181629 4.916741006428909
Ga 1.0117346298845156 4.111327426314128 3.5032022427838374
Ga 4.643134764132559 6.318165071684066 0.6902391505239982
Ga 2.595072151400524 6.686550427384548 3.94585899485721
Ga 0.25701242442673033 5.235489516492035 6.03079495869002
Ga 3.217657593340577 4.18808025497653 1.7509111452916435
Ga 4.995264716036829 8.346283868404827 3.1508562984915867
Ga 1.0233054912111383 6.503879063211106 8.558402816350638
Ga 1.1150458422994853 2.536589033380354 5.736057888608732
Ga 2.92868720533156 5.040474833301162 5.97370467737971
Ga 6.935688491697514 6.427349769770517 2.412867206698032
Ga 5.974390752574717 3.9080707679816844 1.8506606903258624
Ga 3.340449569507698 7.6172062637898135 7.00506849659802
Ga 4.791267273775695 5.164660402950068 3.9400969733037003
Ga 7.604075046919478 9.162995821675137 3.64144053997726
Ga 3.3031039755277916 2.6451265884413098 3.9727764347494485
Ga 1.961727718515951 3.7780412539507506 8.24113385113899
Ga 5.589903523813576 9.4165383468463 6.035944115680023
Ga 3.786720784789952 2.342515677557324 6.711003325893846
Ga 3.765262048873437 5.808959832703599 8.984978379441245
Ga 6.233947515778528 6.902769303635062 5.125344808429665
Ga 4.897695885521966 1.2178547411285234 2.259208942329522
Ga 8.099952885304756 8.472125497912641 6.443117565672259
Ga 5.862561244747268 7.339193816522324 7.910926206321812
Ga 9.104525452846275 6.884024600932717 3.970172569617315
Ga 8.333815669085899 4.118924082199399 3.3531196699671555
Ga 5.510331968523056 4.6903574258186485 6.881552790224687
Ga 7.551134713700763 1.591841292501019 2.280844033824447
Ga 4.749936996186722 0.39974569708916086 5.016514514316702
Ga 6.274630258362755 5.583382496204894 10.14871837208081
Ga 6.084096792749718 2.860508807790513 4.6233571152107515
Ga 8.048440772900927 5.310245628948491 5.926382349668416
Ga 4.914232739252749 3.0126952957801727 9.182373554232143
Ga 8.471644646366313 6.496053917585727 8.500747308079566
Ga 10.519920587037745 7.086811209810312 6.479373211005579
Ga 7.434615444452644 0.34219363128678054 4.802202388155388
Ga 10.7673088396733 4.571595084490594 4.672456112581013
Ga 9.96336939724845 1.65227391611085 3.5311217361242964
Ga 6.415628766912233 1.3880874124931377 7.345420284198984
Ga 7.594847687039512 3.7210435743236623 8.489425230864752
Ga 8.582376467166737 2.636852747486578 5.859905094615375
Ga 10.056064159515765 4.4012240534876 7.493607277944616
