40
Energy = -104.02433341 eV
Ga 8.191700860327764 4.876649766900773 2.083876177393834
Ga 5.818277448600178 4.6283035136551645 0.11524520757526069
Ga 7.729751266516059 6.592039746036768 9.74900257731248
Ga 6.585072245099139 2.577680666220561 2.0200150247063733
Ga 8.144267351905773 3.4532656772432415 4.401187160274766
Ga 7.763277935636948 7.647833562658335 2.5155834910613164
Ga 3.9332761279591284 1.10698874681827 3.1256014661952864
Ga 3.2672766516115423 5.740045713346811 0.12802675418663226
Ga 5.038860676856538 0.9849144111891996 6.420702601226553
Ga 7.653714131300875 6.142405569434137 4.759783919536375
Ga 5.579760948545746 5.48293141589697 2.6487719370163925
Ga 9.056188822322772 4.493348665914055 6.745203532898937
Ga 3.8307225769920543 3.4250509640038467 1.6057916324282961
Ga 7.763525130156915 1.9423228337649387 7.0079782994852575
Ga 5.308212588370372 7.647714018152856 0.8160243326211176
Ga 6.850830988974557 1.0339046263639653 4.307965016925181
Ga 5.186825706909999 3.1597552302800183 4.505814352667376
Ga 2.3592989090878955 3.73378370427475 3.8253576818187143
Ga 2.5897488765516914 1.4941670274095376 5.518295988501345
Ga 6.164884555755538 4.594766848240926 6.686540899905856
Ga 4.248542523305135 5.614268318573716 4.966695683363096
Ga 2.8484829193209946 6.5768030823136865 2.7367008737077323
Ga 5.03593464885726 8.251485035191251 3.3767415055536567
Ga 7.44191982599725 9.01966004992313 4.866252704301472
Ga 0.4510768221206445 3.1081904427899043 6.24891273405188
Ga 5.2374438009298006 2.5759940944409108 8.582695652031958
Ga 3.430393134313388 3.805766974569331 6.735457152252145
Ga 5.5713635786392866 7.449209706593719 6.103124440718128
Ga 2.6227397413938345 1.7418229284230244 8.390832293083466
Ga 7.307087349035072 4.361856663304244 9.185433524130522
Ga 4.683009719646505 10.124702881189622 5.358520142717523
Ga 7.985251266888511 6.91746808407204 7.474610312856709
Ga 1.411726095635958 5.641025222629861 5.593314311876404
Ga 2.860199289488647 7.980447726743199 5.372225365194225
Ga 6.809280415095089 9.451090282640385 7.734874340965273
Ga 1.4607005861984985 4.390656484489668 8.562546825696446
Ga 3.967117235110862 4.649874636949777 9.74900257731248
Ga 2.8252673917715523 6.525917970552598 7.866898221441115
Ga 5.576708564379442 6.646564013084609 8.795521502862773
Ga 3.998486067148367 8.90060277767158 7.893197843094589
