42
Energy = -110.08367638 eV
Ga 3.9383426414233997 4.972528410094918 0.4053684198115198
Ga 4.473647406800066 2.432120613466695 1.1657919271006922
Ga 3.782469622735583 7.475950158107828 1.6144055646756579
Ga 6.3933131585291845 5.856157710333775 0.7337807961492936
Ga 1.4300467607504697 4.336712784639383 0.758120464592296
Ga 8.261299834588582 5.350765241183669 2.572563462605298
Ga 1.9789920063028947 2.112441963897412 2.231970485908765
Ga 1.4137818707555683 6.471873547731666 2.614491383502749
Ga 6.308650137548813 8.399634768633156 1.674956093447765
Ga 3.371443136902184 4.594666797755214 3.14080795839235
Ga 4.185121676896448 1.8278296716468465 3.8138682865165965
Ga 8.446445543912377 3.3526591239052608 4.593675312771322
Ga 3.0378758826659507 7.774300999473599 4.435126176586466
Ga 6.077608840004016 3.7059926870890343 3.1001914457402093
Ga 10.554036997968057 5.296804594881942 4.079981057421653
Ga 10.691313899813238 4.0773722767985925 3.211265745600225
Ga 8.360275822485336 8.037548627180769 3.3703749910122283
Ga 5.257148947768135 9.242961738065134 4.122750803464714
Ga 1.7417884918663642 2.576891922185499 4.884913130192728
Ga 5.662940544698254 6.415998543327973 3.5385539592468898
Ga 6.335532006457946 1.8283726257529724 5.421156729674099
Ga 1.6009265350504895 5.418578201994777 5.160156017564638
Ga 4.554952073479856 4.162318210698553 5.669698097048892
Ga 9.940943445687484 7.59728259321361 5.6632579542644645
Ga 7.117148868980626 3.8120470304763905 7.004154468455866
Ga 7.326304176467012 8.841609328396274 5.84476133887803
Ga 7.57932676499437 6.017078163286555 5.376425727857644
Ga 9.72478480327101 4.717510377176902 6.739454304350248
Ga 5.112761698680722 7.106864872045645 6.127203718393481
Ga 3.622482193817097 0.9398257102622266 6.34177328416903
Ga 2.385826174947795 3.6486767092515353 7.175559906888296
Ga 2.7728127202696244 6.4883956715030715 7.2537461885696235
Ga 5.733129589404423 5.681402400085579 8.257744675153218
Ga 8.568529007175295 7.084659063869503 7.8644656224290195
Ga 4.86748326528305 2.585120395189837 8.097828239812355
Ga 8.378429137253212 4.664447616764708 9.249493241948457
Ga 6.249857927174861 8.601920618823376 8.335108114160757
Ga 3.9108927843845676 7.630740063388484 9.336380955967828
Ga 3.3099040225034826 4.607792614031136 9.383471317744434
Ga 7.295986158022161 7.010861304513902 10.351426828833146
Ga 6.150410942058324 3.5189851183103373 10.273669606510524
Ga 4.924925378754689 5.836876691446377 11.122683757464824
