41
Energy = -106.72815635 eV
Ga 2.8203683121800283 4.156045331642292 9.208372476128375
Ga 1.7259604948800515 1.9711431336950893 6.828497537445175
Ga 5.561317057727719 4.103033353203997 9.815808105892783
Ga 4.376367193446189 2.673045694474561 7.378287336794673
Ga 6.740637761892959 1.710095742759037 8.601500911111955
Ga 0.42834507309533126 4.164055208295653 7.6728250780054355
Ga 3.7681492154198386 0.33478816453618176 5.784670224365697
Ga 8.452940964934179 3.913466056934937 9.30031563566823
Ga 4.219285667879244 6.280362022620246 8.316155755473714
Ga 0.43243516314888036 4.4850561774109305 4.995365587781745
Ga 2.4626292829591523 2.7222498056639686 4.267087500988448
Ga 1.449549174129505 6.640274020271076 7.889564407730947
Ga 2.9094967957828133 4.693902327312749 6.306560305140843
Ga 6.415430375820788 1.6875795847553274 5.638148593769079
Ga 6.931840664591475 6.29009270516435 8.663776795194808
Ga 6.6060091174058595 4.063003507423646 7.0263402413492715
Ga 8.964833319542564 2.247552931352222 6.840869473642542
Ga 4.7419402842856915 1.2877557444166468 3.432048051500257
Ga 5.111589060270845 4.079627102671631 4.666369735517877
Ga 1.297237522398378 7.089749951381837 5.142851020856306
Ga 2.7069912420826525 5.407876480643137 3.454195282876558
Ga 3.8871866881050434 7.126062653540708 5.800122201014753
Ga 9.059179143272509 5.241931430850288 6.884893576313309
Ga 3.697110706705225 3.4471471545811423 1.871313946009947
Ga 8.323327556693311 3.5645266785380345 4.628473975969118
Ga 6.762397219344362 2.720174208809111 2.6117298791414765
Ga 6.446599313134376 6.377694137174505 5.764931158974008
Ga 3.115869764920065 8.252562080247632 3.3643425211656246
Ga 5.604629019164165 8.514261328922272 7.489896555483208
Ga 8.466428319248541 8.070146646937388 7.049471744131149
Ga 8.028636556754446 5.07656227691143 2.188202111312454
Ga 3.5308893334081324 6.155489633549418 0.9135774768868056
Ga 5.566661198535435 6.4114248600046615 3.050979961152741
Ga 8.961742051283181 6.328415261712639 4.465347480607071
Ga 5.042880633626795 9.483892788017862 4.888225358694416
Ga 5.860965574169963 4.4841037878302945 0.7258713189763054
Ga 7.646264554529213 8.634877370914538 4.479215394986647
Ga 3.923197630319694 8.84502655270953 0.847496563401146
Ga 8.653060102155381 7.664202484635505 1.911868055827197
Ga 6.259266983022196 7.069744593309122 0.3228886215251206
Ga 6.208491668144713 9.137642971780721 2.296992464450685
