41
Energy = -107.03484249 eV
Ga 1.8915951354969052 2.1803509172451987 8.163808761813911
Ga 4.070605329393386 4.090886243240371 9.125645228529896
Ga 1.2006432262797002 4.979800120423386 8.910977163529791
Ga 3.912070557052222 1.1820390342767613 0.029646294401669774
Ga 2.677280464772645 8.554383730518285 9.530609991973563
Ga 9.287389440993323 2.774596301890777 9.636069630964334
Ga 6.3094370072716774 9.875090989630934 0.9231521009190713
Ga 6.576709809981016 2.850509520574718 0.9295557953422948
Ga 0.7043202429732859 0.45938709443608977 0.32097748187401937
Ga 1.7736932234368477 3.0342885576744414 0.7770904922884454
Ga 0.5151270054442851 7.401308502783349 0.7876204929880544
Ga 4.091039014896434 3.5314000120097786 1.8086730640676203
Ga 2.974882388273458 6.083584877237162 1.0013281436802888
Ga 3.9159138033959233 8.78461555983287 2.093041545450633
Ga 5.841874028011397 5.714876970410746 1.476191571717159
Ga 9.585502250563561 4.913084674277946 1.4499164788787933
Ga 4.956389679991923 1.2755370870542504 2.863531065700067
Ga 7.688114566616759 1.343829337452047 3.2708108668125995
Ga 9.44316160198358 2.1430871396904694 2.5356531120795207
Ga 1.1678626878338123 8.065668702931603 1.8116305897258174
Ga 4.283715225356131 8.065668702931603 3.15754408071429
Ga 2.2644057112967366 0.9792653845517864 2.4769995537804914
Ga 6.002572544048852 8.961655814834026 3.996885514576456
Ga 1.6064254264275564 4.2026836282683915 3.108463213434801
Ga 1.5253737503600935 6.939966388262203 3.409945615465215
Ga 0.5077483383753785 9.476905951227295 3.984651885197589
Ga 6.494206668465734 3.8627108330594093 3.7739444142204865
Ga 3.8976071847992975 5.411625376145902 3.6843572960897015
Ga 6.281066816861055 6.478693421256156 4.538388533606587
Ga 9.319538431944073 4.337306908319358 4.663065065849748
Ga 3.6997670085638577 2.9047870014549546 4.466320607489489
Ga 8.687182500631547 1.3477321267336955 5.188156453372847
Ga 1.2544013831280298 2.1434031301551904 4.777749923841601
Ga 3.44254510007301 0.04284869419240583 5.023705204180063
Ga 3.5257605286549025 7.204845958453335 5.810223203814842
Ga 1.8779970431008899 5.005213871922378 5.943632099868789
Ga 5.847115787216537 1.5996665019045213 5.619098124901716
Ga 4.852181399391959 4.557137619088499 6.298425389889592
Ga 1.1628395402958809 0.14724418643909568 6.686758077583082
Ga 0.20945895135953846 2.958825385616804 7.239383937112248
Ga 3.012966022015732 2.4579065852785207 7.044858759301747
