43
Energy = -113.0359275 eV
Ga 8.711740029377847 6.6648295414594765 9.499768807182132
Ga 6.614345232416562 2.895427709378202 6.340363744211743
Ga 2.175885791237364 4.896729716904993 6.291936682216682
Ga 8.755368990004472 4.423997180265398 2.2819122417417788
Ga 8.91384345760869 9.473921739745917 5.307605558567443
Ga 4.263513528404173 6.559054914079366 9.399584762229718
Ga 2.1057592539885905 7.355965039515738 7.918043671893048
Ga 4.776767726430069 4.368632858460278 2.1059717193499727
Ga 6.467550993579566 5.881409030543131 10.817075496348732
Ga 6.6921282603014625 3.2062121195976463 3.6910677407653627
Ga 4.4609275347055215 6.851063465991502 3.5138129373207723
Ga 8.471681020328699 4.001999175945417 10.665377063485963
Ga 6.729410859039619 10.927801125924196 5.217406193639053
Ga 6.666482145895557 5.7971560212239535 4.950219586949162
Ga 4.359523239127644 9.095819497497242 8.136677459306723
Ga 4.3581037750175815 4.045549356081617 7.724524548800499
Ga 2.1257309393040846 5.0828462124026945 3.445010135382646
Ga 6.734456803872473 8.619355186420698 3.6268515946750743
Ga 10.931260730162714 7.533980018490121 8.149085349421645
Ga 8.858100193177686 4.108409792469978 5.0887989342123525
Ga 11.026228207011053 7.675859858033799 5.301470288122017
Ga 6.595607930441346 8.431649528183716 6.618523363562963
Ga 4.523702746337739 6.705410759076859 6.4630694756449945
Ga 8.649301664871597 6.675084992672629 6.600847819113578
Ga 6.75781200821642 6.313423289433277 2.1869826504587366
Ga 6.533935803684336 8.32106142322523 9.616393497089359
Ga 4.4513189086387 4.185876736143119 4.929401361248311
Ga 2.2059877153989325 7.502142401245697 4.916902620335655
Ga 8.905571949281926 6.956761420357028 3.723392496974742
Ga 6.563037650163029 5.640232595254185 8.01852462814584
Ga 8.816558168521995 9.325879701090447 8.179479348647856
Ga 11.236871999090537 5.266159035131367 3.8004304138771094
Ga 6.512198346723489 2.931725691055751 9.00578199331487
Ga 8.764306476833557 3.9689371466238397 7.856093102525685
Ga 4.461269434458469 9.249210374704429 5.026539244075879
Ga 4.493284486349707 3.9455793985602954 10.565893405886143
Ga 1.9354688776070137 4.802734601215327 9.133859201106917
Ga 11.047909324592979 4.984741884679176 9.4131430533104
Ga 10.96927149293706 5.001269541343041 6.595114944259074
Ga 6.631298287216798 10.780563305484671 8.265786985563496
Ga 11.239288736525227 10.044424712116795 6.853681593254889
Ga 1.9817952041695446 9.777392072187446 6.526972716573569
Ga 4.4507492216452755 11.500830179808409 6.699113878088478
