43
Energy = -112.3380586 eV
Ga 0.5697081367967971 3.4940290213737866 3.058505009464372
Ga 1.7557492134832424 5.405618530680196 6.455980171754236
Ga 2.8797502484837465 1.6287877835342544 3.187305414924805
Ga 1.211121452063867 2.891237953540981 5.62738434259241
Ga 1.861592400657171 7.66458584937801 7.953879948287332
Ga 1.918125174194274 2.5280207624295716 0.7981158838255226
Ga 0.8747697529433262 6.029316407643566 3.8403577895831407
Ga 3.6956633842765356 5.69698790339069 8.566492910097216
Ga 3.6728315016142794 1.5421077923818267 5.751547510405683
Ga 3.1215017961804796 4.2936134423351815 4.119339257622604
Ga 1.4799021544168862 8.116125250354314 5.318604522738041
Ga 2.56721860604 3.237593326902643 8.041234871301365
Ga 5.478474456148206 2.4464447532769436 3.7345411293120385
Ga 4.329446820041304 8.59883120953865 7.889935862167451
Ga 5.771470130264635 6.815926211484754 9.956962440628873
Ga 4.42366175801472 3.5208668707516853 1.4945418978461658
Ga 2.2210229695304275 5.223467932324546 1.5018902797268192
Ga 4.865329195903731 1.6567903906667951 8.259060802173462
Ga 3.985766058174441 6.851370219866178 5.689086632953043
Ga 3.8748102598619165 9.392702859068594 4.335319688692394
Ga 4.926563873462396 4.189020839572987 6.19475262887482
Ga 6.022362322761389 4.223251337275261 8.860361526322881
Ga 3.5020950449161896 7.010118040522494 2.9550351916205866
Ga 5.378396248852289 6.163253300442763 0.7258611160218822
Ga 6.269548622189413 6.461221098615853 7.149299164441507
Ga 6.701594666061039 1.9429656265282802 6.021720009009999
Ga 7.615189797301497 1.9791736735592096 8.626000268116647
Ga 6.913935634061051 9.079931790402235 8.660161059264468
Ga 5.674033464978345 5.259926980681735 3.496483320599319
Ga 6.157991956290817 8.84616354920936 5.726694537437349
Ga 7.921562680596954 4.258082469532446 6.721782615660017
Ga 8.334970631374526 6.256609346117123 9.050188550234962
Ga 6.023639352018929 8.0354471631847 2.941559480886961
Ga 7.1002592382282925 3.6146703616667657 1.51589685465298
Ga 7.650853548219047 6.508392197104385 4.874898061089701
Ga 8.072012574830174 6.2486163726907 2.118921956759431
Ga 7.952354203720805 3.537212489524744 4.082232218958315
Ga 9.84511854087941 3.902113406937623 8.723511002587793
Ga 8.74064758259327 8.142127531839378 6.8957356974033335
Ga 10.12344513473906 5.702232410527506 6.689986430225053
Ga 9.997776267446648 5.1727567719767364 3.9321220306887676
Ga 8.18771391425231 9.290655278813285 3.9598444877317878
Ga 10.437783000950773 7.789223372071632 4.786740507590771
