43
Energy = -111.97532213 eV
Ga 5.554834426653294 5.044398534801148 11.979854812211217
Ga 3.433412712735799 4.309910645573379 10.18390426746291
Ga 2.118700773112515 7.835363607017194 8.99249011350543
Ga 4.009619033184291 2.555799269701 8.023062827807104
Ga 6.1714550926026766 3.6272942473958754 9.61951179928665
Ga 5.9247850807690225 8.38890484872453 11.20371002062093
Ga 2.6007062614772685 5.409430334066076 7.792625788227866
Ga 8.996200385706473 3.8428845502756563 10.08143720468288
Ga 3.134021407252737 3.801839952507294 5.696475023253521
Ga 5.132595251506379 9.521936195130849 8.653807051774562
Ga 4.635110762742089 6.678683012811546 9.534644167853502
Ga 3.725003931462051 8.366419680882977 6.836831619669484
Ga 7.381997207656146 6.080391601446125 10.26465226299627
Ga 5.407326735472004 4.947979838038661 7.381131036110095
Ga 6.014914584101947 2.405968537194448 6.152080514196132
Ga 1.622120234763437 7.080818145245673 5.7756564452629116
Ga 5.346132770844682 3.959966256564691 4.083478712333628
Ga 2.5782757039855775 5.540109567993279 3.6442822365749077
Ga 7.945470790099587 3.4232689750711254 7.548411243065217
Ga 6.655805185363916 7.350210239590492 7.740864171753047
Ga 8.269725155473013 8.555423029072163 9.836118591555898
Ga 10.34093995430521 10.162204259152425 5.980631393992774
Ga 8.273509628721825 9.745124738015454 4.166824771028699
Ga 8.115387297096598 11.960334488666179 5.626098537054989
Ga 9.0061401176087 7.706335277889539 2.5930773824167983
Ga 10.968205019210133 7.965917419611999 4.420988251132453
Ga 10.446316929460162 8.82905699798491 8.276123547243662
Ga 6.645126088752647 7.574645429615877 4.036310118453676
Ga 12.288858185120892 5.416321648788292 4.88511673745558
Ga 6.948266622131864 7.022109659712405 1.1002587544881421
Ga 8.087851844559834 10.39081774280182 7.774585610057076
Ga 8.823051382618985 7.54557920552264 6.164985548414685
Ga 6.057062930245635 9.541069880438185 5.923474928617716
Ga 11.886575229307988 7.1311550787271365 6.96390060096873
Ga 7.438520399936162 5.252886706455362 5.622005170678768
Ga 9.769444791302679 5.330625091940321 3.997817154399672
Ga 3.951759953240003 8.722004811729446 4.118372549175483
Ga 7.461955987888824 5.021133838547659 2.8745957460091778
Ga 4.655932626271385 6.560604391144112 2.3989824059051474
Ga 10.15780713190281 4.813012060620674 6.685608083937115
Ga 4.573749869898705 6.331703071768817 5.356809935676105
Ga 6.836317454256931 10.92170462630529 10.15749964803794
Ga 9.560034547137676 6.279679983398267 8.801930692591704
