43
Energy = -111.76162643 eV
Ga 4.699606724468298 6.978227489583994 2.4916509775337174
Ga 7.309722255067521 6.652147164629147 3.603326110795617
Ga 6.335057644186157 4.451521679549133 2.1925817794207902
Ga 9.02355732843221 8.791515132483141 3.8764744360800405
Ga 4.135563083594884 5.2685074609542415 4.366794772904114
Ga 7.949795571474235 11.117230764234593 3.4974015227233086
Ga 6.144258794903725 3.4653915948370075 4.666511631310059
Ga 3.0984403745305062 8.913843980874336 3.4624807377115605
Ga 11.26967471575382 4.233743769788887 4.097524691021517
Ga 10.48194350959742 6.727910649074901 4.5792827792375945
Ga 4.105259315446849 10.242489342318253 5.647715372835568
Ga 8.635112984280426 4.3439945656941905 4.233602027867535
Ga 7.954426954057122 6.900619390819818 6.196357385085235
Ga 5.944496228022145 9.338570094295012 3.147882316050378
Ga 7.683811593551892 4.2201003043967145 6.904064631909902
Ga 6.886374900455706 9.541914615618943 5.691241916045886
Ga 9.04996848863294 11.208848378836588 5.984134704067349
Ga 2.89931795067987 4.109606549750232 6.275968170919136
Ga 5.431617164352463 2.7819989279546604 7.018920405814293
Ga 10.635218839639506 9.057196702808914 6.199886751704318
Ga 5.118317993080759 7.609601051261625 5.274011160394691
Ga 5.252230708969026 5.703602183643893 7.063298136480299
Ga 8.28791423202093 11.733725703737186 8.583746509756244
Ga 10.18060388571231 7.101992523258191 7.959712951197288
Ga 2.8975995974110362 1.9550229821786749 7.848338238826997
Ga 10.66665435299996 9.851039337413088 8.839412898324847
Ga 10.457522998097849 4.6327013075323675 6.587456431824373
Ga 8.120319409590875 9.067143951272113 7.95693598450288
Ga 4.188488668942943 8.46297525045303 7.665667577165319
Ga 2.448485568305825 6.467410821286985 7.503569951226067
Ga 3.6737475529936328 4.315997000825651 9.072746663296142
Ga 5.052695297434193 1.8478891333557268 9.571115165297549
Ga 5.712483676329817 11.145913395769247 7.665523107959207
Ga 7.040933374359543 6.784352139841428 8.840530509211346
Ga 9.180111430391683 7.980943685309106 10.469101658665103
Ga 7.906006235418461 10.27098790288016 10.809960312622497
Ga 5.760721999762769 9.263628570563732 9.567797937411996
Ga 9.348531358844799 4.553644428166932 8.99045391907414
Ga 6.409991154095192 4.192478790214231 9.569447724507063
Ga 4.345909787957089 6.731939372313287 9.87349585478661
Ga 8.131507130622994 5.558709733697587 11.121805975726405
Ga 11.090352176790878 5.992279649061962 10.499455327885688
Ga 6.256709460833691 7.631704999553548 11.73367535491241
