46
Energy = -120.7442328 eV
Ga 1.5453973842695445 6.405197145216586 3.1317317644545897
Ga 3.1870025299499627 0.39351730888119396 5.138002365606039
Ga 5.014081652059517 2.7298372979121073 5.58853592072086
Ga 7.510227901375699 1.9753861567792366 3.9709035325076165
Ga 0.4450940213281291 0.8751256012449189 4.897050511148786
Ga 4.728490763215825 0.8736626481303811 0.5109296042671059
Ga 5.83022111118286 4.736288290446465 3.8892925987644897
Ga 8.05311876952817 6.737705883264065 5.163999692117682
Ga 8.37717712399179 4.542242667151502 2.742180668305583
Ga 7.860933981408642 4.0220760907802795 5.54162108929459
Ga 7.06989328442641 1.787793739047963 7.213045717760253
Ga 2.389894941555587 1.6316255773024033 8.809699965375245
Ga 6.553086161079581 2.862503083208449 1.3699245996577032
Ga 6.873835239599186 7.134848560818551 2.6701587521917025
Ga 8.557585873159798 4.444400187986847 2.8535754352199727
Ga 1.2689023130161754 3.3233559511052313 1.2475964464437261
Ga 8.377177123991792 3.354663899015072 0.1907249298395773
Ga 8.804255357643509 1.70182646974502 2.7465829656531318
Ga 0.3748178319919697 0.5725407404203169 0.6683801958953945
Ga 6.074845208986223 4.727737049778069 7.4466052917578365
Ga 1.1980210927438577 5.12262589887046 6.675364415471317
Ga 4.135507754197278 7.135873821614474 3.2836658469619273
Ga 3.5243755566477812 6.3570921253618975 7.688637209184909
Ga 8.631267727239504 3.172052367206744 5.509922497250892
Ga 1.1002935199217716 8.572635891669155 3.1359399501913754
Ga 4.819873051956943 1.683389074441917 3.2417383491749194
Ga 6.821720335492177 0.05386111887090631 2.136726419495683
Ga 1.8960113043367213 2.429488119306617 6.493573524472223
Ga 5.6974798641417745 5.3592009826498375 1.001374561703615
Ga 2.374123170481661 7.777966939650974 5.424999167409008
Ga 2.6863539140117108 8.60758706876104 0.4350940919118975
Ga 4.922276895707742 7.973578335063821 0.8377134742419066
Ga 4.2942413440055685 1.08501002130626 7.657454246889188
Ga 3.460068894379559 4.987768804036322 5.145123466677154
Ga 2.9068911561492157 6.028569280518032 0.6219723306801312
Ga 2.393567335950927 1.2519890188046923 2.4640684537974504
Ga 0.10331089872607543 5.878877769977948 0.8503858806398252
Ga 9.115741387859254 6.1684573426343245 4.891271399311346
Ga 3.567904601869326 4.005965516922961 2.470282386249371
Ga 3.6466081511155917 3.6490857579367177 8.122173726791203
Ga 1.299480104447319 3.673068407135247 4.0483694837380195
Ga 4.218537239340699 8.560981245008291 2.9287101578839727
Ga 1.4671090350844405 4.432909127081169 8.406864479384721
Ga 4.132832528242323 3.658113050862081 9.2214868037516
Ga 5.365159204311726 7.063971741096664 5.717701758308062
Ga 6.024208843265444 9.52467680161211 5.194100339327512
