49
Energy = -129.03146505 eV
Ga 8.810517378286981 8.068847194869258 3.2280807250783683
Ga 10.02488235597763 6.028564022219424 4.964814279701622
Ga 7.623284808997528 7.670336786125545 5.6393707568893
Ga 8.783827692797308 5.60082001726904 7.3437065904962
Ga 7.121384050707389 7.750322896455198 8.222051850074546
Ga 7.53920066779912 5.297225303100483 9.716089858854716
Ga 5.21732027941707 7.100831948166563 9.942922782330577
Ga 5.67491980368405 7.025177276038657 3.522813977554778
Ga 5.552891351869577 5.124689388100037 11.76833116716743
Ga 9.115477604141908 3.1595003320210915 5.596634340359738
Ga 9.553401114159568 4.105674555209486 2.9699152917555995
Ga 7.709729121932636 5.948700581241444 2.0429899554026543
Ga 4.96484027526769 7.68625009925866 5.978421398949014
Ga 7.219973632007168 5.135891142400314 4.814541916719869
Ga 7.658922299952061 3.161099057094152 8.00576096658543
Ga 4.242832271638983 9.448130661699517 3.9521618365047506
Ga 3.3358498540196497 7.10294873404968 7.945928688700549
Ga 5.702673319524108 5.278454196016132 7.522753490073294
Ga 5.608298768723439 3.1979815052955267 9.856937206470803
Ga 2.903035680261108 9.536872401808555 6.494178832588947
Ga 7.2916889041686215 3.406573180257628 0.8888141584831244
Ga 6.409409480663734 8.413893879219538 1.1374021317900063
Ga 6.800368612494215 9.736681384928023 3.6347836813866117
Ga 3.488358297908601 4.92355528688217 9.555830513950816
Ga 5.423474512760701 5.78386366141551 0.6330785844810597
Ga 7.998360056277059 0.9062084954777077 6.505585389168843
Ga 5.715316025449861 1.0647239643840603 8.177992055079601
Ga 3.7374369931126723 7.9654690225909635 1.6086136626743912
Ga 3.792704011479334 3.049306446607169 7.6486225108514905
Ga 7.288449340663766 2.5148021553418527 3.454256780515884
Ga 5.854192885523025 2.9638340679502138 5.768049378340809
Ga 1.418416786956375 4.5489668355200505 7.580896972546029
Ga 3.695867028147051 5.03681352733783 5.568984328124027
Ga 5.055839792560965 4.435038970862734 3.104095265658578
Ga 1.684533209055768 6.96629813548911 5.894742794042662
Ga 2.6277353716016103 6.134383421631068 3.390845637107113
Ga 4.517945049990099 3.04004451603947 0.7001706050153582
Ga 1.686581494895554 8.723174398724133 3.831247488333698
Ga 2.7439285840399266 5.143805189463356 0.8233734829185031
Ga 6.0385757929225585 9.928414082370775 6.694795294344798
Ga 1.069847617298596 7.353569786264282 1.2848544589244602
Ga 6.300070236692131 0.1864425241462486 4.37658080807581
Ga 4.053435111263798 0.7065598339237178 6.027924626572703
Ga 2.236473635741368 2.6051666446325563 5.523842052192939
Ga 4.415168726525918 1.7492125278358717 3.351532322076716
Ga 0.6007077935005748 4.657038170412936 4.789112087725075
Ga 10.64198341239573 7.017342406056579 3.618685302196818
Ga 2.333386306376437 3.3232953945551547 2.8944327276296993
Ga 0.20537617766527824 4.73692128192337 1.9726503135478137
