43
Energy = -112.03069825 eV
Ga 7.918659662931895 6.595571071524481 8.861278524456978
Ga 7.7119869251885635 4.336209808066339 7.4567260672720606
Ga 6.638695283332104 9.062714002635364 8.077534628901594
Ga 6.721059756105155 6.860146057669717 6.4349952437851305
Ga 5.365488560585192 6.817708641988174 9.693222972814388
Ga 7.72577722693909 4.9570546561645035 4.718033856612956
Ga 9.02193584962544 2.623873719175201 5.956156918701667
Ga 8.301392683097944 2.7758279171911604 3.1115147857289127
Ga 5.016999505182438 4.90390058189642 7.762464673735768
Ga 6.764642412448798 1.6313328997837144 7.609477840605263
Ga 9.685673822947543 0.7222583192903366 4.15511241167214
Ga 2.8554749938728734 6.357538094539508 9.454272323386823
Ga 4.144446805994624 8.072406246738096 7.5446643673477425
Ga 7.1403103014019305 0.42917296853486087 5.123982908480886
Ga 5.3321083447519975 9.320224121704102 5.314096426402525
Ga 4.218706579392785 2.1356391535675847 7.798559523366691
Ga 5.901546087673373 3.004918944550019 5.313108613801605
Ga 6.513258986407614 7.234102734934854 3.7888795258504584
Ga 0.3474230414890276 5.434095938604375 8.962411232795144
Ga 7.8838535489335655 5.414462526838333 2.0382616708645456
Ga 4.2900156573773724 6.333731998894341 5.466136204502581
Ga 5.284052596974874 4.2322070929467275 2.9917698008546503
Ga 4.524765835399975 0.5392214125998244 5.512934840804714
Ga 3.8533754835192533 7.695944124126469 3.273845736180042
Ga 3.377751284791814 3.910421830830776 5.613488015900786
Ga 1.890510293664047 1.4283481177999715 6.026691236393071
Ga 6.833106049445912 3.0408511496656723 0.851176175428459
Ga 2.483427370829487 9.00134621817961 5.362092904413327
Ga 5.531557332112953 6.617067587143662 1.3890401208424676
Ga 5.9623004353886975 1.2455229354200397 2.855838293514976
Ga 2.470503603830256 3.75354277684598 8.646174598937296
Ga 7.073054767823052 5.364978035407631 10.448787558479216
Ga 4.136292840392379 1.8902379781273246 1.0758023803352883
Ga 1.7679012604625284 6.838176265951204 6.963753561413822
Ga 1.2620023715134825 8.274508014068225 2.6922228664793195
Ga 3.223031806921769 2.127904193079937 3.5897776294592783
Ga 0.8287585476958617 4.251062225424853 6.511187972810365
Ga 0.8251545672283063 3.3594723928245482 3.982999477157286
Ga 1.6764626270612168 6.129954308662383 4.376846937811614
Ga 2.864844443984824 6.927417260860169 0.8091444298298699
Ga 4.381877936129959 4.295150036427615 0.06652951592633655
Ga 4.690748512096882 6.623223627268754 9.693222972814388
Ga 2.494228552681975 4.59189806628808 2.133571263305584
