49
Energy = -128.58785723 eV
Ga 2.9400681937648807 4.1126829212119205 0.8577040729380219
Ga 0.6643054573144757 2.697424960240681 0.7283632242727868
Ga 5.131797508155557 5.406802645573507 11.801039183557204
Ga 5.4459634438113405 7.696308443643682 1.3273142411407755
Ga 2.858393582653415 6.732171649968606 1.64401572013737
Ga 5.291951077613052 2.571701865825818 0.2100757261548211
Ga 7.17082707113726 4.439720333836105 1.5419876463003648
Ga 0.7312550669302195 5.077323802178356 2.241818134957111
Ga 3.1196601388603855 1.2055205428501397 1.3084620000716212
Ga 8.051358478044532 7.018954691809315 2.1379843537425547
Ga 6.458667890173023 8.979293205293532 3.5524407872228108
Ga 3.7638556915254 8.217088953811349 3.710816765441513
Ga 0.5211856616682586 0.53958962022357 2.447212906641723
Ga 11.111618372372114 2.883877886587654 3.397611022782081
Ga 4.718625706069705 3.5177070499053347 2.9077219321149825
Ga 7.230200007704287 2.4219115770792046 3.6540923883386855
Ga 2.097475388682479 2.845577470257811 3.455670560341018
Ga 1.1960221961653772 7.232674942321536 3.887811757186302
Ga 5.561612662114013 5.938091431361442 3.4544513040559073
Ga 5.280797540547414 0.7580958629473468 2.852795256848455
Ga 10.452337985070862 5.68586052203861 5.684095823029989
Ga 10.452337985070862 5.681332447516807 3.867410763812296
Ga 2.8256695187501553 0.23498645931949003 4.082986710277978
Ga 9.261913333486987 7.936761439433999 4.344281274088025
Ga 8.358340436786383 4.9167734970343995 4.030358713420957
Ga 0.3696158738290416 0.7962591031678901 5.3578069399167285
Ga 3.115536961918436 5.335701026795662 4.357082661785708
Ga 2.870893470895758 0.05770653467755248 6.825791315810029
Ga 4.6128724437472775 2.275732859571711 5.314513626047586
Ga 7.072216605544405 6.838819808339817 5.603300932971545
Ga 9.286344527045193 3.012022211676661 5.929577535738107
Ga 5.31231518131762 11.42593570926182 5.31902698409386
Ga 0.6276817543473369 4.498684627495948 5.213023922108363
Ga 7.563245876328362 9.82970201278212 5.958169840860157
Ga 7.176419301379843 1.3002544110825454 6.205119178789088
Ga 9.1937356372224 7.818487543871333 7.209978265865094
Ga 11.721999632323424 7.007150955299731 6.337475427429219
Ga 4.906790760104925 8.89078189310805 6.066170600248763
Ga 2.3721695029048946 8.115738582594336 6.379171159899508
Ga 6.484017572963817 4.118038203394669 6.064982433984962
Ga 2.0916709686054955 5.380561211351005 7.3089054002888
Ga 8.618165524829477 5.132733090417154 7.740277510445216
Ga 2.134308195971331 2.682142516658579 6.440388258507006
Ga 5.16619376798099 1.0670267733002072 8.059853855285589
Ga 6.499035081870215 8.049378105491373 8.123355170847955
Ga 7.433925960601532 2.822983875326451 8.570820693825182
Ga 4.5594664150510145 6.188799980907319 6.509546300378597
Ga 4.324875286602616 3.672270999837709 7.823050316505192
Ga 6.168190227016485 5.502052275937215 8.721287934109476
