48
Energy = -125.74346614 eV
Ga 6.748702796486268 6.343414818272009 2.8193332955901593
Ga 8.813516086725672 8.184718423574354 3.2981524725968554
Ga 9.671373521491217 10.95368400816512 3.907131732878988
Ga 7.089530565305611 7.4211241407992725 5.3374879899057825
Ga 6.853279989963239 10.0885677447542 3.794691458045841
Ga 11.308675276246495 8.748434179292593 4.59387997328753
Ga 5.09717010274348 5.603271683442136 5.124597216747774
Ga 4.8566852861021 8.161369969507527 3.9280382544922503
Ga 7.694456566333555 4.369825473873691 4.59387997328753
Ga 2.648091299270576 6.597107483821242 4.679478007720299
Ga 9.799251739286223 6.394471425350405 4.981109292179575
Ga 8.87799969071975 9.24114765512716 5.954432631211616
Ga 8.202179489719342 0.33750099032757935 6.438577000525874
Ga 10.975282772980151 10.88638994953379 6.779442737137029
Ga 5.6756930164778545 6.969028850549102 7.6322486326554655
Ga 1.848163910714587 9.682805463468373 7.2606752973395245
Ga 6.311867157181902 4.285373881465598 7.095500780397152
Ga 8.01745782415926 2.343750842173435 6.669931078922252
Ga 6.104899143153986 9.991777866025265 6.300716675537418
Ga 11.37650511426926 7.776745444006632 7.004701114922496
Ga 3.306466178731312 5.602785528470156 7.26733080345906
Ga 3.7967941448595535 8.375773856862295 6.430456800908738
Ga 9.247967526546978 4.637073178173613 6.866060971218124
Ga 8.707290035028272 7.205922266333022 7.62034826207384
Ga 2.648091299270576 9.307767496238013 9.967134196164599
Ga 1.4708782034171035 7.0474050865274 8.96589648765859
Ga 11.40084547827993 5.163749807344295 8.410989270957986
Ga 6.764679151631916 11.328683286405958 8.75518214210118
Ga 10.080926747116639 2.8390433189835127 8.656976678881547
Ga 4.784032744369875 4.483162721811109 9.40074814244987
Ga 11.570425074579056 9.609359443615778 9.356243903744797
Ga 9.12399410088772 9.934042849908046 8.7140815232735
Ga 10.15549681805812 7.254246341470228 9.966148987762494
Ga 4.581870047365417 9.801671268844046 8.5104956113276
Ga 6.847453149851417 8.492052104710115 9.368117177921988
Ga 7.382694129081059 5.806938791255264 9.375778538668616
Ga 9.985211464726635 9.30112943043876 0.19868058455671853
Ga 3.326476993062141 7.459592647143949 9.35834377784687
Ga 0.8142783656370504 8.181983719196555 0.0428178692339875
Ga 7.274463133240567 3.076073801508756 9.40290502990638
Ga 9.4113694229906 4.650911640989705 10.683634610166106
Ga 7.648543388292356 10.302197628584281 11.118389774230913
Ga 0.39110566482877684 5.43569901318748 11.200549024542958
Ga 5.278204906021508 6.8183042883704585 11.119511443956865
Ga 10.22138598342341 6.65823484244389 1.4183885475658298
Ga 4.889975243987501 9.64260196517984 11.226568026390112
Ga 7.842048688912895 7.359988143203631 0.12525493474876762
Ga 6.492022118351132 4.325826234840417 0.07573779283769863
