43
Energy = -113.29464229 eV
Ga 6.997985933930839 4.652801951619054 0.6379268529215834
Ga 4.199937511512499 4.5136772107277405 0.5356368986151583
Ga 5.710969767440271 7.02883118229608 0.3657659209673408
Ga 3.0724470333204503 6.9441195289928395 1.0557564046459917
Ga 1.3672854460814718 4.869460435861872 1.5350272945767363
Ga 8.29682169281397 3.121772356242731 2.5523798751713676
Ga 5.763285429007241 2.4631043147107334 1.58414378580676
Ga 2.655358335759415 2.374853440601058 1.4481659862342915
Ga 8.471265956925192 6.439071270365992 2.1249220332835623
Ga 1.3229364082587065 7.718380922199504 2.9394134266924463
Ga 4.507152633465898 0.38527250984248335 2.5822944691478575
Ga 6.648271038910469 8.421897305844967 2.5543130287067775
Ga 1.1846385991513613 3.043266671696363 3.955890053441147
Ga 5.584008608789813 5.591193622458801 2.865612079446638
Ga 6.734919715003292 1.3801575922171743 4.007651205113131
Ga 4.029475907279518 9.091175453976287 2.5380310901735994
Ga 9.559733765675928 4.980296088057831 4.163524645505113
Ga 0.1802834807812605 5.50270446226511 4.001859151759181
Ga 4.133287021937827 3.0163265710057354 3.843854023317553
Ga 6.830989942200345 4.231214600645696 4.739134121977978
Ga 4.482658791988259 0.4086981767597039 5.4734324140132005
Ga 3.0299237090808844 5.479709131390063 3.656114923692245
Ga 2.6435367069876947 9.205899520225763 4.894117286095765
Ga 2.0500844648518233 0.45779598404678484 3.8863824950414236
Ga 4.6893559018514726 7.401410891347529 4.786566567346703
Ga 1.0939909749186962 7.1763321180902775 5.941681004304883
Ga 5.031058958640224 3.294534772649564 6.341995827398148
Ga 7.419965113812027 6.942335732908101 4.735137802416078
Ga 8.945942070744213 2.521139432406854 5.365115130684764
Ga 0.7314457529787981 4.293845102871362 6.485568445248455
Ga 6.884380700252192 1.0768046535334581 6.817393699019185
Ga 8.970472371702423 5.726660762338881 6.718818290571805
Ga 2.4430998139004694 2.122829920652619 6.292082420473726
Ga 3.3581531442885875 5.39556909652961 6.255881265162884
Ga 3.3607983780279826 8.208891961322141 7.371941899675111
Ga 5.941124581079465 5.953976137272844 6.796686940741093
Ga 1.6765097104680302 6.188424300068288 8.389384616251945
Ga 7.672896493709694 3.4935437003978316 7.722124572863536
Ga 7.30934169072236 5.952715633314368 9.172825252390288
Ga 2.814852743976886 3.724264140081882 8.56828283132505
Ga 4.49515468915831 1.3519176802066935 8.251285848382311
Ga 4.443317167812349 6.355686605440544 9.11474150049744
Ga 5.5217508945162805 3.758306108231512 9.192005672614098
