43
Energy = -112.22731379 eV
Ga 3.0059710624260014 5.8390134901506485 1.2015633465182838
Ga 5.1121773501570225 1.7491467321457026 0.8269462161249695
Ga 9.559339272126797 0.8368242533830267 2.0346335734491037
Ga 7.843280557802183 2.820155276307614 0.8262002323730978
Ga 3.634082517031195 8.346469168947827 2.0476342661059013
Ga 3.398356270516744 3.6334289413858154 2.9014476132610816
Ga 5.258077937512799 4.463411109683967 0.8387264015805272
Ga 5.518502987969763 6.452507054316277 2.61193723854542
Ga 0.9581934276128815 4.943070027065262 2.8597579001921387
Ga 6.887547012925397 0.6254397426241082 2.5311768971267528
Ga 5.498044891605985 9.063902626218235 3.7559653795943557
Ga 4.077781229644053 0.950273919768753 3.2651391747639997
Ga 2.5705244080709266 9.013086125349908 4.497871592705612
Ga 0.8795594055261468 7.694259800741995 2.2707583725209344
Ga 6.200976828442763 3.1604942631413606 3.290907374755
Ga 3.324646768510674 6.351989118200149 4.184657247548769
Ga 7.988306157569025 5.235102526433986 2.2200746359003816
Ga 8.96715309157763 2.9281518445669525 3.5451035812662477
Ga 8.698874284070675 0.31584517333278994 4.654286861598741
Ga 1.8588378963767993 4.051396415982957 5.184421652973169
Ga 7.608168598488349 7.2887036502593485 4.16624683808043
Ga 5.977827013949044 0.46490151234900307 5.1620848490174485
Ga 0.7602137613810471 6.8092437016538385 5.034771805369156
Ga 9.246245713770698 5.214028413025435 4.963289365783498
Ga 5.873947926102247 5.193418059454289 5.034328005714752
Ga 7.560717370002052 2.6846733656424653 5.823038389660243
Ga 4.357457546581865 2.927167929413594 5.4171698696081325
Ga 7.226431158254671 9.6400971294455 5.743641376011461
Ga 5.421550459420837 7.5009329071581154 6.251240951245197
Ga 3.9162737815212854 5.132517330726927 7.058309878025647
Ga 4.387548177602464 10.101669213720651 6.29786147163668
Ga 2.3600622291971556 2.714470844842409 7.444602113376193
Ga 2.7535415773239897 7.6120239892781205 6.794042846820444
Ga 4.92118156673311 1.366196432146087 7.558998426148057
Ga 1.0681586426346088 5.444243722108873 7.4522154646387495
Ga 7.790696187897276 6.113417472711438 6.992584922961635
Ga 6.3343612799010875 3.787032869942621 7.768155236107427
Ga 5.896412903877414 6.046569333533988 9.059596579974793
Ga 4.313822515876091 3.58611345486271 9.504435085983667
Ga 7.208436704743104 8.454847859861637 8.337913729070763
Ga 4.5027700132761925 8.54951985507181 8.761787827599502
Ga 3.1056221099356387 6.31962045866159 9.446138953932353
Ga 1.5603330704162883 3.9666365507434835 9.770350120691068
