44
Energy = -115.49247715 eV
Ga 6.438042163554874 6.950633518473038 0.5483796854224258
Ga 7.811202888063147 4.556560024301756 1.3283107174266597
Ga 8.609585779919353 6.739164396249966 2.897116496720092
Ga 6.135516138748849 9.988601192879532 5.1356525346263435
Ga 4.065123364371253 5.534366306664771 0.4298747255116735
Ga 3.9062211189366534 7.831700045959614 2.2147846655675347
Ga 7.825022875637747 4.215553145089954 4.151246881699731
Ga 8.759370678079106 8.711883741946146 5.074305518011687
Ga 6.600776533975874 8.486788717875257 2.9050946499737558
Ga 9.763793967435339 6.06978456844278 5.38258128391168
Ga 5.506118863210491 3.2375514121776976 0.8174226189537088
Ga 5.690576064508438 5.635935035657205 2.8932032509693677
Ga 3.546536379534564 9.435560821317695 4.575363567283781
Ga 7.212570886687444 9.213293040025981 7.5300805455561415
Ga 7.1600975110263585 1.9139623835868511 2.7705094401064065
Ga 6.866836309034725 6.613225439082346 5.361082979964862
Ga 2.333142744415074 5.543859726317706 2.5108490405789152
Ga 3.9167619374168336 6.580109456414648 4.662839747561085
Ga 4.954372477890413 7.9702491541719835 6.58968986657972
Ga 2.5572728960094744 3.074344059466354 1.2948385945082344
Ga 4.52965533214258 0.8747968291695717 1.9411403116627186
Ga 8.642121918737452 6.91335552276341 7.68318928403818
Ga 4.223520981645725 9.934942822283961 8.2560096722715
Ga 2.4963896873066553 1.093390182073408 3.817930124639376
Ga 5.806283430782357 7.702452971025331 9.37736434843306
Ga 5.806692182091248 3.197795491232633 5.828280377426747
Ga 5.463537190913795 0.7574340113040018 4.543062724774471
Ga 8.270422012330803 4.339369839464718 6.922481960346675
Ga 1.2209181010992147 5.854537825710598 5.175398919878478
Ga 2.1854367726638295 8.071553900805268 6.456482153056972
Ga 5.400994447375044 5.427065397731674 7.386555230362274
Ga 4.456875884532838 3.310799181030319 3.4261626730766217
Ga 8.015159262036878 1.5748863142034435 5.55730421189033
Ga 7.396174626294457 5.445269862897946 9.585754280314422
Ga 3.342506111522798 4.109334484833969 5.622480063057952
Ga 1.2362571263751272 3.4703557553834536 3.7558702728025968
Ga 3.1968792489056046 7.253472470788254 8.824068434865502
Ga 6.738759469994437 2.9579712447137534 8.605234390154235
Ga 5.724589242035585 0.6840438686820178 7.370326166048958
Ga 0.9822571605339476 2.819810356210613 6.425710681433119
Ga 2.0469577880447933 4.965565988942964 7.934901405840763
Ga 3.249593879408105 1.2564831546465425 6.404996374856004
Ga 4.563695845300739 5.086307627828304 10.122253870272772
Ga 3.9729185556126687 3.065883362810157 8.272514899814261
