49
Energy = -129.18951941 eV
Ga 4.885406490162651 1.668055930724921 0.6794724191129927
Ga 3.3508686010170146 4.029799995581952 0.8106502372959231
Ga 4.1742362162264435 0.5839147869278493 3.181213139149902
Ga 2.1110211099601957 2.21493959052427 2.5220399231541375
Ga 1.9515122969447642 4.958697844607606 2.9856497577943597
Ga 7.307637081827352 3.0593756940230117 1.215361410208798
Ga 0.32707328082185216 2.928622814422838 4.501535588584919
Ga 5.821606753268337 5.228264339236481 0.4961232315718926
Ga 6.887459386134707 0.72203713119395 2.8636453914630433
Ga 5.0651487582553685 3.2879852455592204 3.038306443751019
Ga 3.8685024909972534 6.547344854272039 2.006435697860511
Ga 2.1412850930515948 0.682205505041077 5.20047600230611
Ga 4.8815163691244505 1.0776084171119893 5.704037587017656
Ga 3.211811354736129 3.398315160245162 5.054300828468062
Ga 1.726589104178561 7.715991278524654 3.60687758339593
Ga 0.6104525672628267 5.657358401504292 5.202419298213384
Ga 3.725513134444311 9.276130550411974 2.276523798575937
Ga 7.870946489209312 3.1567486128370454 3.872267314698073
Ga 1.1928232498618816 3.2021958726360524 7.019468702540419
Ga 8.906525432315707 5.124936117239643 2.079065758077258
Ga 6.29241633661763 7.928595637006167 1.3686328754486252
Ga 5.891624090755232 3.699377604972265 5.7657584230115155
Ga 7.602574630432238 1.0916322468869248 5.6239654664159655
Ga 6.259318402134566 5.6609858621765135 3.313663426954639
Ga 3.8821932511381743 6.188999994988662 4.776051372922207
Ga 3.424560941445776 1.9017358748809572 7.751160044443527
Ga 10.892265728678906 6.761518170643399 2.9563159108564943
Ga 9.586893914716295 4.973182452505926 4.781655927605329
Ga 8.252740013475707 7.636081130774265 3.32801615224837
Ga 3.6519445690640606 4.9607865240944315 7.302635636524831
Ga 0.6701592905840499 5.714418070931648 7.922680186155222
Ga 2.0306247259191945 7.576285398851518 6.455982781415562
Ga 3.4959956336760483 9.352578326786317 5.097576007967009
Ga 2.1786660583791386 3.9210781216631525 9.629645499628584
Ga 5.819076967339873 8.50803544924437 4.119724542977565
Ga 4.942620457754745 3.5991416332499804 9.537463937984436
Ga 6.41649681323353 1.9181029474023095 7.980712514439371
Ga 7.251319793139871 6.14788765037191 5.783201236722393
Ga 8.777314400202416 3.250722996665287 6.7080074755281105
Ga 6.839786386583926 4.824634461206203 8.08518472485905
Ga 4.962492727242489 7.4071363044701695 6.913812512494773
Ga 10.075565724097112 7.508922380607918 5.553208382922946
Ga 2.671849918657 7.099534153109215 9.131335867114075
Ga 5.159731275420791 6.309506241160739 9.711909730426864
Ga 7.861505665907152 8.907478390695923 5.910683081347496
Ga 9.445996309349448 5.71866273862113 7.7142290462060865
Ga 3.3520577424193423 9.607892862450658 7.972652504547589
Ga 5.723664419953933 10.24845327550279 6.769465341440512
Ga 7.260717073775752 7.729625652443537 8.372407584342179
