49
Energy = -129.54707392 eV
Ga 4.56735987833798 1.3172632401296294 6.91678404102745
Ga 2.3588686861608474 0.26944472815091025 5.274562853872668
Ga 3.243904134429172 2.805854941025118 4.5099382315381575
Ga 2.751313408266957 8.381090888921271 8.643779898371644
Ga 5.513555407518636 7.7891799755963715 4.353251947448031
Ga 8.308102269904628 2.3158364522696644 3.7076804137979673
Ga 10.067825615440796 5.594349468287759 6.3319848191874835
Ga 3.931730113852594 3.8246324210242175 1.996646717802017
Ga 1.5702919985601562 7.726397778509382 6.239846170566853
Ga 4.106087338855085 6.26819860126069 9.926480626578721
Ga 6.246721971046171 2.3760996523525475 8.828052478768887
Ga 6.722681310185816 7.597804239551909 6.89821779633248
Ga 9.724641505314082 2.7514071461769154 6.030113998458974
Ga 5.771374212603819 1.8108040318282215 4.481079375614179
Ga 8.769697841971979 6.503133263197593 8.700301335559566
Ga 1.1322049247968826 6.944825895593197 3.657658309796271
Ga 6.0332945289076285 5.026352912514017 3.566272024270792
Ga 1.91940110423792 5.5831435032005725 8.293727456796045
Ga 5.165453581261328 9.583095433303606 8.43449608564314
Ga 8.018258229005742 9.634086085658208 8.25030878503471
Ga 3.077587758777759 6.410038034590113 1.7219633513168218
Ga 7.242599045793895 4.053601703401456 5.841270365051626
Ga 3.6414134389801216 9.591820204018308 5.9502763288604665
Ga 4.675729585530742 4.075282517477097 6.340994566332859
Ga 4.255333809119924 6.731920984742559 6.912969576881343
Ga 9.414203637969672 8.26069547581314 6.324683399789583
Ga 3.619283105386051 5.828733861938519 4.425883316494027
Ga 2.2777398376857865 2.808316591760714 7.216905728079645
Ga 6.464936789896742 2.7604764510110193 1.7275453812474115
Ga 8.081235892891382 9.459785532452821 4.1366798858028755
Ga 7.452190593876281 1.2237556118945148 6.536360295967611
Ga 1.3495972133186342 4.308225235041582 2.999648113559281
Ga 8.613486679438898 3.71403550493016 8.380492479285216
Ga 4.290177812423042 1.0144050653291175 2.3043895239752876
Ga 1.5732226251831274 1.4778151238526793 2.6524272443812458
Ga 1.2341751747703515 4.97990964265244 5.743976068509387
Ga 6.5056297967839285 7.578185713997298 9.78962115965998
Ga 10.09596670104872 7.437103171000884 3.5962690226886247
Ga 7.802133757502665 6.4940889008277445 4.816228554049599
Ga 6.250675937078659 10.153538402262665 5.963396744444381
Ga 0.456227864029727 2.4721116292543903 5.0398733586408735
Ga 6.2301742503922295 5.214332952388781 8.238925777876966
Ga 9.711532008496178 4.678541821144392 3.796954492831153
Ga 7.604586001883215 7.505661539249393 2.1555573810323847
Ga 8.194817069953974 4.907527794978967 1.5865775124115282
Ga 3.0476023930592966 8.859703276100888 3.4055627533711585
Ga 3.9654570450214823 3.6490126040887034 9.220631769054327
Ga 5.07419505093287 8.30741074146229 1.6196520188820016
Ga 5.655532619444347 5.624924268902106 0.7632477723680199
