45
Energy = -118.21078303 eV
Ga 8.396899929524757 3.5966497315545047 4.429841169524416
Ga 6.0189746675060745 7.861806668859973 3.0623879967780794
Ga 1.6840787959372616 6.922406543742501 4.628555955445559
Ga 7.742367456307655 10.949248437182838 6.009507591687144
Ga 8.375952519526587 6.416988839861243 8.845213142849872
Ga 3.906045042505933 3.4923860830403415 4.5307155323013015
Ga 1.774438233338564 4.367981331218976 5.990720388308057
Ga 4.288767597136762 10.869437198918554 6.083918076344142
Ga 6.159754504677478 2.1931848595293975 3.372514870078607
Ga 5.975661448839487 10.589322188767314 3.8069512357090245
Ga 3.8480938621050127 8.598958013648245 7.581378727997275
Ga 7.629850592152922 3.8723069054329318 1.7517152119548547
Ga 6.241773577745799 5.706011435450466 10.816397924050786
Ga 6.075701362486409 8.18892245483198 5.988764561178199
Ga 3.9686509099814002 3.5053026867805026 7.289758989455096
Ga 3.7956677476134884 6.212580837078383 2.9959925891616415
Ga 1.4945921911148916 9.365821572217154 6.133187674034523
Ga 6.162487484146309 7.899513936369494 9.41722151075661
Ga 10.548866221580752 4.57218033131535 5.79630199996203
Ga 8.256015973543535 8.748941408437744 4.393720703087605
Ga 10.49999778039705 7.05584561623304 7.305310181267991
Ga 6.176875661201219 5.4149434692683025 7.558216703407981
Ga 4.203311503621426 6.13081964557215 5.856719055737088
Ga 8.036781949208686 6.2182696302054445 5.771440520576586
Ga 6.076254112998936 10.146814807078094 8.056753099207116
Ga 6.206421130171144 2.6119227962594964 5.949655341487177
Ga 3.805554949226202 8.646811048305203 4.491332273239743
Ga 1.774379006848009 6.853879116454168 7.499350383767
Ga 8.383515634850927 3.990248769745297 9.896783155382678
Ga 8.352245179531856 8.699804346482217 7.481299387904161
Ga 6.106645877415845 5.111739887545277 4.0670749752290005
Ga 8.457620648744262 3.6067201579102255 7.1921629485175504
Ga 10.601096387876945 9.57703676229549 5.931372301809119
Ga 6.013265759810739 6.060456105831037 0.953102234139193
Ga 8.311736576997284 6.318849889090854 2.8952130675291103
Ga 3.994409510171971 6.317814535610449 8.943256791189016
Ga 4.540688123716598 3.798721111617265 1.8205539228350283
Ga 1.560073180536218 4.40001735738623 3.1621665690614345
Ga 10.635609901703873 4.612075711117961 2.960941452979996
Ga 10.459640458404785 7.126998304629237 4.433533251995896
Ga 6.262069310069264 2.750799150281269 8.63212075740495
Ga 10.821583429334956 4.612992856596107 8.629866372695899
Ga 1.6256892500684228 4.401166043003085 8.832870865710314
Ga 4.142427798266317 3.893741211201385 9.989648645438823
Ga 6.318945294993598 2.9607152629315054 11.447052328921252
