44
Energy = -115.38910784 eV
Ga 1.3678661860794743 4.507901836345625 1.221734317461619
Ga 1.6654252871549566 5.753251486242271 5.265233954277948
Ga 3.5454909663649663 2.7769322130688288 1.6578761097864603
Ga 1.7063417664666438 3.5380000999497656 3.7649207847506143
Ga 0.49094411698117135 6.698308803364766 7.574092435244033
Ga 3.321958697773004 4.099550348657457 10.095901758633174
Ga 1.2669455209022584 6.745478284476586 2.7327188426793216
Ga 2.4441333978573794 4.772665334672984 7.942095276464588
Ga 3.6697217787932 1.434694376695526 3.9635055163880604
Ga 3.7091862706091256 5.26888367734408 3.0334875753954917
Ga 2.067774312241139 8.520182254859783 5.6283990642813215
Ga 1.97965756470622 2.691491426850567 6.2655218119453915
Ga 5.7647576666874665 3.5106467747216787 3.1934513189998928
Ga 3.138254694104814 7.413442907339267 7.942742172295334
Ga 3.954018675043279 5.625552334067218 10.095901758633174
Ga 5.582940765988399 4.440046429017259 0.6304115814762647
Ga 3.3510482000439783 6.518783271721816 0.6551253460055656
Ga 3.9154432540909965 0.6850233305359867 6.543605848351559
Ga 4.361171777566034 6.845582341307975 5.376847733493284
Ga 4.598578058327403 9.598438780614078 6.6567253009706215
Ga 4.32028317627514 4.026445808306721 5.539725988896658
Ga 4.468837823915578 3.051303647090812 8.39659882374545
Ga 3.4902739964120513 8.302641054874801 3.0778449316335053
Ga 5.694191900247629 7.130894532017205 1.697780708972371
Ga 5.361352455589391 5.585492720468729 7.49445323643446
Ga 6.119474176639379 1.9152137579556485 5.261920137956103
Ga 6.125680446081511 0.8909576458843236 7.96204849358414
Ga 5.567173623824849 7.787602905890393 9.107481931043282
Ga 6.635348452543572 6.089600902016043 4.165849948779681
Ga 6.908860415022971 8.059479017398031 6.669903620535451
Ga 7.044361625256216 3.517137163656498 7.1668828773689786
Ga 6.531559181491217 4.628838001534006 9.961014211022226
Ga 6.044802096617313 8.82249906813115 4.1200836079176035
Ga 7.861487253168345 5.1186009931340095 1.8740993765502396
Ga 8.233756062853049 5.653248347320287 6.168142269816164
Ga 8.182070786462774 7.931718067214097 2.2973538865975667
Ga 8.185090061913607 3.5989095145965853 4.437796630404985
Ga 7.82238902490185 2.2899876977623745 9.55963799434384
Ga 7.987413092291876 6.624987230453823 8.955260525206926
Ga 9.383816634475725 4.23712917524024 8.32151636214538
Ga 11.09121978776987 5.4726947218422355 6.190863667843121
Ga 8.960901680412201 8.138357801736639 4.872654591565995
Ga 9.841143588323767 7.620140617559176 7.385813539797161
Ga 9.95097383736172 5.775383433695073 3.6666824577237187
