46
Energy = -119.96467115 eV
Ga 10.99552268196625 11.605627819118958 9.06719959017519
Ga 14.75455243544166 9.914429709029248 12.237327127812982
Ga 10.798209228205256 7.45010800000277 12.377899142056453
Ga 11.956755001165156 9.831324168552452 12.45395325694213
Ga 11.757757337629398 14.10816258044717 11.158846661500284
Ga 7.6168651031764805 11.578237464125628 12.81042564792482
Ga 10.944801659637372 8.979134373803348 10.003696108837355
Ga 13.614376871288677 8.301075245726825 10.223874432151062
Ga 13.703775230905528 12.305764232600064 8.311000563829914
Ga 10.207145340977453 11.803661564286344 11.79939916813299
Ga 8.292640876624692 10.928826352571827 9.989518133416583
Ga 13.629051084232522 7.444990215875913 12.754264260195292
Ga 15.247903566120788 10.478466343737015 9.600092461926883
Ga 13.11372226694547 11.813178777031588 10.952303783058449
Ga 9.188864319976151 14.410064494224349 12.200204270681043
Ga 11.93118669831184 14.404556944749494 8.391023374464146
Ga 9.668979061744757 4.855572186287114 12.171806875229207
Ga 12.3732932274949 5.147277666700325 13.169140514874325
Ga 12.48136912530809 5.797651430543123 10.38301173440371
Ga 9.267523962077465 10.574231258720642 7.005560328546855
Ga 8.486782216168834 8.469796041731428 9.02123222237476
Ga 4.639706274334389 6.372411575714915 9.568307622790034
Ga 5.3018076397432425 12.541981805260132 8.639173844793385
Ga 7.623049160972561 13.092915567812343 7.51175359658284
Ga 4.616299966908202 13.500390397149124 11.01505752280855
Ga 7.295916673503089 5.883327101111356 10.271739104712257
Ga 10.64190521189165 7.921798453082924 7.4185355885471855
Ga 11.813176933054276 11.335298133483523 6.37094253866511
Ga 7.285146240687655 13.360138945455002 10.452775921614553
Ga 6.322209793460719 8.438946374328568 10.77048191772614
Ga 8.188974448005663 8.375891139804082 5.9790978774786625
Ga 12.916067318005775 9.59117291855887 7.913588032603451
Ga 9.54091948257991 13.889790596302829 9.398717876763255
Ga 10.038281572349577 13.381675968432333 6.548884724457279
Ga 9.881854208876266 6.379554871983035 9.977036333987778
Ga 8.658263295208092 5.903677104728358 7.440646820550363
Ga 6.204759578570888 4.925524703915226 7.864926926431512
Ga 11.250928847320681 4.942820317148777 8.023689123770055
Ga 7.91464297972716 6.827800950022922 12.749272984766607
Ga 6.565253122119193 14.031552269535926 13.052063652544517
Ga 12.881735177240019 13.811846237961086 5.945445005213276
Ga 13.247835303627342 6.953080360738492 7.868925863925631
Ga 6.1796133217164275 7.706643082599698 7.68019310514379
Ga 5.5486209813692495 10.92086703185386 10.977428439612336
Ga 6.551360241604396 10.257272549999545 7.9347904040743895
Ga 8.738001428497538 9.32889116992426 12.422152008674189
