55
Energy = -145.57677849 eV
Ga 3.070042610236329 2.730910337344024 1.2763494163008307
Ga 7.3169941744961395 2.2638171893258408 5.060367331825998
Ga 4.695437588844106 1.5526874300151465 5.5885933013486735
Ga 5.955091253154174 6.214317574385288 3.234358728186044
Ga 3.4712023937266867 7.45567623495251 2.6133910002150316
Ga 4.93100573402058 7.075356790856922 0.1739987308699388
Ga 2.847527655038959 5.390411992270166 0.6243470119717792
Ga 2.0553588603221185 6.844221641742073 6.888619221892042
Ga 7.2840533331885835 4.578268887915146 7.362142681461915
Ga 6.751021456723157 8.209619422711267 5.167820211604552
Ga 8.471212992485137 6.995599272337067 6.828653114243074
Ga 6.491615237548496 1.6893674888726782 7.743181101090469
Ga 3.455239593242292 4.609609714530319 3.3936812917136594
Ga 2.9717882509750564 3.2164216073145835 10.610406757884377
Ga 1.2055445978899488 2.657419119384784 8.42638441980853
Ga 10.685253259308373 6.694049498391386 4.774752750946019
Ga 8.534229735700011 9.785714424729568 7.438656382717866
Ga 10.160534788869374 5.213583238486842 2.4715730223823487
Ga 4.4261242686228925 6.829000760465868 5.390265558518504
Ga 1.9475682097315528 9.702530930745544 7.515764063875864
Ga 2.387907721705526 1.9686990439103629 3.817910762554578
Ga 6.231710291587461 10.351755840126616 8.918197743577522
Ga 5.43823858283342 4.381478622016042 1.1595767932791334
Ga 10.330299378197127 4.846961817693308 6.758147646555406
Ga 8.687239630754776 7.629049593468536 2.9777477040867977
Ga 9.752950339298659 9.207852269054463 5.197804347988626
Ga 4.828287000904595 9.982503926559357 3.8766777379892647
Ga 6.159957995456916 7.678686623099041 7.84645694879087
Ga 4.6861594565733045 5.398525790134821 7.748564095580903
Ga 9.662931651405355 5.770988224171392 9.322742493191086
Ga 9.194649250395166 2.3047550596313795 7.154961810478293
Ga 2.4252374052553844 4.04966172747694 5.961768800101888
Ga 4.252420342371617 5.813288572761353 10.988801048760848
Ga 3.5952358196774994 7.899705202348017 8.925925065447519
Ga 5.4195622477791465 4.282783409316121 5.354036301996637
Ga 7.619894369699968 3.604900332278682 2.6138658397480983
Ga 1.5525248143730075 6.22326845761921 4.3269419931615305
Ga 7.671379983141129 6.009635309552754 1.0407440914135269
Ga 10.8983270692857 7.912845302794514 7.652863618866423
Ga 2.057059654023427 1.108068889163435 6.321661259883211
Ga 8.491808652354196 3.341144036238689 9.635279937008752
Ga 3.9183108157640736 2.623161994549432 7.964671376405324
Ga 5.699630493733774 3.4918886619033107 9.775498318239109
Ga 7.809728009869986 10.16697115839422 3.5365261004507684
Ga 6.828922081997096 11.209117559950473 5.858290482859816
Ga 2.5334017629046848 8.781875075930575 4.946880131409664
Ga 6.961462939239829 5.838155481319259 9.943362330190151
Ga 4.605720513853101 9.717162227172102 6.738074492855466
Ga 6.274167982534119 8.69981482291563 1.835634199616393
Ga 5.814688945438438 8.196341954814692 10.835924895159048
Ga 5.1487410055311615 2.2352602497738068 2.9991154705956604
Ga 9.888078551603629 3.0711778887117847 4.406178996636123
Ga 8.041788091843994 5.318930270231319 4.759882186588958
Ga 8.405147798699923 8.227061562678148 9.59456286474564
Ga 2.2662446137891195 5.214600743463045 8.888077272928735
