54
Energy = -142.17339736 eV
Ga 1.5140712908249903 8.602339297783102 6.814389129031801
Ga 0.8866171303399679 5.948993624652607 8.058811486511319
Ga 0.1873776486183429 7.786168184442589 4.66490076008743
Ga 4.188131889019412 8.96068077861153 5.975055717929529
Ga 4.014889461162994 4.347542843784253 3.9011282342850353
Ga 1.7436740591310576 8.188564027459591 9.483754129543899
Ga 0.0011248495976627746 5.150344988700382 5.616340927183162
Ga 3.93789921685859 6.77126553432408 2.4386042529749656
Ga 4.960545541268758 0.3097705294696519 3.6483320400377623
Ga 3.7323328636421436 2.1497394694306515 5.392001510911325
Ga 5.745043960565832 0.4675356945980755 6.12574275388648
Ga 5.861860277187917 8.443019103284607 8.071908156477026
Ga 7.190130464954201 9.120235924012023 5.692177800844984
Ga 5.118434397034542 2.871140031278277 1.1371672439139053
Ga 3.310042471605984 4.0432320131308135 8.983203592088064
Ga 4.845718138590097 2.050964835108582 8.1321325113603
Ga 2.6549326452177495 5.901660782506612 10.668516982196836
Ga 4.90714695203251 5.622157677513985 10.668516982196834
Ga 5.516649011137195 6.5386010165024615 4.858696395667732
Ga 6.484436676817724 2.5485938600584315 3.880579608957251
Ga 4.403720475832265 8.150157761706042 10.43770587544543
Ga 7.307064436815023 2.580446593631185 6.456906598098148
Ga 1.9691425990473632 3.501945649257196 6.765642950604558
Ga 9.44816025356121 2.476420029918804 4.475446505333129
Ga 7.417713841597486 8.175188838484324 10.552767315104282
Ga 5.634852158914155 5.845678847910456 9.693958392854034
Ga 7.005690891000615 3.47012862023055 9.030567209736608
Ga 3.6739663815005112 6.699840618757753 7.89196163973592
Ga 4.9954736895492315 4.379345569940118 6.556090476348221
Ga 10.7294452226109 4.916251390402594 5.201857272640317
Ga 6.327935628417607 5.135418531890956 2.4783850849188114
Ga 10.776502223173141 6.479529144199862 8.1243570934844
Ga 6.880285324290103 0.8019800085777102 1.6865461816695433
Ga 9.273375059054908 4.174288606560444 7.394260642658994
Ga 8.423105472260552 5.691735980407917 9.620236412155746
Ga 2.65554575766513 6.323744083820504 5.499026933034282
Ga 8.634400798149162 2.717183153541333 1.848563500927054
Ga 2.9321778655302984 1.9503929826698465 2.6520947168514932
Ga 1.1715353013549372 3.332272422832353 4.009969617175421
Ga 7.845550566161407 4.791542833517929 4.790136066775457
Ga 8.548238367178648 8.29315673692844 8.033922182606988
Ga 4.2783945351745265 0.17535622903009243 0.9221148640615543
Ga 7.034117751012798 6.0376707370288685 7.180245800671588
Ga 9.674158112083107 5.0128681477122985 2.6695723070907245
Ga 3.523426631067502 10.07361857992111 8.468558474476628
Ga 9.271088823472098 7.118490471169955 5.73239262054217
Ga 1.397813384988098 5.9428717868497944 3.0188001088608676
Ga 2.848262867558824 4.47708295929359 1.3144818364161062
Ga 7.23245500552098 4.057440061181107 10.80940873856025
Ga 7.921395818108271 7.366048792744296 3.412800434556372
Ga 8.317920573589364 6.410346659991932 0.7396231056208352
Ga 2.5451282058073614 8.790629820346926 3.678408690152471
Ga 6.057085447567628 7.898599399945778 1.1052362876900879
Ga 5.395241320388117 8.989341783080375 3.5352965984499813
