55
Energy = -145.25513271 eV
Ga 5.9212630699813955 7.428844370712794 1.743585443355697
Ga 6.4197255048962205 4.747755296940466 1.9708422686704534
Ga 5.4525342329382935 10.158689383003757 1.143725218066637
Ga 7.47116386389933 6.719686451056656 3.864790458644254
Ga 3.9550931051741864 6.0442462563351285 3.053678434911038
Ga 10.246556708651374 6.087950038442897 3.42009228165457
Ga 3.4113930329953583 8.586794088274956 2.2442962638947423
Ga 1.2277632149752398 6.6348375084771005 2.665312835097047
Ga 4.542823182227913 10.854900244472558 3.6972529369395604
Ga 12.219384620678236 8.076847896967186 3.5714154490182826
Ga 1.98686477427619 3.964607623056776 3.044806900613938
Ga 8.765220884353603 3.8982526571876073 2.8875593217150946
Ga 5.474921394754726 1.7002663258025137 5.527655323862515
Ga 5.09591780080672 8.14142896011653 4.5507501365423435
Ga 7.181823986122963 9.45865577379062 3.15443885207329
Ga 8.862603321728008 6.774379816251715 6.176703044890265
Ga 1.8696053994939854 8.378307215461641 4.62100557325315
Ga 9.475128083321394 8.709479588763532 4.121528758112805
Ga 2.2183463490495154 5.561331459646907 5.278472929161515
Ga 3.475864635400433 10.02381871227161 6.016154848283909
Ga 10.14053820595676 4.240861390195145 5.50977295528307
Ga 5.0179362154129885 5.752717522471975 5.796338217630725
Ga 11.81191040613205 6.354528510791941 5.721412609647008
Ga 8.56169081521522 2.100405911767344 4.995972317898423
Ga 4.639264691563777 3.5490625087145373 3.6776078066958946
Ga 6.45307604037421 10.526335446425911 5.662193131028475
Ga 7.012610242626146 4.327228199922728 4.999348243353407
Ga 5.161186491382008 3.557809397035523 7.405288551979213
Ga 11.4095196958696 9.073610451485921 5.981101199955349
Ga 10.060187334447491 2.4581788387775476 7.737615708253565
Ga 2.502537166513823 4.7172407388997195 7.853253183942927
Ga 2.833743675731006 2.74565189099489 5.810845772618186
Ga 8.707198655507995 9.494716120749155 6.757427266515865
Ga 7.9800442030787595 4.438789106721929 7.473021836402673
Ga 10.861368336813678 5.4120245607698 7.972710261756239
Ga 5.334161759410048 6.053758629422708 8.595307023281592
Ga 6.603114265926823 10.676980401858385 8.350172672184158
Ga 6.255539056096501 8.03108325290951 7.03760285725022
Ga 7.286464712815947 1.4939910439275794 7.537071104493875
Ga 8.806622104690002 9.563398365549153 9.59792564977772
Ga 3.107402521516764 7.418560745541531 6.96888284373358
Ga 10.805688064827793 8.186862004220995 8.378609876423923
Ga 8.176307487422132 6.866389241737677 8.863379906286426
Ga 4.078190048784106 3.8639113960507507 10.060273209071752
Ga 9.403212414139725 4.355630812365605 9.96576097158513
Ga 2.5279521157773535 6.845798295602051 9.544248315552267
Ga 3.6796816829276393 8.878470259325084 11.24934404164724
Ga 4.142211235578693 9.36980645890996 8.55373545178862
Ga 6.80857499808463 3.201697693072122 9.645027378293618
Ga 10.55992546562141 6.725483415196752 10.652356331329537
Ga 4.532396707943123 6.178721166617542 11.264073559275097
Ga 8.5195961543682 8.086834906527638 11.891478900384682
Ga 7.169799973178456 5.527135225216216 11.172481610031774
Ga 6.245018527407389 8.429913433318326 10.111614031680658
Ga 5.911488415824486 7.925490044566307 12.8328349788981
