5
Energy = -8.08646922 eV
Ga 6.853659725209652 8.182117252531912 6.791347505129116
Ga 6.99287804996758 6.188824525520555 8.277148727585494
Ga 8.572411932867183 8.191490468145876 8.709512578100504
Ga 10.33135417000382 9.325996290685236 9.990055636828014
Ga 12.239181364630317 10.640392583147454 11.29539902705445
