50
Energy = -131.49577625 eV
Ga 1.4917900186672652 4.909808615904743 8.16422008522594
Ga 1.4431064644186804 2.56225106692864 6.493540782575918
Ga 3.292946322169162 2.469979821536424 4.278973594983734
Ga 2.5459067669410502 6.840640275194845 6.340782871850851
Ga 2.6253172347003195 4.486212999703844 0.013308348226244096
Ga 10.788377039766193 5.546153510539384 3.187858741911993
Ga 2.932611123016236 2.698288062350574 8.930158756726305
Ga 5.082025147683074 1.7127768494412388 2.528524843947723
Ga 3.9321150820391435 1.3123809753724118 6.672539039662722
Ga 4.739872086675557 2.9065980343255218 0.07451405952415777
Ga 2.6287804020536347 7.423971729946546 9.162737561059938
Ga 3.814282309801835 6.544534809035994 1.4004525601677587
Ga 4.902345127968191 6.057321029034657 7.854103232343508
Ga 4.167157224376447 8.883551647906794 7.3815694557123095
Ga 7.650658781535823 0.6045753783194732 2.711223934539794
Ga 7.222064193286217 2.590733404405636 0.8069141460732505
Ga 5.9111972308107195 3.2764255371229494 5.1136526254881876
Ga 5.726144905870813 4.648403847588564 1.9246618529670185
Ga 3.464867729768683 9.178462121312322 2.166175331665602
Ga 2.4830975759391327 4.636103801462952 2.8216229785004066
Ga 8.206037003780958 8.110422996283488 3.84766477900444
Ga 10.788377039766193 8.266722441755569 4.723882460789274
Ga 8.346961513860364 1.7335852389623114 5.075957528329111
Ga 2.4943494778317947 2.0512984080962497 1.6379306888968133
Ga 8.492982440667609 3.495936431424775 2.984274905543903
Ga 0.32433859594100795 3.968782721624785 1.1220389834139513
Ga 7.0120691040456125 5.569564765934828 4.000464681463297
Ga 5.770173580680961 0.5616914061565326 4.892111538241056
Ga 7.273591095644415 5.015922084044629 6.601784162679351
Ga 9.800439012536051 6.509025751298282 6.651851973064801
Ga 0.6551594805197528 2.7635704013584528 3.7552786735142267
Ga 4.326367674712178 5.688515289498499 4.343778953723958
Ga 5.861424681584709 7.880468212870607 2.7687271761149423
Ga 7.893536223119818 2.45777944173452 7.639708532013044
Ga 9.7704470759844 5.718926774536948 3.9611318058614873
Ga 10.027959781117687 3.7383771570321476 5.971381219105586
Ga 6.217842529059567 10.163983630319976 5.096253514108289
Ga 6.265969219368074 7.468949122316774 5.944622452080628
Ga 3.5912227517828286 4.250737530231608 6.438681650962154
Ga 1.8575526965464515 7.166341900128821 3.615959260592924
Ga 3.930335326971259 8.564626068875391 4.72629691518996
Ga 8.665222261748664 8.962315299355291 6.485797062027345
Ga 9.267617133384615 4.764030167789497 8.516138605767818
Ga 5.454380294598662 3.2508549961512156 8.174582020078446
Ga 5.36909085863028 7.843483994228088 9.874751207969135
Ga 0.5661277372960494 5.1160057368538805 5.604775631404858
Ga 6.827958726181343 4.954668627140059 9.882253310246726
Ga 7.632173452088185 7.155287721507817 8.407996749442587
Ga 6.611565313623949 9.829392977678912 8.157936410443185
Ga 4.110978299122817 5.1666877472200765 10.486240717882307
