5
Energy = -8.62947735 eV
Ga 7.73346671673951 9.941701639128365 7.120809663039629
Ga 6.100578787452135 8.194494568475099 8.287905924478492
Ga 6.467136574153947 6.882392735443321 6.093001847449451
Ga 8.16441993499724 6.64598968030692 8.198406777953384
Ga 7.760534205100152 4.561557595089281 6.526012005521483
