50
Energy = -131.91879685 eV
Ga 2.1686564469488827 4.746777986633048 9.802676280678002
Ga 4.190424279939654 10.146252264480115 6.015168176494642
Ga 1.9109890457484626 6.237186809087631 2.015886777765864
Ga 8.161119312678125 6.7102151078751024 2.3822641713402897
Ga 3.7283423163268568 8.237576245787613 2.5095070354306843
Ga 7.413469244676549 2.098866858866576 7.970152925693462
Ga 3.9086339465273348 4.35048247796654 1.835346806176507
Ga 7.639634791183746 1.238173728374131 3.241262004374917
Ga 9.99709280230554 6.342003271360249 6.225819700086473
Ga 5.069818403575224 0.5172420120709809 3.3784268259458368
Ga 6.533436903260609 9.15466768820547 6.2459874780017985
Ga 8.301152070115263 4.525465225661123 8.741710645013017
Ga 6.046766113225733 6.237306505591534 9.04838849260929
Ga 4.346326617659098 2.719449061591092 6.316610185233861
Ga 0.9149634327908409 3.655782785916251 1.9145082442174346
Ga 6.437479102620696 5.195634871956836 0.6919216245051214
Ga 8.229907784511536 5.259384092461832 4.8056793016268475
Ga 1.2393698839589813 2.1571082751067183 9.952104116147368
Ga 4.943947139133919 0.9185284848077735 8.398032917866512
Ga 0.5501568348159872 4.970630855828622 4.127983821175334
Ga 6.693526039419613 0.6864526694302517 5.773939646798434
Ga 8.720272061744001 8.020394554890176 4.727127064991036
Ga 0.6237337392860955 0.8632166930104354 2.0139259843069413
Ga 1.5528390863683452 4.141328201964386 6.619020559396845
Ga 5.572323396163644 5.955037798401794 3.2168475441188504
Ga 8.18258576646522 6.825766786364783 7.19277296070643
Ga 6.190343858299061 8.684863433391822 3.672330877075992
Ga 6.784223952099844 8.934781179635406 9.01864091101212
Ga 0.47792141225326473 2.155298198616944 4.715811327202228
Ga 6.210835483149621 8.090894896509498 0.9734131475635648
Ga 3.197864377170334 5.794703329447934 4.646491324153973
Ga 5.933830442469752 3.2885023401383515 4.225309438341261
Ga 8.093404568633717 3.8223247897422605 2.470240904008289
Ga 4.327028323479305 8.291335339337516 7.934747969213207
Ga 5.962917158167863 2.3451314252036246 1.2434084681010624
Ga 1.301624929354045 7.801920937383654 4.161852781410524
Ga 5.445253141054317 3.651662321668421 9.409821734157681
Ga 3.953372581796833 6.726030531920139 0.08421887507272101
Ga 3.8306447973136573 5.257691444334548 7.635625303076646
Ga 4.753223730437129 3.775215471628485 9.409821734157681
Ga 3.288092247386813 1.7413968661599788 1.5984870607567134
Ga 2.3473102946002333 0.17861549193223544 4.061846538457686
Ga 2.1737951316504245 7.245742976257333 6.8305136860713915
Ga 3.7293696364326077 8.93812156493917 5.172403048543587
Ga 2.821839729727988 2.902466823916445 8.778675821203384
Ga 1.927356052209794 1.1605677496502558 6.8980968593628775
Ga 3.01817142120177 3.1158980668451406 4.031719813622405
Ga 5.480360604486213 6.6825696783770745 5.818996704480903
Ga 8.790551846935571 2.683990322187659 5.4548432519887395
Ga 6.43444848850784 4.370094277353223 6.7016805168353875
