52
Energy = -137.22802145 eV
Ga 6.470016144589603 4.727279448218046 10.19930935194942
Ga 5.7919358396370955 6.816010394769723 0.7426494168583657
Ga 10.71943421825443 5.835218392572472 6.996893895219891
Ga 2.262808621027652 8.813856972156465 4.0512303622347305
Ga 8.640677303127474 5.273774836488018 6.17122982502431
Ga 2.955140429433009 2.0839119053283133 7.384236343964625
Ga 4.453670571269416 4.460898087192841 1.4038309563694356
Ga 0.2827456631186702 2.3672495022390025 2.9673305747005028
Ga 10.853026559157346 4.853298212593501 4.150907548638979
Ga 6.956958899240969 10.782999497652428 6.846685108078258
Ga 4.023650092847498 4.506798674935086 6.229748479979723
Ga 5.853699067222458 6.555011506479422 5.864666018420968
Ga 6.298443828433172 9.00277117900363 7.170281743314003
Ga 3.4901631585255437 2.038008784778197 1.9968096958183394
Ga 9.905284189227354 6.013381173663743 3.7421350267544495
Ga 3.9466062489843106 8.902004894758866 1.8021755557004533
Ga 8.444481671725095 6.806593176750594 1.4137467089960682
Ga 5.108041450377858 6.644956011444338 8.671770510010198
Ga 3.122886945495269 6.634160242528507 0.2579161767117468
Ga 4.737109454719394 0.5590055045995268 8.89989504739419
Ga 8.435523904735218 2.4533306994322714 6.495072842417244
Ga 7.309870975168909 10.302819017835253 4.839812795731488
Ga 3.661963505880488 8.322145333983512 6.939558294066532
Ga 6.66727583566816 8.592375288454646 2.6596760409744773
Ga 9.497402366888894 8.833091420206213 3.1703481658483423
Ga 1.618677935641961 6.412469425809641 2.6217488389789745
Ga 4.131178591122831 3.8525789317429995 8.998152526568239
Ga 1.5737508918476726 4.121555783408376 1.1128211135937542
Ga 8.31193886670747 7.819606571639252 5.474375888010883
Ga 9.060755583983727 4.221141673541481 8.874722529597207
Ga 4.281995147915539 6.566244768800875 3.363464503218396
Ga 1.0551353240444992 8.444181602660516 6.767159712165504
Ga 4.8634845565880855 9.13812738483429 4.604599805326053
Ga 3.9009783957782913 10.670150386084256 6.297351072201275
Ga 5.47374782869435 3.610400707611549 3.896213008270957
Ga 1.085377446300659 3.601470925225107 6.354189090606034
Ga 4.595326132212479 0.9404819943600549 4.10504582685019
Ga 6.979580062459947 2.1593098995939117 8.745340195156546
Ga 8.328120657477243 3.534619702964812 3.5449254655971814
Ga 5.487992621371358 2.252692955130149 6.347195714247177
Ga 2.6810728113564424 4.0073123904118795 3.8572104098971773
Ga 6.883485360036061 5.908922569129186 3.5638691835743543
Ga 2.2040922274312837 6.272100980356191 5.374572727854994
Ga 10.575062045565144 3.5565307078822057 5.007922480991168
Ga 7.307498777439104 1.1067653827682313 4.318650269097103
Ga 7.230318258659841 4.382189780740283 1.1687032028020923
Ga 1.9583878960146146 1.4186452110362102 4.880299122034036
Ga 2.3665565684977237 5.984507907725472 8.186497290688857
Ga 10.575062045565144 7.665397286558104 4.45669304262096
Ga 7.918854432301333 6.928915872790588 8.395249486962012
Ga 6.491387362494459 4.498728859501443 7.4293544913081755
Ga 6.40563835506286 1.7301185747177046 1.636834118812258
