53
Energy = -140.0254251 eV
Ga 10.831976016713885 7.474979559601746 6.439651086244437
Ga 11.272920652301673 6.845010284505159 3.7523067382263577
Ga 11.37129110015209 4.703276341165342 5.91812582601717
Ga 9.215837653778825 5.567092124494648 7.725260002363274
Ga 9.254692801562829 8.769830615859458 4.500583230512107
Ga 10.591734615993408 4.219410128822073 3.164212518412648
Ga 10.047910250341806 2.9054327920132375 8.019757162924687
Ga 8.8441544381964 5.86248231323678 4.990570950362147
Ga 8.299871189723317 8.204955587940796 7.169512728243766
Ga 8.492180520101915 6.53008672326302 2.3537333458980636
Ga 7.594873008059955 3.8074872812624583 9.249854597447243
Ga 9.119147528348345 3.020677189952875 5.307305586548501
Ga 6.530589175917427 9.075479205014156 9.07064878949484
Ga 6.72179466715471 10.173262669416777 5.871560958454384
Ga 8.176040787479323 3.3181836521597288 2.495045913220132
Ga 6.699880549326577 4.9822776063186796 0.778255579153047
Ga 6.997664033649445 4.489334277660752 6.462525964477452
Ga 7.7949064917529745 9.36846811400315 2.2914091109756876
Ga 5.470063848818323 1.8572694642470673 9.10317145990389
Ga 6.849756069125326 6.356792328453018 8.760235673380864
Ga 6.350469782669429 5.071149262839792 3.6749611811331095
Ga 6.755753518913274 7.624460493294642 4.455629382920331
Ga 7.522649520003071 1.8154116302106462 7.173028051726482
Ga 4.406610330406113 10.124993050091346 7.668885990040552
Ga 5.307523139047601 7.749714946325105 6.643923401427045
Ga 5.739498650554853 7.423016236778037 1.706861650006945
Ga 5.320945435160677 9.781622440628368 3.213124686691535
Ga 6.721410086357238 1.843087999553796 4.472366608855876
Ga 5.623607916856638 11.733608740941941 6.332196142050722
Ga 4.537188293668593 5.343321797675659 7.239340196536832
Ga 4.894091501020143 2.807704538853508 6.475015153542709
Ga 5.068815015706616 4.782830802129693 10.250741556916802
Ga 4.118344291301753 6.71251109601279 4.259892598244002
Ga 3.1866320399677077 3.4064199572528575 8.67863878971181
Ga 2.369244272328859 8.38038592054224 7.491052849902298
Ga 3.2147960645156197 0.7723964843939978 7.561225748446354
Ga 4.0242880249000335 5.208170519010197 1.6582514677585058
Ga 3.9121015142364253 4.053062611324415 4.320635538788577
Ga 3.5144867152684145 9.518787604836815 5.176392618220051
Ga 4.282716405071807 7.411954162695741 9.390921178082667
Ga 5.477539208285083 2.778205132868925 2.2092312685208904
Ga 3.7082967198509467 1.2940500921261884 4.373785985557017
Ga 2.191677466543122 5.503539978717563 5.873309357918509
Ga 3.066744873389376 8.475941474870577 2.3214642958033953
Ga 1.9816235362674626 5.81563654395618 8.679423293634486
Ga 1.7915558452305682 2.662830988486612 6.3749581293140185
Ga 1.5251327288163317 7.896744097404133 4.538922069903236
Ga 1.5882338016294715 6.0956168191661995 2.1927137953321654
Ga 0.11758290602579737 7.060504476480638 6.879181306045531
Ga 2.764314664983096 2.724977217828782 1.8626031924555195
Ga 1.1902153372746174 3.603058147252589 3.870977530833014
Ga 11.37129110015209 4.199858281220627 6.344168954970714
Ga 11.42242262472831 5.9322463583222715 4.213555809631395
