51
Energy = -134.87529577 eV
Ga 1.5634842552917165 7.3017947240757115 6.4836498651993
Ga 5.142903332705129 7.192844206472762 9.103033932898715
Ga 3.4958931233585635 8.948801251020226 7.825505700429842
Ga 2.583336047643188 6.225580081844238 8.83038558389201
Ga 0.15547150135079743 5.02638553077433 5.8179616800518374
Ga 8.094319351927837 6.790533929797034 9.022042136085247
Ga 6.626093204324443 8.646175379332643 7.408504282056904
Ga 6.011967092681978 5.014085058004724 10.343198371802
Ga 4.864569054369103 9.905878906322144 5.55976133309448
Ga 2.9740439310162925 8.311513332159974 4.399984612080642
Ga 4.4173695797857 6.765247571396182 6.346833966285472
Ga 3.5577499245794124 3.7109475848744156 10.060755395016047
Ga 1.1006610607763676 3.7186166550306092 8.562001874098486
Ga 1.3293561061378156 6.245222702223477 3.6034024882268936
Ga 7.881142159010645 9.940033676587015 5.354323106678996
Ga 6.959677414403883 5.835611589265124 6.5846771558989285
Ga 9.025146211848304 7.61682269023421 6.074851665501797
Ga 6.266107673738501 7.696168651342993 4.583478581973762
Ga 7.886642502268748 3.951172819219209 8.621928884776311
Ga 3.34264972312076 2.1237752256272886 7.688330485061322
Ga 5.062954657097108 4.384520575438094 7.736326926041637
Ga 6.379187252268549 11.525024331854548 3.6767161066397684
Ga 2.8350790059851483 4.57946911758289 6.246354810485735
Ga 5.729691913218991 2.0667068135660114 9.292732365459738
Ga 4.921520778122059 9.312457213432555 2.745737810064268
Ga 7.765742761560719 9.493026693860163 2.468470050248783
Ga 0.9817093107522227 2.2115327982692863 6.19248696438687
Ga 1.7769446498037667 3.514298800215809 3.87463969994143
Ga 8.143690968781524 1.3227852645668343 7.946362722232773
Ga 9.692930547859978 5.2246521143767835 7.034767637683425
Ga 4.641536563099566 3.1776679968973665 4.811470890783437
Ga 0.8701289598147127 6.038080237682554 0.8322874473145098
Ga 5.468457842696575 0.8890108432059214 6.616949131865001
Ga 7.0749996955049035 3.1663462532875135 5.996025187935873
Ga 4.1323589097219715 5.580209000784869 3.690082022499994
Ga 3.3032375350952807 7.329703477495416 1.769833321909925
Ga 6.7042031641644355 4.953449012713224 3.916978036066971
Ga 9.546257606349993 4.786772978638576 4.151645411425066
Ga 6.2183828723476395 7.035059384156353 1.9357223752096087
Ga 3.105424546690132 0.867621696639776 4.98459548989721
Ga 8.762455257806316 7.155035579370004 3.275042901866299
Ga 3.4764446317743496 1.7639035431406962 2.4631840591965095
Ga 2.833331453275 4.184800283435393 1.5169119326480007
Ga 9.906463218886454 2.634860589687052 6.025363580538606
Ga 8.031194108600333 0.49481485998460883 5.181400291453294
Ga 3.10141851766061 5.959178889053403 10.379696307446252
Ga 5.7142003825819385 0.7525897084571229 3.663312324537403
Ga 5.779741731096509 3.0065098992076877 2.005114376305279
Ga 5.34414780079685 5.065144972701665 0.48389544860259387
Ga 8.282286514482111 2.5200551791667074 3.305140910767828
Ga 8.09761650507952 4.712883107176711 1.4892147022727975
