53
Energy = -139.50996581 eV
Ga 4.923884694945999 4.319462718504171 0.6840712012522898
Ga 7.2151821288337405 2.7675188505350317 0.4788398350668967
Ga 4.109300830135291 1.7222477312640811 1.4042331587089023
Ga 3.17195178728619 6.224814052130757 1.6165474826109374
Ga 2.0142584618707424 3.5951272856862406 1.4889114165537543
Ga 6.493226798245873 0.205765079205505 1.1740921306543972
Ga 7.49234197651455 5.49770379464144 0.9855787115815315
Ga 9.22330870238432 1.1191412630130788 1.8898928837528164
Ga 5.79527930357694 7.207292104223388 1.9190505144142405
Ga 8.855406463633372 3.8615472338192594 2.5798115067009766
Ga 1.7197019496490722 8.18276534516649 3.202386443074119
Ga 4.425371623477406 9.217479557051792 2.888584410281717
Ga 8.6960181136956 6.795068659628694 3.139740354100763
Ga 3.9803425666030625 3.932965702636988 3.3819214938003404
Ga 1.1689150454301656 5.488410899557234 3.5290732039842316
Ga 4.7909825248448685 11.228536224070336 3.263330852374164
Ga 6.292504379704855 2.2114571155599343 3.1724109301309467
Ga 3.229555975375075 1.4432417442797763 4.224026687662503
Ga 7.354668731114487 9.33231032492452 3.1278860321545676
Ga 0.994289172581429 2.874832498583341 4.202645371189365
Ga 3.9385088022872736 6.3989521704612535 4.334950772706651
Ga 7.664153223911872 11.526591436035044 3.808963911497365
Ga 6.423120579698636 5.029816588809301 3.691875645253618
Ga 9.061074518380842 2.145889772974228 4.634350892293079
Ga 9.445790129754615 4.9117183191129845 5.081459813283919
Ga 2.7753737723171117 11.012134371909402 3.927221764992363
Ga 0.7737797915600355 9.668614597433006 5.5639972815839975
Ga 2.958378594687677 4.306501965767502 5.768013198839066
Ga 6.309031871882866 7.511914624890853 4.9053025585177314
Ga 3.4839886006070704 8.736327798191477 5.531419094092251
Ga 5.791984864393702 10.300875586239943 5.279905218805991
Ga 1.2476502297779275 6.960568547944078 5.875869098025793
Ga 6.751990012738412 3.161277405015845 5.705746268338906
Ga 3.8234871417374294 1.8094987699160692 6.855386951542996
Ga 3.110544245277964 11.228536224070336 6.735563463860957
Ga 7.469966490700928 8.603533988839143 7.217388875550815
Ga 5.019666461980689 4.322903529651157 7.333008735326079
Ga 0.3498293934288037 4.488579129348093 6.391519760578323
Ga 7.462688325960336 5.757043533313771 6.641409272940651
Ga 4.705147237304253 6.99529408307453 7.1532028305453315
Ga 8.422835585587634 0.275108729428423 6.5574689649818385
Ga 9.130710219161971 3.2056989534830005 7.3140837266441965
Ga 5.745679353897323 0.5237286917636171 5.620850938571465
Ga 2.060358572794122 8.786669945132427 7.963928566953315
Ga 4.990813099286592 9.64945465587541 7.953315851381408
Ga 2.14092580326763 3.382141575865755 8.45889731029367
Ga 6.74165471880984 6.952318457373041 9.295457730741902
Ga 7.148793967077804 4.241138238547335 9.106754130007106
Ga 2.3434118159529618 6.064758619184047 8.296177842644362
Ga 4.584286261926246 2.5036470269915307 9.533709787010777
Ga 6.713849224413195 1.6611614090337645 8.125121769712132
Ga 4.469779869306322 5.162439769985554 9.984860535453707
Ga 3.930535086770588 7.946933898070322 9.936061913523984
