52
Energy = -136.89915316 eV
Ga 6.4275546766254354 7.111385132854369 1.5551667476689677
Ga 4.358440645318057 6.120838128244384 0.030353506493010694
Ga 4.55977989214322 9.133368559796144 1.3590719896905499
Ga 4.67815644415307 3.323943649109925 0.4461918969000665
Ga 1.94952958622953 3.3311453829700386 0.452980375227908
Ga 6.410360390831458 0.8642642512317663 1.2422975893358517
Ga 6.997845222769473 4.600658299203025 0.9542497726831523
Ga 3.704822831157053 1.1485086314341795 1.841846467452498
Ga 1.8736944406751632 6.0603493620814595 1.1474980420137493
Ga 9.240318613940223 5.260712299991643 2.69989791376457
Ga 7.004611389196704 9.776122979446734 2.388328938262379
Ga 1.7047998428706115 8.429172052684203 2.6134954929740863
Ga 1.2812939890966841 1.7928433720611054 2.9767404056434223
Ga 8.608663214631845 2.620006400300975 1.956296817341107
Ga 5.781904307732427 7.935598720647401 4.363283320767198
Ga 5.708411288258516 0.42409928497872296 3.9419097024853804
Ga 3.9539977723823188 6.714024883530177 2.9703076830238238
Ga 3.7298358325361556 9.803201894605452 3.8756818602282728
Ga 0.02026781001513677 4.245218426950148 2.388970667234333
Ga 8.635433487476325 7.8692610595909285 3.0697409676128924
Ga 3.13594141554554 4.1548587091730615 2.850103324257389
Ga 5.661972179299178 3.040152676186846 2.9208569213805777
Ga 7.660760568965949 2.388081150275917 4.497845700206366
Ga 3.7149542487657023 2.233138260107753 4.693662928824827
Ga 0.7537613128984406 6.30549085621037 3.9672990548620275
Ga 6.572547234858291 5.311958849951001 3.787973122018796
Ga 1.181986333554498 3.8143703780466915 4.897974335878368
Ga 5.952132214458415 11.157821351484445 4.622849663251026
Ga 2.5594678269427864 7.901974154704104 5.3053256455267706
Ga 9.56257321914351 4.307491010222142 5.215228948364732
Ga 4.695906114535825 9.506425966018181 6.725942927823078
Ga 7.818447008835587 9.281856994311008 5.587017528744381
Ga 3.972816715294248 11.157821351484445 6.14099400177354
Ga 3.872810101119707 5.1253915713035365 5.502813280886801
Ga 8.457392183985256 6.645403244226662 5.4693938557078035
Ga 1.3135404391642782 1.1184205498310906 5.690247373143837
Ga 6.365828811379699 4.340932658045087 6.268641009184944
Ga 6.512748473742369 1.0213380265834435 6.576897298715827
Ga 6.429205374654804 7.126433029248499 7.148912113598015
Ga 3.9398267370515168 2.9102392178675647 7.342536512820798
Ga 0.885430827598896 3.2267478599798767 7.447324205274061
Ga 1.3754125191600903 5.849204596689003 6.716929450322705
Ga 8.658532273705084 2.685048266617068 7.084955683465541
Ga 3.790779895507302 7.093901037150187 7.536160885353683
Ga 8.432122633397652 5.3796705904803614 8.142278515578706
Ga 2.3985661436443464 0.7240188930427487 8.325885110488887
Ga 5.627891739719079 5.347423405841223 9.030470774200717
Ga 2.8708065309212554 5.034445251061813 8.944301766518592
Ga 5.058086040432618 0.40501120616753333 8.815433432355205
Ga 1.6305451272914306 2.8290660890141823 9.968667453575852
Ga 6.586383630953407 2.820323297192765 8.678854831873972
Ga 4.447363218272308 2.9333237031601365 10.34817296005757
