50
Energy = -132.03254322 eV
Ga 2.464458656095625 3.370152549061173 9.930610285065349
Ga 4.413903015868918 7.4418486065256495 10.081079512570197
Ga 7.281734817028311 0.9031787902723276 0.3535159085287916
Ga 7.5702014942407425 3.578161486131201 0.6186477167526213
Ga 5.056525812506539 2.3260530557640773 10.012550954833172
Ga 10.397891622999163 3.9716676439401795 0.8832474417257462
Ga 2.0687549490685098 5.974612598195814 0.1447922292961006
Ga 5.913347360447151 7.868856178119546 2.2196867689138773
Ga 8.061132512643633 0.772043617047145 2.997849946675547
Ga 2.6238914749959714 1.073359354437279 0.9828063314141046
Ga 0.6982142055184026 6.1713560244389445 2.4762533440164316
Ga 6.925540290854687 6.295104602499937 0.2855485374580912
Ga 4.686290953062772 4.802941895862018 0.930305949144223
Ga 9.057357922188475 5.819294055171988 1.9865099298982427
Ga 5.06294292930197 10.4115915154858 1.852883061354069
Ga 9.001893064793082 3.317119307272703 3.054913268910763
Ga 2.9305533190860884 8.03855049936573 1.9403940720737305
Ga 5.807247549982935 2.5645203160905 2.4451112847167824
Ga 10.323381859646062 3.6896068576254266 3.6321573792209567
Ga 0.8206897601068649 1.2606562552766973 2.8753424973606614
Ga 2.470301493049872 3.810905143622468 2.3317206579365903
Ga 2.8588262153819954 9.548422067334522 3.311067732025856
Ga 6.617621149650517 5.068561639057439 3.025245383733751
Ga 1.7939918409369333 7.855015876840217 4.412804718631238
Ga 4.0953327582673715 6.021056179555608 3.4129313699862123
Ga 3.5694807242359605 1.7858524299112857 3.524399706688014
Ga 5.99024753659097 0.02145194290312267 4.525203525089569
Ga 4.373197463375563 9.118841296286796 4.100859723050222
Ga 9.729576579140849 6.463243368948431 4.947495821627439
Ga 7.127260940729403 2.6201865819659065 4.917716973349899
Ga 6.695709591924882 7.552540711107526 4.934956632538808
Ga 2.161806451516827 4.960128835316162 4.792301148447397
Ga 3.5952929320577116 10.431132861475353 5.823835276813802
Ga 8.548636579457371 5.526928191409356 5.1860009988365725
Ga 5.5980762315213966 4.9390272346392585 5.450737619358056
Ga 4.296306500712651 2.787318758292496 5.691328644434935
Ga 1.2993764964938197 1.6078103673548332 5.550526093150901
Ga 4.089054973648162 7.238161339640688 6.156758912317458
Ga 6.233861819190241 1.2816830629729339 7.268838514365696
Ga 10.3687203764185 4.063902601139462 6.274100549637429
Ga 1.479513136314163 6.75211878847026 6.86107253801887
Ga 7.697108612655676 3.8728944311109426 7.280781826460438
Ga 2.513457216241789 4.092124199903488 7.190753797540014
Ga 6.423311515405888 6.437485107736015 7.569740053758479
Ga 3.5366262946472182 1.5533274644606485 8.111310772885686
Ga 5.077679127000359 3.9694004683796056 8.174930512231498
Ga 0.6671365975408965 2.191040679289127 8.328231023603806
Ga 3.518521383521573 6.325547915548333 8.753229975589482
Ga 0.3967007023311353 5.18128513519287 8.88778428202079
Ga 2.8742595230945316 3.703411600674426 9.930610285065349
