50
Energy = -132.05822383 eV
Ga 6.122541219018097 6.400041857515595 1.4843276151743505
Ga 6.973510223176477 4.429920568878652 10.027979968523132
Ga 7.506944027105209 8.096846200174472 3.69277514158376
Ga 8.647383655894487 5.814809586839166 1.9241503942221907
Ga 9.904948816445504 6.728288511894026 4.2922849947346
Ga 4.191139667803339 4.849834835287547 0.19632260719124284
Ga 5.1991937882122965 2.296853128969142 0.5352502999074141
Ga 4.520202950119677 3.8746146244329065 2.918385072998065
Ga 7.324082577019328 3.324192640904656 1.994139590118126
Ga 5.52970284356847 9.077732350674243 2.1178312722815957
Ga 8.591153429807722 1.2462151797612355 3.668794265889634
Ga 8.182528248625326 8.075092930709912 6.414655768125968
Ga 9.219812140110664 3.899680136586394 3.974051410803643
Ga 8.578199922021096 5.188163283006332 6.312480857125191
Ga 2.4599529535985827 2.9568954600795063 1.23075837696835
Ga 1.4106740967486908 5.63363911533436 0.24403501866398083
Ga 3.576141613747037 7.105801825330325 1.5594369435561153
Ga 6.736148340394998 2.958805678098584 5.059910513480058
Ga 6.7266665060085815 5.4405330666238125 3.9718023223156584
Ga 3.279038158326034 0.29262599160515673 1.8266440906691706
Ga 5.87735603115004 1.239667002065228 2.930361093540433
Ga 3.277417498905633 8.898026834279039 3.651143104031119
Ga 3.702488427689474 6.115076548469277 4.187351461511703
Ga 6.529392575579677 0.10219741465127608 5.509139220703864
Ga 5.523620595590805 9.507897021657874 5.096866730834224
Ga 5.7258590029112515 6.850005848292691 5.881379856242858
Ga 1.9648028971503417 2.0872382717471005 3.8393213819069745
Ga 9.096910637418441 2.1984818214133384 6.412589896786348
Ga 1.221579737591592 7.2430380506878675 2.8484201911554314
Ga 3.8536641312236806 0.394592645361531 4.609216335751606
Ga 5.716498372339783 4.563010905228479 7.103462794878009
Ga 3.2877167167085837 8.087448294326672 6.369282831940547
Ga 1.487137062118466 4.6197346826795105 2.9966812262812357
Ga 5.7860837563739835 8.929635603480406 7.782124467551893
Ga 4.119003492789785 3.0133354170872773 5.486581273658675
Ga 0.8600660044751492 8.955060402815933 5.16970836432225
Ga 7.445942759908316 6.478641321842876 8.610288378011566
Ga 0.907819406633896 6.052041763565434 5.298869444382242
Ga 7.92237237760475 3.6491688350417832 8.532344877553607
Ga 2.9872070469570455 5.127944497637559 6.706575026636291
Ga 6.1138724428323075 1.8197666908997783 7.694749855273208
Ga 10.44804935963655 3.473509933616578 4.982392755010228
Ga 1.7410371697995504 2.356859082395382 6.673983679976421
Ga 3.7225556531116712 0.47729253737566746 7.306527101164795
Ga 4.377458372468131 6.704041884463321 8.64307244867249
Ga 1.2069243126263713 7.233829340988372 7.935521250475915
Ga 5.639940351407073 4.485356434335529 10.02797996852313
Ga 0.12975873278223282 4.518961031424275 7.67134024460425
Ga 3.715611162491235 2.982641686759709 8.554821630489943
Ga 2.3833282903629707 5.076537027322811 9.493326140186962
