50
Energy = -131.64085511 eV
Ga 6.05623235790442 6.849660989083183 10.682761284110239
Ga 3.423288361335005 6.3605114965097 11.173207317048744
Ga 5.52085830047051 4.296876085397522 11.676960289866322
Ga 7.798452060664389 3.2092984307694072 1.1682286915575144
Ga 2.9427294640795405 4.157281739238637 1.0461116292614256
Ga 6.066551701668868 8.934992607741833 0.8318906733653763
Ga 7.866260259238075 6.1079267205205445 0.8983817355712216
Ga 5.103205247665024 2.5827787485677955 2.0520944830335868
Ga 1.309632748922505 6.612698644151784 1.5711027088391776
Ga 3.425000801146263 8.452236671053585 1.2480682629882045
Ga 5.12569256926518 6.27333320116134 1.938416101375945
Ga 9.236866697074785 2.654908763812237 3.8946805977041032
Ga 7.280248184297339 0.9727617202984364 2.6073005232216704
Ga 0.5281499011660997 3.9629323363488793 2.4061764401419907
Ga 2.67450856918504 2.153690552103941 3.045320556366862
Ga 7.260948563708656 7.80453607585017 3.0271234886935723
Ga 6.878356978362771 4.2227240106660116 3.642672064452055
Ga 3.063339127743468 5.325809917712005 3.528838108240479
Ga 4.9078379130392795 9.570266828175011 3.322080326104798
Ga 9.24370274116194 5.59450560532533 3.1310424583929803
Ga 4.800905682733162 0.2424000709785113 3.8823796762080613
Ga 2.2970203868167594 8.336497852572242 3.7085341687995603
Ga 7.1973990190561885 1.2524890374064521 5.171576422857009
Ga 4.973351874401294 7.008396524988081 4.5155916977148856
Ga 0.3894290916278852 6.231938496798721 4.191607317289038
Ga 1.524197023020661 3.6611125591859617 5.027883286008133
Ga 9.67674645726242 4.870324921891433 5.6152461439302375
Ga 7.83993143159198 6.833851205831914 5.480186035377848
Ga 2.756847484438741 1.0936169753067866 5.630119540935872
Ga 1.5702308802520575 7.8764061318304845 6.205915748053678
Ga 6.809372321844928 9.42590984061332 5.40353673168256
Ga 4.720512625249897 2.9645313404532336 4.844965596384882
Ga 6.276595942732446 4.5547945005552 6.23920248399454
Ga 3.3915679224177384 5.527645516492657 6.249796878384546
Ga 0.5504654121331225 5.426117673029163 6.996918297773916
Ga 5.375965432459408 0.7479078285235387 6.875964662644176
Ga 1.1131634900492808 2.6257874217023973 7.422417596012168
Ga 8.619064277081712 2.725144841371264 6.744732225416552
Ga 2.914173167195104 0.062166919135903144 8.178772965261325
Ga 3.982087106824577 9.19432797175071 5.929798938838954
Ga 8.1156225824511 5.408644219624795 8.070238266457897
Ga 3.959413450275569 3.0415317552653773 7.649673741657837
Ga 5.781009162917474 7.361160319385104 7.160191411161912
Ga 3.178187294251462 7.473202379405063 8.32879055325467
Ga 5.079000757274366 1.0547377326203875 9.674850393779629
Ga 6.826494926805462 2.8159030832882226 8.644320965560633
Ga 2.386018635656359 4.995209790191831 9.062614121767732
Ga 5.3436573402450875 5.372229753300968 8.865679439057295
Ga 2.36501201155395 2.288826150617857 9.841372982870578
Ga 4.631062913476472 3.5838246935926716 10.682761284110239
