55
Energy = -144.39780199 eV
Ga 5.81174333384716 4.892055477494065 2.979422898915143
Ga 8.02807300055052 8.7346665991259 1.205286713038168
Ga 5.728944459652917 7.454014259480347 2.374836966238055
Ga 8.44825037980982 6.539267526942209 2.7802365926838464
Ga 3.805792525187838 9.402407064284837 3.184723818879473
Ga 6.57895405061405 9.898886787403102 3.243144613596432
Ga 3.1126685271478434 6.50246666479148 3.426647150281008
Ga 8.276646034463655 3.7967657130812618 3.1948988804840406
Ga 9.254187156714286 9.49966963332429 3.6176079545768745
Ga 6.648116420375193 3.172754163608884 5.417570080374118
Ga 12.228894383695584 6.645185019102341 4.978327443772358
Ga 9.632011972358145 10.129982598261952 7.517823076605989
Ga 8.007890676711762 11.443662766659534 5.307506262972494
Ga 11.265390421043211 9.412404031092539 5.327092091962811
Ga 5.147179931769019 7.683138017476386 5.100726267952067
Ga 10.406579518640344 4.672444196985193 4.8652159360945015
Ga 4.312426537137908 4.873658092806059 5.278485715091536
Ga 2.6273405401572205 8.706452272880577 5.545966525549211
Ga 7.425925053850496 8.698180580858587 5.933633281444213
Ga 7.148228435882579 6.004983251981029 5.176578918057337
Ga 4.411120882479625 2.2749132826111405 6.626350803178224
Ga 9.555601534723017 7.268931933496753 5.186996477295188
Ga 4.127910517998941 10.230162850001085 7.812424881337285
Ga 5.347724405704071 10.560537751294339 5.477935258885186
Ga 9.252421542768777 2.2448076184257233 5.43671510360203
Ga 13.92955746860574 8.905288753113876 5.527839183391895
Ga 8.279807031731858 4.564405186973747 7.030468797243067
Ga 1.9103780130740173 8.677385024879491 8.038437833840733
Ga 7.046095876181679 10.866105404568408 7.801779668471279
Ga 8.466666171491559 7.583625725965739 8.090839915899474
Ga 4.304062825922745 7.304282763412504 7.626250596508841
Ga 12.782394380368144 7.540118481761664 7.571899127613574
Ga 3.9568393942618547 4.642131239572416 7.87838410926319
Ga 1.849573342285031 6.091797512218043 6.675523928412199
Ga 10.478096689747765 6.045009965600778 7.359176776655846
Ga 6.206149628689414 3.0249860211478925 8.553660620702823
Ga 6.363259580819221 5.895916264730121 8.470761568152962
Ga 12.315667684187098 10.277088522651605 7.731866810794189
Ga 10.49420958911453 3.3084527030927897 8.113496047408827
Ga 13.92955746860574 6.798707122753991 8.522180674353686
Ga 8.57454532687022 9.925055553142203 10.159307359092036
Ga 1.2504261676346766 8.107932505860592 10.548525945429184
Ga 6.205185654200775 8.440309905597106 9.480005965524457
Ga 12.550885226397572 5.308238533847215 8.900190071250606
Ga 3.6391377518524504 9.378426443233641 10.405798037401672
Ga 4.174985799005074 3.952650021240701 10.56175429814253
Ga 5.85431897371912 11.126147801556774 10.211176023677126
Ga 8.334136933879375 3.9453491624452655 9.809154779670783
Ga 8.259379406830003 7.326908723252918 10.962860995870418
Ga 4.316331994781853 6.812512616627004 10.618427390426174
Ga 10.805196999495825 8.287494102717371 9.378636785591915
Ga 2.178201512491498 5.660820041755276 9.496565149034044
Ga 6.372822619035456 5.288589755930822 11.337791685591082
Ga 10.406476830172798 5.737402116877366 10.30707375141571
Ga 8.815945274528223 4.961133144730867 12.360681665028624
