5
Energy = -8.3087576 eV
Ga 7.611183501358212 6.3411886274484965 6.272810679462222
Ga 5.695929852056778 7.4173910074331 7.48057680487212
Ga 5.9131141558084925 9.4122999416196 9.701570334579802
Ga 7.837577130345385 8.335592071473528 8.13460642884022
Ga 9.34232159362993 4.925233164358729 4.843012282047396
