5
Energy = -9.32922825 eV
Ga 4.92730896532051 7.499755720356351 7.62756719938898
Ga 5.927284660106377 7.477735980084556 5.380272832146024
Ga 7.3897828958019 5.759639567352915 6.628063588298492
Ga 8.099640230381574 6.185400076382331 4.196590120604519
Ga 6.374291020271837 5.795776427706285 8.885814031444177
