52
Energy = -136.57755958 eV
Ga 4.996771807680134 2.8874065645023266 9.627172228163833
Ga 2.6885137558609213 4.56352513657053 9.079178608660342
Ga 5.113474288448417 5.687276496752176 10.224157819458506
Ga 2.456571033813905 6.801454661449031 0.2863215089352101
Ga 1.9924279978540973 2.074003749898017 10.36747344515238
Ga 7.4575802066052725 6.703353207454876 0.9810416324843586
Ga 6.840055724974532 0.9819650579259501 0.1735723005915294
Ga 0.39394346343846814 4.814654191529543 0.20138355620475723
Ga 4.071846626498506 0.280284205581402 0.5988345421592076
Ga 7.252027939392419 3.8430527021091176 0.47950072346154277
Ga 3.2445905497984464 4.138650381478993 1.219352175964288
Ga 10.532832051102988 2.0209322616436523 1.6989971038639693
Ga 3.064907003097133 6.195182191283734 3.0855889498244946
Ga 2.30165564724738 8.853862489396775 2.341687046676063
Ga 5.525826451050693 5.169347103933404 2.437638372809657
Ga 4.866140776368491 7.972981474656707 1.2968825472206371
Ga 0.2941918233315453 6.747522164626011 2.312107948941073
Ga 8.06263390199628 1.9662105411721231 2.6258008245397155
Ga 0.6771404594116219 0.19689003246460998 3.787158793937085
Ga 1.2460068392540744 4.089132925056414 3.095789845499912
Ga 6.398070810612816 10.275540067902224 2.709068342717528
Ga 8.576681720344348 4.776728501103553 2.8422520919522345
Ga 5.22772904065068 2.429906048383101 2.04685979848375
Ga 9.136679564096726 4.458310198884457 2.373361316186288
Ga 3.258744838128463 9.758552746568046 3.107126622255218
Ga 2.600484060058303 1.7924463724088797 2.472880821332892
Ga 9.584304995675067 2.738953869106638 4.673437719017779
Ga 4.454933576764969 1.3246994029342314 4.435478064093874
Ga 6.843492076980062 7.321928710261872 3.7328584819496493
Ga 6.274303821403808 3.430961638328559 4.42325380022444
Ga 5.218770556451507 9.304177995381679 5.179994712370659
Ga 1.9946767766561435 2.3494287677214944 5.083188972663667
Ga 10.094899226516024 5.54922703214539 4.891630802250884
Ga 4.2599920104322555 8.399052774429329 4.4155725413829146
Ga 7.225671061654584 0.7732623648454798 5.206157546325729
Ga 1.1177978651020875 7.880916120015684 4.810412355549532
Ga 9.022372793061601 3.061074981045419 5.143766574131078
Ga 4.919835978452213 5.728179389432351 5.0473647349272905
Ga 2.6568815845217757 10.184477060177336 6.229850667041339
Ga 2.292446208675166 5.089952266400322 5.473217125012522
Ga 0.06405010685458185 0.814676442883059 6.539001447913071
Ga 7.626496678404674 5.499242234688715 5.819122366756922
Ga 4.274708473006023 3.381854316814337 6.300983271742576
Ga 0.2682604419440067 3.673714064672121 7.037941944799888
Ga 5.067364556337478 0.7219852345632024 7.2352970144980056
Ga 3.444633484172426 7.24004467558034 6.9222965163050505
Ga 7.12601329088216 2.710869932654404 7.314670188685627
Ga 0.6756754668482856 6.5361205712490245 7.344681044220107
Ga 2.4082728362475208 1.8332359054581568 7.936770126343866
Ga 5.525254772161375 5.448855713069843 7.78978952411956
Ga 2.5190276459755117 4.633004895478405 8.532441447280048
Ga 4.831881899445898 2.9604787316702685 9.079178608660342
