50
Energy = -131.85837525 eV
Ga 2.272471968035154 5.5029563882063 10.883471429846509
Ga 6.377079644489661 3.494050874119558 11.028188900068836
Ga 3.7417229404043297 3.3025610364300815 10.295788228144815
Ga 7.627137386950229 1.8095731871648137 1.590592624735711
Ga 4.86514053463981 1.090519854003349 0.326764844530106
Ga 1.9611298016540235 1.3645963038617552 11.166102571852157
Ga 5.041916755638312 5.81863372257027 9.837672155729143
Ga 1.0847537820191187 6.340360994103283 2.0595901601400155
Ga 7.835967583165951 5.2132428510025 1.4034107992389866
Ga 3.4953881739824197 7.908420198140543 0.7156935222739171
Ga 0.3031171532841724 3.7119948851943647 0.429688646451788
Ga 4.571327587129198 5.192685568809251 1.2822764689318018
Ga 8.393105420843193 6.718439931850149 3.813193581430274
Ga 5.205026458620008 2.7897113052996025 2.54165888424574
Ga 2.5703438211349283 3.471781443323262 1.986558392553171
Ga 5.764445789814698 10.952853340626087 2.517853811262011
Ga 3.039298183331601 0.580862542479003 2.3460642458352856
Ga 10.770495046156297 6.175783194716289 4.725087477147039
Ga 6.1035435923814 7.5094346014546165 1.8336341763704054
Ga 7.293717050020272 1.104793851517964 4.510071037740461
Ga 0.24208643402696534 1.2821479267187161 2.265042001968464
Ga 5.939128888351765 5.380183388110619 3.5799132621991827
Ga 1.4953800653993952 8.291469168286293 4.1719499542016045
Ga 10.804464672914536 3.9985010944203516 3.0833044720439644
Ga 4.025608649053352 9.612365982784949 3.3812874201271423
Ga 3.6609350955778552 6.877908668388527 3.320225864800461
Ga 3.5273079745404434 8.456360377919212 6.246451864178936
Ga 2.081357245929524 5.056245794128519 4.406797196052518
Ga 4.186086979820028 1.1135698056826202 4.774234862003845
Ga 8.131759124850259 3.694832490923964 3.7688783154079317
Ga 1.7920518376224195 2.4059575853032413 4.314907657544838
Ga 3.896559789628078 9.612365982784949 4.108983779488167
Ga 1.4607082213477434 10.930371251843289 4.627516361552768
Ga 10.323865078231513 1.752393684964415 4.980042980953384
Ga 5.658946147791467 3.358814349272197 5.184528556867146
Ga 5.859763421255989 7.96578507149363 4.860937813586467
Ga 5.875873321685241 10.307930780898264 6.024918059666493
Ga 0.2899937518772513 4.054147110938698 6.345673158174201
Ga 4.289286722363203 5.701290735732653 5.73996758295242
Ga 7.2276598129959035 5.692534274622 6.306323061620603
Ga 1.4023359094510233 6.66475027484404 6.767208769295344
Ga 7.979601340197036 2.976049961844664 6.661734515451391
Ga 3.2612768643230914 3.2256892507167034 6.335777288403043
Ga 3.352216354709852 10.929714446945558 7.180264732471427
Ga 1.202138285761983 1.561190770765186 7.132465883108569
Ga 5.61254726191012 1.578192646430296 7.311381260833364
Ga 5.29319773436888 7.117657676636948 7.853306799483899
Ga 5.607450763452996 4.275925754774859 8.18596282664962
Ga 2.9060503617215656 5.138235140300662 8.342641250753102
Ga 3.3921472117057636 2.4202601056012605 8.930108118581668
