54
Energy = -142.55458137 eV
Ga 6.309153481753745 4.051882057894878 7.551045838987667
Ga 8.708931440494034 2.517845633562101 6.341888035329395
Ga 0.5184464864786229 4.540689879751924 3.1690631598370884
Ga 5.96484850352444 6.773114212359887 8.801179251045934
Ga 10.128107266846035 6.863436370147784 6.798677455908398
Ga 7.03379056733537 1.011450327650463 4.631959205429267
Ga 4.6631583241050505 2.5327869944169614 6.1444586400283
Ga 6.81537036481615 0.9820287929552637 7.4915501955166555
Ga 1.48381793367887 6.999295477929812 5.487824380543519
Ga 7.418146291164193 8.049918354234604 2.1269829862820986
Ga 8.396300891742895 5.478780682740258 2.7068055327565967
Ga 4.740087925465234 7.8269317703812895 1.6887072161709944
Ga 6.455201539857028 1.8783131661152745 2.211023251773844
Ga 5.293972019635072 3.3835632195666627 10.904647859117341
Ga 7.3409430410411005 6.314183444435318 6.396928377076243
Ga 2.1074277647918374 8.423424317210056 3.1079421819869557
Ga 3.8341604043766457 1.361527107779741 1.3038959139826036
Ga 4.7904114110363905 9.732208948101752 3.5181036457370825
Ga 6.689575272813395 3.9647234384723284 4.663660910509521
Ga 3.272441980993537 7.73574357060616 7.985079074041446
Ga 4.301899055925429 3.1897092326405967 3.6119488098783132
Ga 4.803213837569503 10.51601435379678 6.434927962676283
Ga 10.775586920067969 2.6003152940118226 4.909386777451073
Ga 8.980790147672977 7.49629613174142 4.405651903551162
Ga 4.657582366698951 1.906791703669222 8.991851248962167
Ga 3.2983011198330656 5.867138587687153 3.5754307046552714
Ga 8.174510636108124 3.368418383379006 0.7025072222814194
Ga 6.902152233985897 5.979704008444108 0.014216784593660266
Ga 4.018472973955025 4.831614077881957 8.805998578826113
Ga 2.608470032871389 10.877280407456022 8.0411421293236
Ga 4.344572535118452 5.865810538164689 6.180206238690375
Ga 5.668634037952139 5.066185041647867 2.312776266452644
Ga 7.292619791795506 9.662090527632515 4.396591295603597
Ga 5.785899300898935 7.0759915531507165 4.3019303750239635
Ga 8.39668568758031 9.09633908705253 6.841117360473716
Ga 9.016302002902444 2.6979249495372226 3.417726070916961
Ga 2.3263177539491653 1.0476710425237943 5.423008092697608
Ga 1.75454418427905 2.0041684032273603 3.0437160649004436
Ga 2.146439302695972 4.170959716964528 5.453018791677888
Ga 2.41140971384105 2.9407468744288514 7.7907780909792415
Ga 10.536077707058485 3.7630458677495295 7.4360995829572145
Ga 4.479372779544432 0.3407890950171399 3.7313775558167515
Ga 8.840746158800497 4.688601710526593 8.128039204231817
Ga 1.5103725508204435 5.638903782031903 7.933377956339955
Ga 4.03271350503129 5.9418793303840785 10.776192798075702
Ga 5.6562650934904655 8.640585228978676 6.761049413512385
Ga 1.3397764638067262 6.244224181984386 1.3236626078577831
Ga 3.247518921898869 8.918356822778126 5.538995727984993
Ga 8.678507454012683 7.3619438055515225 9.145674271062443
Ga 9.44737993006115 4.802435724077115 5.15249466418001
Ga 10.128107266846035 5.61573804234784 5.500810710418421
Ga 0.28518318406332427 1.1885321528782824 7.474016661110076
Ga 2.4668275067537464 8.398173123734217 0.20325984396042324
Ga 2.7736859791070323 3.9202282889297737 1.3560499591367123
