54
Energy = -142.19276174 eV
Ga 9.869834506298838 11.800274402609483 1.9723315967928239
Ga 6.601390936395941 8.158401366585908 1.783482506493753
Ga 4.603003973554137 10.046729770222942 2.5643647012198554
Ga 9.328048493852949 9.219897254652958 1.0645312590049292
Ga 7.376958199606939 10.831356608306914 2.3457830405940037
Ga 8.990799826879778 7.182302133029824 2.9529495997721793
Ga 8.818210839097471 11.772457666692393 4.872748201535766
Ga 9.362861778066964 4.793173792799444 4.0531129965302695
Ga 6.377644674364668 6.092853090772433 3.615605021491849
Ga 4.545594613590874 7.970348380879966 4.424980368089145
Ga 6.051238768877473 11.653047079123715 4.411300444659559
Ga 10.230060158765578 9.750424852995593 3.6846995651265146
Ga 7.23051397673773 8.922572493664092 4.347071043837323
Ga 11.477832301042348 5.22684843560641 5.831915230355883
Ga 8.195281442184273 6.773736674462405 5.865401631441029
Ga 6.964702763039432 3.9508338065894195 5.23973423494109
Ga 9.351385647365854 9.279377187268253 6.288666675113804
Ga 5.451250676716966 6.067769491867418 6.536962758727188
Ga 5.08588993165975 3.250353468375951 7.102370968888544
Ga 10.973850615978007 7.610175688628588 4.872058449066214
Ga 6.745997267469434 9.99185148837277 6.620743847260336
Ga 4.031830501963378 4.709293108516921 4.548839053201329
Ga 2.0445408586916645 9.07139508251957 7.5531570974199616
Ga 9.141768349484423 4.303828642478063 6.900766053138617
Ga 2.719497966687897 6.910711454721007 5.954184581190192
Ga 6.945103682269858 7.000305419107872 8.531100162989803
Ga 4.804018907517262 8.433690021665203 7.574628602963246
Ga 6.634956046364023 12.984014691653389 6.6524133677994985
Ga 2.85383744432116 4.66176764550612 7.381828178843056
Ga 2.6121200122728987 6.84100764256076 9.137517520412914
Ga 7.8740906710476 1.9935690860610162 7.269448270957671
Ga 3.993585862593692 10.437984442510885 5.707079127835525
Ga 8.66481418963676 11.567275946115538 7.805594720094844
Ga 3.559513023760227 9.655050462104228 9.813707415291402
Ga 11.814988905937392 8.106595059965946 7.503387660095257
Ga 10.195445762242278 3.5751494023263217 9.338020323574737
Ga 7.42230417803739 4.337976902632618 9.242425999460636
Ga 5.195453857300127 7.855787980328744 10.658194643815174
Ga 9.467548381097526 6.575761528797471 8.312188805198979
Ga 5.008659912663761 11.366287751121336 8.229061597509771
Ga 5.811264513684982 1.91934091128393 9.263580670376486
Ga 6.891863472985634 9.887139435341513 9.507712169502323
Ga 9.886693875914295 9.472714490542803 9.022052675036493
Ga 12.004994883902798 5.373885069809821 8.499859034113797
Ga 4.8910315049302096 5.202444496043658 9.200881580384287
Ga 8.393743567558143 1.8986363586269317 10.188080953357742
Ga 8.334546715130905 8.004773189869487 10.78663690314081
Ga 11.241620807010943 7.454469508418535 10.347506891987218
Ga 9.520174952735946 5.498125512737846 11.26790558974315
Ga 5.2333624581267175 3.5984210467903743 11.422810385757458
Ga 3.6553526554384828 5.774510604247422 11.652176464406642
Ga 7.936203176513198 3.6203915706212038 12.278862668271682
Ga 6.70133157976254 5.946759536148356 11.590668770499496
Ga 6.424081036902397 1.158845971350344 11.949603026719299
