5
Energy = -8.63679783 eV
Ga 9.006135626123353 6.153940953004557 6.434313354859461
Ga 8.390983894217962 8.407035618815414 7.4947719213527915
Ga 6.1428068175506745 8.137750008588025 7.2409225720619945
Ga 5.78755830598519 6.318297065402137 5.598958128479848
Ga 5.614055149285441 5.924815077379756 8.172893103986274
