50
Energy = -131.71828487 eV
Ga 7.407601477803985 2.4764694943207197 2.949719926674936
Ga 3.807225819318106 1.161742718258841 3.0347978438222363
Ga 5.834608763784796 1.0627387652732194 4.595189685553656
Ga 2.3864386503314376 1.5261333891755848 0.807271575427207
Ga 8.211228875597268 1.8877380755365678 5.654649761677759
Ga 6.73082571317828 4.541741260057217 1.2990387286911609
Ga 3.354271189338658 2.0745573476010537 5.519812010130474
Ga 4.546868112663629 3.162137278942507 0.9436512000891691
Ga 9.784993260011115 3.6819600114946085 4.040176872094116
Ga 5.69967926345768 1.977343015058414 7.0789802517691855
Ga 8.75664906401256 5.645151414993807 2.5769652870201316
Ga 0.8431915837483815 1.964828892620436 3.9724596117003967
Ga 7.0847901405707 7.252865524521231 0.8254981196263675
Ga 8.125683374499568 2.4983284175507223 8.285021317057979
Ga 7.0835062633650345 4.550229410092952 4.890905985956651
Ga 4.806339107796779 3.830334271824674 3.6550927490133907
Ga 0.9997492320758145 2.763222108495733 6.822293879730963
Ga 2.165189625579593 3.809550021994444 2.289351563056559
Ga 1.6639595524774324 4.617946577711878 4.7917773212618515
Ga 9.531847485556066 4.454665045294494 6.60157061246227
Ga 3.3404603932194363 2.809878442642094 8.282422472068937
Ga 4.375365284816767 4.529757006897847 6.1238964181316256
Ga 6.4657521054454135 6.926279520060789 3.512890012637186
Ga 8.041519854800466 2.917905357446192 11.015423893536653
Ga 4.303136901253495 5.845161461078491 1.6343050691804237
Ga 1.7621277129019415 6.434046426875857 2.5405415852136377
Ga 10.053890616922656 4.3327579814937796 9.353805610783901
Ga 6.656285124537985 4.752435209087673 7.555500431339573
Ga 9.42784657736598 8.288912941574141 2.7962122843001467
Ga 5.581636666388905 3.0109086752968683 9.747041637633444
Ga 9.270940462343585 6.777136820822143 5.202150096342845
Ga 1.954408269105476 5.257916265229008 7.592993507989491
Ga 6.624457270601 7.140325580463362 6.164555648861897
Ga 0.7435673842986977 7.113235329376217 5.005046439643135
Ga 4.466062125740939 8.479981710135592 2.012447741973679
Ga 3.78472922327709 6.7838147834176485 4.407251686561619
Ga 4.312107239491464 5.472642834507498 9.395784359969193
Ga 6.929479237048802 9.615357265585747 2.308354841399595
Ga 4.152927733460402 6.998130761342101 6.982370164535113
Ga 8.890261782162865 6.765963106716159 8.070098724170995
Ga 7.399865456341383 5.367458720608754 10.033662771382605
Ga 7.8697483805279065 9.33807214228891 4.8837224114987015
Ga 2.2169548110954507 9.05458452615779 3.4533207032182256
Ga 8.04360874315592 9.210330385765364 7.550551534819974
Ga 1.4489620996188075 7.858329333333772 7.565920459861749
Ga 5.214647730160166 9.512118829414867 4.520354354119593
Ga 6.3331059965385545 7.580381010254233 9.210059628365975
Ga 2.9627527359392443 9.38190431701831 6.028067085209151
Ga 5.330873754211245 9.642256368251857 7.528833914120417
Ga 3.6312349808373927 8.275697054814092 9.301553417090354
