54
Energy = -142.1987167 eV
Ga 2.1422376977689037 5.2833284600238715 1.820965204776024
Ga 7.399539123142775 4.33274128179001 3.145117618873567
Ga 4.822128276296891 4.499142814142118 2.206334791635458
Ga 8.552616855720531 7.738446315834313 3.240016107264635
Ga 6.443025032187397 6.853613277305795 1.8333242515798187
Ga 9.581461993134676 5.423054690811877 4.281599834268945
Ga 5.248990040942239 4.110076809003133 5.03894648502217
Ga 1.378789976026829 7.176455463350687 4.025575216788056
Ga 5.666977715487217 9.246471520466471 3.0424222635462095
Ga 7.69360845647418 4.541650271212971 6.040839591343615
Ga 7.715919513388116 10.077653059066872 4.601963841703104
Ga 3.8854531146847022 6.449676708099973 6.030879451548279
Ga 4.778485832854398 11.181776819698527 4.926768900010523
Ga 9.941359542472922 8.69841581036355 5.410290891226757
Ga 3.893857378675557 7.14327926563099 2.8387603394679854
Ga 6.124461733724718 6.746861738348806 4.606259808099308
Ga 3.384463629126801 8.935028948329807 4.832436026918166
Ga 0.97085847053625 5.334287962710259 6.432983511171027
Ga 2.6225678620982906 4.528619047099692 4.349189256956756
Ga 11.827945745620116 5.165779792405598 5.514095192869676
Ga 4.374012012345113 11.264453504334428 7.949809819288705
Ga 14.252412584176403 6.149325741346765 6.705423545531684
Ga 12.322442417042335 7.853083783265086 5.979206092415082
Ga 8.255259929204913 9.676354022132031 7.500365298201329
Ga 5.406725105350821 6.671619042702839 8.298324461428411
Ga 1.5232622864315617 8.036030168901496 6.7129890712090186
Ga 9.74396110831329 11.799625555247735 6.600751967276555
Ga 7.8098430303254505 7.288428963850396 6.504877191131028
Ga 6.940864651980368 11.870758768977081 6.414347784498936
Ga 5.675839557925459 3.8408849210217704 7.816003330517317
Ga 3.146100072990749 3.661087581969582 6.892151408429717
Ga 10.102418475429833 3.785306062755151 7.03173080657361
Ga 10.38405816927401 6.660281433330508 7.553347189736149
Ga 5.618873471976205 9.004437306143782 6.546550457666402
Ga 2.7306994241581553 6.065618158882161 8.488413641235296
Ga 12.506354243201132 4.916192063063756 8.301773484398998
Ga 3.2853313624599676 8.797947439968597 8.66115706829132
Ga 11.079054045412597 9.48490828599311 8.004716718770553
Ga 8.066736130715181 2.9065695130956892 8.568703902471388
Ga 7.9583064598328415 5.869507741726071 8.831198801767464
Ga 9.631686212738332 11.122538850982858 9.566328630664076
Ga 12.984387242449685 7.787380957090809 8.753964925616197
Ga 7.11485717867034 11.956469883810556 9.10014510703341
Ga 8.752367958905328 8.591350756204715 9.885244397787726
Ga 3.349092073573735 3.645049082719418 9.682435072370463
Ga 5.720981040043773 4.677935874414188 10.50917892687439
Ga 8.196242046702919 4.039069651232831 11.044368601015128
Ga 6.048060958846325 9.42886577856377 9.288806950379502
Ga 10.450825076025193 4.279247187556042 9.722343633319825
Ga 10.96225436944217 6.950207260119492 10.302583028829755
Ga 6.239993213053696 7.4114950284643335 10.941997403484056
Ga 10.572629524209939 4.994010800169966 12.381663760744567
Ga 3.589862281736501 6.809083823627436 10.904485902926464
Ga 8.582741736954176 6.69179839290099 11.789126475306134
