50
Energy = -131.66660262 eV
Ga 10.330265496927364 4.736574177110452 6.243332824126507
Ga 9.870101865740853 4.44687104970664 3.503185703048059
Ga 9.926055003797883 7.255815135490196 5.38130292726443
Ga 7.8299111973071644 0.5228122934386263 4.423431814188314
Ga 8.310763514432029 8.650932769535759 6.9546232560953944
Ga 8.225239312530073 3.2584784239305815 5.368599049049949
Ga 9.171683083664906 3.208483702366087 8.153630076564175
Ga 8.386635450515708 2.4645009293803355 2.4426527027377234
Ga 7.950611401784598 1.101476916600566 7.083438109125419
Ga 7.338085527364432 7.325977983349089 9.15529862578561
Ga 7.901195198360866 5.800544381355281 6.891481955691624
Ga 9.227002589255278 6.907813215103999 2.713892815561645
Ga 7.348717774145107 4.707708308022277 9.521669990194331
Ga 5.87094025375657 5.060856264761682 5.2442891771442905
Ga 7.196251973957681 5.007874608782982 2.7840709703619724
Ga 7.245482160347061 7.308682486588882 4.613948882766891
Ga 6.21644826011086 0.38937261984209826 2.032272937706932
Ga 4.755693477937268 4.004396265403764 9.961447656628525
Ga 5.014335632881201 11.086076052623799 4.800410627465899
Ga 5.978446296934648 3.3561292446735287 7.318644223505561
Ga 5.416824091126651 8.722571035679763 8.023037663560103
Ga 5.971384217947285 2.521200362440727 4.044387169753495
Ga 5.31066919776033 0.667296283408472 7.5057703324360086
Ga 6.026897192773823 3.1127727015164903 1.0990448810432136
Ga 5.161703164630903 5.9405516625788914 7.934739083586272
Ga 3.2620588694134502 2.940437905569811 0.7961299934141862
Ga 3.505408580229704 1.3305935269745288 3.007481193408242
Ga 6.386424935770948 10.010413923284252 5.757121537241201
Ga 3.4298527467282214 2.3303258549942485 8.296046222086806
Ga 3.7039252169026367 2.187318276320134 5.62370789239061
Ga 3.238945815070166 5.228059352793444 5.67409134421523
Ga 5.1788353757257966 5.744017834180875 0.7048940425774325
Ga 4.213585472294364 4.377902291722377 3.1536985163281988
Ga 5.594583371562806 9.376371205511242 3.2949688705706683
Ga 4.754493965258677 7.643798561358781 5.429050577566725
Ga 6.852703392294979 7.593262820634963 1.7853658437338051
Ga 2.6312206089861108 5.132468179545564 8.639077064113065
Ga 2.9274333555208205 7.774497151081724 7.724770898776221
Ga 2.4276682703415404 5.52685942665104 1.2614363466089922
Ga 3.6326335645285805 10.188302245253338 6.064610065968427
Ga 1.7301586806358158 3.0547823020212292 3.875138488859309
Ga 1.4199500392421243 3.250887799020355 6.729644220718842
Ga 3.8581567665564367 7.093636257713889 2.9057220877575958
Ga 2.908881639709482 9.736848367859166 3.3110454698924454
Ga 1.0489937164900978 5.571019348375395 3.5660588903043653
Ga 0.753746034933335 5.950569728810537 6.745107064300746
Ga 1.9629190136715837 7.939166098550716 5.179994247729847
Ga 10.396501537277912 4.049314189261242 5.054318824393144
Ga 1.0697975471620162 7.970349975645336 2.310926691213475
Ga 10.330265496927364 7.179684445219121 4.804176837416433
