51
Energy = -135.02795552 eV
Ga 7.155891603606748 4.533406573910597 9.678504388333284
Ga 3.1205193934645603 0.7837188418047729 9.079196727911418
Ga 4.893780856129819 2.937111163944588 9.165406209902942
Ga 1.980166164168511 3.325719146232316 8.380665326802157
Ga 6.536982103021971 7.393676837334557 9.200757037816922
Ga 1.6457058031593457 0.38641977233989 6.788422837826718
Ga 9.250729400843875 4.332788244348458 7.061776191711137
Ga 4.400177047033564 5.554284932677676 9.351901252004884
Ga 7.314968911841743 2.469577866484755 7.70729772055117
Ga 8.437769326365958 6.850717240054877 7.3915727645252876
Ga 5.807494535801662 9.89304146574083 7.828340393930376
Ga 1.7289384131690226 6.088199801130846 8.494410231298138
Ga 3.673170405415716 8.102767614667044 8.590513282578588
Ga 3.94054170198041 2.085582725379174 6.678215158982339
Ga 5.6497124109393155 0.36120070828910894 8.018800961978583
Ga 1.5009689711745098 2.7694921356445312 5.573295994178443
Ga 6.294104385721272 4.962505173835316 7.1215831412865995
Ga 9.899707214514034 4.721314129866752 4.393483425114875
Ga 5.571405443204968 7.455568926439308 6.456295834339373
Ga 7.999872558116385 2.81405911865679 5.017741093546869
Ga 4.079167969543111 10.565839618150605 6.07505586977388
Ga 3.670297731809784 4.846165961300413 6.75558919909731
Ga 7.91600656331855 9.285978211333298 6.134179569976243
Ga 6.166685572552276 0.9461178702867525 5.21579538015072
Ga 2.7343644726069485 7.283003527777683 5.945957772966691
Ga 3.4818427200519513 1.223663586472017 4.124493012494959
Ga 8.259919330005674 3.6856388477674478 2.4687260545209715
Ga 9.563619331308168 7.499863449080115 4.737472096886275
Ga 7.237442891755522 5.793986854442231 4.74086688888438
Ga 3.0043685357984296 9.949408413900468 6.6346133635179445
Ga 0.6125721028244255 5.31165329771914 6.085526561843535
Ga 0.7484909941824155 4.0745830080671555 3.2644132557129577
Ga 4.7180618273540205 7.227788196688948 3.97815794602246
Ga 5.179734875700771 9.941910501777073 4.961752924050549
Ga 5.598430116146 4.997547108057614 2.586346608217335
Ga 5.24430301374071 3.6357828185333934 4.894481654375674
Ga 0.7851630144491063 6.825749528771014 3.7537983905051964
Ga 5.989846975873596 1.9114519773951606 2.6722495189479907
Ga 7.13075373415494 8.587010039700433 3.613244494185604
Ga 7.301044058004483 5.331499529890261 0.3870435877712708
Ga 8.679603118635313 6.520936651649479 2.305211537417025
Ga 3.1032527379509993 5.103107219497371 4.158771187264154
Ga 2.2257179480842773 9.225673385354762 3.99568291369023
Ga 4.415937736626586 5.7886252145447115 0.07797046402152444
Ga 2.8820081681231433 6.961269894433239 1.9112438690782478
Ga 6.088520914925178 7.6290348961031045 1.2413144463695163
Ga 2.98502704835856 3.099533576429708 2.289010343894705
Ga 4.458197718131812 9.4924245321631 2.36023320871887
Ga 5.98337199062455 4.182755118652506 9.678504388333284
Ga 4.870666407195905 3.140334245558534 0.5628090275949941
Ga 7.55310655185413 2.5442993541247123 0.035537680600126735
