53
Energy = -139.69197742 eV
Ga 6.12861833138589 12.044151047810674 5.462675351679051
Ga 3.649031617839868 12.229536640119516 4.150868077363653
Ga 3.7332853534811115 12.068791122408776 7.12095998677451
Ga 5.834389856450818 1.6572163636886532 3.4887670668776307
Ga 7.635395799237084 1.6980404868255783 5.823154465923636
Ga 5.995848331280824 0.9503969943594613 8.084836307801146
Ga 7.684829607136689 3.007195368792906 8.309581796628844
Ga 4.538226332182583 2.1323995701440372 5.797770256270119
Ga 9.22580071165725 3.8688505211880098 5.743101652942994
Ga 7.138484767431885 2.3401974946763944 1.1144002561124946
Ga 8.659458526859815 2.3633676660740193 3.367823935246091
Ga 2.9721954779273547 2.1706960380952958 3.212165297563251
Ga 1.679451286341144 1.3991992820025807 5.8044267508704985
Ga 9.935648579600645 4.526104805567003 8.463787569658479
Ga 6.954758288329465 5.0596217901092375 0.138689318155165
Ga 6.9618488095899185 4.503933221781768 2.9229623240911775
Ga 8.691969403208777 6.254833902981829 4.174105141515062
Ga 3.1702964699855047 2.0130792364343066 8.246930211465813
Ga 10.854966200264816 6.095307113614666 6.129843370221773
Ga 6.20544093786777 4.2167865029916864 5.459471899920774
Ga 5.166671381733141 4.070245474463495 8.085127616453168
Ga 4.593048504523762 3.2484906340561066 1.2658437549245107
Ga 7.502859171620752 5.370646103871736 9.692595301518146
Ga 7.731728866351792 5.841634742066982 6.896663839609431
Ga 2.168998824854441 4.399143076643461 1.711348320908051
Ga 1.0729953086152428 3.848732463117833 4.421574714650314
Ga 2.8491801067164766 4.202929204536899 9.757791986695327
Ga 3.9082796914325955 4.720111894942904 3.9808242676659424
Ga 9.588861582200815 7.254201898702527 8.729055646489522
Ga 4.7844317069249955 5.993278233076817 1.3508922991887655
Ga 5.696135132119448 6.890910311976489 4.15419342320204
Ga 2.568784763971423 4.08380641306932 6.690663707128494
Ga 4.891154326618367 6.164853179421323 9.870987495553567
Ga 6.877030249616104 7.794459347484896 8.494305539720802
Ga 8.952734035014515 8.157483886315925 6.0322248889751915
Ga 4.756408600168682 6.598971566370716 6.729665546243053
Ga 7.471119110747861 7.12013389627562 1.878722035559063
Ga 0.298244822641512 6.109657436167036 3.0517923481299176
Ga 6.176730302999462 8.922222495634175 6.097334009354809
Ga 2.32793496704491 6.344786086825898 8.308565731784846
Ga 2.7969989865064613 7.113956207719555 2.7036179468626154
Ga 2.0547439689930234 6.348826515825227 5.315825735150928
Ga 7.708408986544469 9.1032001582593 3.6352477395059277
Ga 3.6246572285873033 8.69091833528068 4.727301579950439
Ga 8.900346776496601 9.855660304632588 8.232508328388267
Ga 4.233431946645874 8.588086120001583 8.852812140098553
Ga 5.103144896904323 8.793563754396596 1.9388973914463306
Ga 2.08733936349386 8.544715476608369 6.972997952226157
Ga 5.318401336046504 10.686818063437162 4.024733319410298
Ga 6.187960753895041 10.452243658630978 8.4626517182011
Ga 8.366449712800568 10.810859209054176 5.602702361530787
Ga 3.638626857751958 10.701668357937237 6.7877030723211185
Ga 5.962987765850969 12.044151047810674 6.2888754134415645
