55
Energy = -145.22213002 eV
Ga 2.872535758818046 5.906418081808518 5.1878483843421055
Ga 12.15997794806034 8.932576718318824 7.105838075548691
Ga 9.47264736100978 5.01662312030638 9.575593837368034
Ga 5.808893287514313 2.2744335066304213 7.010990170880742
Ga 10.162966122942311 9.032121413232831 9.236983186033745
Ga 5.986947370245368 6.018737147651506 11.613115661863231
Ga 7.925057997067766 7.167659875384969 5.02223447031452
Ga 7.572970135415838 10.30046206016315 11.588603755742769
Ga 10.19669152385089 4.2952016896189225 6.901297720008473
Ga 5.499534681179143 6.8070456983678405 6.48112316709696
Ga 5.3074145169605815 6.29440267827745 3.735812448600348
Ga 6.730269699852402 5.463589944525844 8.617613294586985
Ga 3.265204414112043 8.622498055625341 10.032619320193534
Ga 2.834913010561653 7.399970108230994 7.51617345590269
Ga 4.088372557677995 5.859022134107836 9.706524549988158
Ga 8.022079339219042 12.015059362531709 5.686506447225446
Ga 5.448042461565675 11.242891184419353 4.731429854736695
Ga 11.355440828653489 9.327600410619167 4.519632599581373
Ga 5.8855385653319034 12.089438334450843 7.521186169685966
Ga 8.139171247504054 2.993682211982037 8.162520808627333
Ga 9.311533451389431 9.453903242413588 6.672152885191361
Ga 7.398226518292816 3.671599815071777 10.83399203214104
Ga 5.04983287618188 3.0979145921418336 9.550418769995636
Ga 7.587864027963808 10.06296417876978 8.837061198774485
Ga 11.799117258999386 5.98846530621013 8.213476552386162
Ga 10.864909271328763 6.868371963974704 5.660049522556836
Ga 4.980644000056115 10.86164939953048 10.04172463948058
Ga 8.075861386151441 7.617221136073663 10.29053465503929
Ga 8.914172298940256 6.862292933264093 7.609724341290522
Ga 8.84718775559473 5.5088542104302105 12.27088433724176
Ga 5.415099897015877 8.647664417170022 11.833558374873192
Ga 5.6983735388646295 8.187349734566826 8.848147609137019
Ga 12.998014036971595 8.047525448803714 9.542493038542585
Ga 11.792113027033231 11.389764680682557 8.39448850674105
Ga 10.838805656411058 11.690702346989468 5.817347725342619
Ga 10.188268037386496 9.197835955196085 12.263405365590648
Ga 9.804388865994794 11.688375765629425 10.704241085814548
Ga 9.1403452706364 12.18961544830233 8.096463027342736
Ga 6.203100091739351 8.80894449570342 3.4812031523591545
Ga 7.232476973911671 4.664234971528045 5.9890259448483265
Ga 7.156372110917014 12.72783740829894 10.138359865192216
Ga 7.212155081111577 4.338791358111308 2.997669294654766
Ga 4.156221866290116 4.542310539926468 7.316181355985053
Ga 10.937374785854573 6.84470618704583 11.025789104147883
Ga 9.477104456401678 4.885797364941519 4.31951659352211
Ga 8.585285443518629 10.05358595622965 3.888270056589616
Ga 7.892049832484968 7.940230462930622 13.100369324878498
Ga 7.570070643415985 6.903111363149366 2.023717614072419
Ga 6.547277951830455 9.363402361579432 6.437510890179345
Ga 12.163974860994575 10.293094212358106 10.780548517972226
Ga 10.049959745290716 7.433295943784708 3.0505442528330238
Ga 3.783932426274604 10.233307975127966 7.45334160814871
Ga 4.625287395675786 3.8024893936980955 4.677077207908112
Ga 6.907823378464712 2.2277284895880793 4.573531213701458
Ga 3.8818090182115164 8.667329269667091 5.135235022341537
