51
Energy = -134.58805342 eV
Ga 2.5007255656146117 4.670713891841549 9.742268157101847
Ga 1.7985189312040706 6.908425297630712 8.396742324040297
Ga 5.223983340939123 4.275281131492525 9.9376802378629
Ga 1.7279408834469456 8.844167407853718 6.548045635940741
Ga 1.5468896934403864 3.482286455267058 7.31129864798572
Ga 4.285079737521794 6.9134738251226935 9.89913394430811
Ga 0.6857051070665962 7.906302966614475 4.307919152008006
Ga 8.125972953257733 3.9510885874124697 9.65586252945234
Ga 1.2171050329864137 5.783121360294319 5.874539857245558
Ga 6.186718731611114 8.992827753096666 9.766153002792606
Ga 4.074897641431618 8.736571329392113 7.800045990113719
Ga 4.240192780893993 2.389685840256607 7.3933379625884035
Ga 6.243838654521603 1.937315036695907 9.146077452895586
Ga 4.0263434161760845 5.438442036012226 7.430145038110753
Ga 7.137189792432945 6.411427317247404 9.653473126032027
Ga 4.353544212933642 11.025958984213295 6.278734116889975
Ga 3.748772289578376 7.069288339411427 5.227632230597721
Ga 8.89806296012823 1.5992760069248255 8.2459113963008
Ga 0.6579287842489603 3.534719259431277 4.332333405423458
Ga 6.48335349672945 4.370872820926213 7.280757444506354
Ga 3.1911331035993187 9.614102391544542 4.292791366894756
Ga 6.814580372724163 10.078173604802316 7.211160310363866
Ga 6.227197874496153 7.231736224966233 7.167859743619056
Ga 2.2037404802521614 8.31925004247716 2.090691158017661
Ga 2.527932367271998 1.7716650401926097 5.358338925102178
Ga 8.852489230383673 8.565309849209028 8.522983740181393
Ga 3.602424468360739 4.265660032337539 5.133165699066395
Ga 6.721596100450368 6.363597827635129 4.690911737215782
Ga 5.997832186093488 9.115365249130067 4.834226247075373
Ga 9.148130514370328 3.6892620054398697 6.451933057329116
Ga 8.784625802290105 6.062958530048664 7.395504368157257
Ga 2.1920949508788468 5.602479965224378 3.0807448368931727
Ga 6.900706714143488 3.684265870807248 4.612860882712079
Ga 4.972371471874997 7.892609275160337 2.772124792939303
Ga 6.765831955123797 1.6201912157552862 6.350797531420502
Ga 3.0151309858314352 2.8590806878492647 2.6747490291744462
Ga 4.975159493834356 1.456801031873152 4.357403161608701
Ga 8.648515057804962 8.340763964967287 5.615678369552473
Ga 5.036757967290452 5.119968220159909 2.946242335741026
Ga 3.5468509765883667 6.532727997582244 0.7035573029702049
Ga 9.486225767936398 3.2235847495705188 3.6705472412275544
Ga 9.583796247380166 5.976109909694056 4.56404645416287
Ga 5.90504167387748 2.6654358856626215 2.152753922728836
Ga 8.00652314423556 8.07816875432164 2.7070732251044234
Ga 9.41922016264537 1.07271466695801 5.572189921470879
Ga 4.135186860812103 3.948322918019697 0.4336671648203328
Ga 6.349296022612269 6.832316818964323 0.7128603382223554
Ga 6.870447787010768 4.295116288150268 10.105694266378483
Ga 7.599614109615089 0.9133788494253942 3.4357796472010205
Ga 8.103753946139125 5.226955719093754 2.394801628905243
Ga 8.525028826504009 2.566560128155396 1.2442931423167198
