54
Energy = -142.01598445 eV
Ga 7.245259463499129 5.504406748025489 6.856630300193186
Ga 6.933628367828678 5.4179017747189935 3.972125320977427
Ga 6.597685218513709 9.797642828905785 4.299691502737646
Ga 9.504204094309832 5.547674747052464 2.981187093650566
Ga 5.535929112427775 10.735568271931875 6.942252211055871
Ga 5.553946172461845 1.2529181976672132 7.515781860018025
Ga 10.323062537109179 11.7236812445585 9.519440000172514
Ga 5.954398934911644 6.288147907517999 12.006418701961337
Ga 11.99682776546175 7.000488321046852 11.827896485062993
Ga 3.629240089411831 2.69404926585136 6.0522612143107395
Ga 7.633060167173736 12.263598606196217 5.216330981399388
Ga 9.520672438730331 5.962352769774454 11.168840739994277
Ga 5.730928728294312 10.18145381744385 9.755574190336546
Ga 7.328662916582356 8.866620466442654 7.841779692863531
Ga 11.98015478136341 6.390730285013203 9.208022136582374
Ga 4.559395618014523 5.246267895139929 5.296939469600462
Ga 10.05450531784431 9.431507729892886 8.111492621836048
Ga 3.956894428138518 8.416556782345207 7.980846667461755
Ga 9.18201762748217 6.893531717389876 8.484214022705855
Ga 5.407400774498257 3.975381557416643 8.219028765670929
Ga 1.3331458820976352 9.550542758326394 4.4522410801543595
Ga 12.303729567508544 4.38657840138526 7.404950342753693
Ga 8.212604332557811 10.512896837285625 10.498795748133535
Ga 7.899552309175256 2.9141731325847298 7.858234011884446
Ga 11.619612986848791 7.594745420863443 6.846033192687211
Ga 8.289271993225567 1.1026563881733806 5.683295193229368
Ga 10.305539551356263 8.742062526290171 10.70129028644175
Ga 4.114560751079418 4.86194125678101 10.6029643795072
Ga 7.702097944906047 7.746904874490363 2.7338807280686757
Ga 3.061562903213939 10.36063187960003 9.66124852509016
Ga 9.299094378943023 10.161895104953999 5.77954972663632
Ga 2.7197135142393285 7.459893314073314 5.6472860698232275
Ga 5.87798878376099 6.689083662237168 8.932411985734854
Ga 8.763597236983475 3.3873041721812043 4.239861360862645
Ga 3.2230393669010318 5.924619840615779 8.135736121901173
Ga 10.280563249331054 7.790871717597079 1.7170603114114145
Ga 9.077857271684486 10.236307660981499 3.086194621241236
Ga 7.39043334215659 4.6236309825179935 10.144073393064287
Ga 4.979470441413212 7.1591285640065205 3.238401123411753
Ga 8.310248113563064 7.625593395512367 5.508606685060063
Ga 5.608505503398374 7.778422041756611 5.971580525278739
Ga 2.811079029384517 10.362777407354018 6.612399611967974
Ga 3.9050511202613913 7.750755503514002 10.61282040031725
Ga 7.972688843688755 11.735138281298555 7.9012216752381175
Ga 1.8496136123494054 4.824821478473316 6.082406882286209
Ga 10.747646146851318 7.951134955699837 4.385451822267351
Ga 4.670777714165616 11.96467700817545 4.636593151269048
Ga 9.980370493641491 4.3331617228241095 8.93699956436698
Ga 9.935651693208055 5.491387780692034 5.940774475701129
Ga 10.311255425400937 2.8276126516691757 6.55198446349195
Ga 3.975786051845364 9.448364792592029 3.950936964476311
Ga 2.773176947283486 3.2286790884454053 8.811731607529689
Ga 7.541255903981457 7.945664353962945 10.659628494464949
Ga 6.27330380815175 3.055068635221411 5.433286302641012
