51
Energy = -134.4097954 eV
Ga 4.4211901506980515 3.400214282684609 11.680755180405496
Ga 3.196662993011375 5.178362079153978 9.801090993566568
Ga 1.9126187139456854 7.269930929018464 8.366542709701815
Ga 5.9980760020651696 5.304629358833941 10.196697343639059
Ga 0.8543484758411701 9.475209090343684 6.908439610690108
Ga 4.688891385362391 7.064977107654535 8.535137321860336
Ga 3.688052195445877 9.148145329197396 6.992195832084461
Ga 7.556432162582203 7.1137444407533685 8.777397362744223
Ga 3.186114243973149 2.3593308669488033 9.2744136874572
Ga 5.988583697731861 2.5439649340707864 9.517885393196382
Ga 6.303700703127483 9.307333965437753 7.617442781816849
Ga 1.4158366952614703 4.477870165404559 7.762672331126371
Ga 0.6284922381461947 6.648168495216892 5.921480348645464
Ga 4.552826526918776 4.082955215579914 7.502173914788308
Ga 7.264658719259408 4.452648478441654 7.898695187259674
Ga 2.203862124851684 8.620238726252266 4.714548492993496
Ga 3.2860425125592694 6.085091106341129 6.081239263596669
Ga 9.60800199626329 5.890685768769496 7.394313491430228
Ga 7.882962914698409 1.656852353872471 7.816494286076118
Ga 5.857886582967366 6.935313406613762 6.116170010281135
Ga 2.532781704404434 2.1596279747702205 6.631027077132952
Ga 5.281033801115654 9.305782467428958 4.724317681025595
Ga 4.883254890212905 0.85187593879083 7.624230806256758
Ga 1.001584686829795 4.068557303236903 5.010844164881904
Ga 8.48364213754638 8.433075425350534 6.1911223442939045
Ga 3.962210460175092 3.856551428408733 4.699250843221068
Ga 6.2081508887017245 9.645061062302755 2.146296128077895
Ga 9.974568218891807 6.475401753729175 4.662316710747364
Ga 4.601619511915715 6.463244214218765 3.7452351727062205
Ga 9.563712746949575 3.30911035607521 6.53793207774148
Ga 3.4824959676548315 8.636887190445643 2.448248142027347
Ga 1.5916764655617275 6.329683498180403 3.1415227586882284
Ga 6.894071366100038 0.2346572502113873 5.781801276001438
Ga 7.677542810855334 5.327164333916849 5.365940080957149
Ga 6.3331064080604245 2.968761362040742 5.712207784909632
Ga 2.0804689574711377 1.8198165601322231 3.707899389407058
Ga 4.317213616100543 0.819325388851724 4.888376082829639
Ga 7.501815168838708 7.775707121255486 3.79510909465327
Ga 6.2548407064868865 4.4099103730730524 3.299613856885503
Ga 6.422327606033962 6.856924960465892 1.5019035747903138
Ga 3.5422334986192134 6.260076362727775 1.1667215131859903
Ga 4.602828547303902 8.816559794293289 12.520465124690917
Ga 4.779921892899921 1.9596794980730579 2.300432790216603
Ga 9.206203381880545 3.2916937880375405 3.893844061635625
Ga 2.6332937217154373 3.90460560020191 2.1605470764549097
Ga 7.1402408335061995 1.4384725404432936 3.4623854410994377
Ga 8.811341992991725 5.656167586888175 2.3376706149085
Ga 7.827974209149513 5.043359743896169 12.118028742358176
Ga 7.889754096830638 3.113867561644656 1.5005093550378663
Ga 5.280522755216702 4.079563779870263 0.7656099537838033
Ga 5.3313733404749035 6.274444736902322 11.680755180405496
