50
Energy = -131.8443138 eV
Ga 4.475025554168373 6.39573578944167 10.545231150224728
Ga 4.413079950162871 4.060350075197833 9.217256993552352
Ga 6.732495829150774 3.4216164106772027 7.552159012993374
Ga 4.373384810649215 1.9857348401179267 7.614546216377858
Ga 2.1408982502657077 7.985612023548504 10.33182191057189
Ga 6.737099512908405 8.094955398781455 10.413629085645438
Ga 4.344576244865076 10.20557583542864 6.556877438257507
Ga 6.78155911166821 5.610448781174785 9.138973268651235
Ga 4.539294826187001 6.975068176946521 7.800531045631288
Ga 2.457920039177383 1.4722994399548708 5.679421150817418
Ga 6.729862712791925 0.8661719972810161 6.314512968943559
Ga 4.330269094697345 9.285288661087897 9.243011551717704
Ga 2.147672114011824 5.767665801020992 8.714298277373361
Ga 8.899324655570563 7.432880686222258 8.440090014706914
Ga 2.0074550027409286 3.5879722432328194 7.188159970228481
Ga 9.19722394104155 2.308543042685984 6.341316514910061
Ga 4.579019207126279 4.778832881488455 6.291201690143937
Ga 4.982766814127842 2.536874504913145 4.875997561296725
Ga 9.13162951188601 4.9153408264633605 7.413632519049688
Ga 2.015550059536356 8.347269750612174 7.528540761434097
Ga 2.7972556791667835 10.146426124048153 4.168945514225541
Ga 7.630458813187929 1.5475014746814766 3.740511635777195
Ga 6.659712240583452 8.926137560343765 7.681280957065788
Ga 5.353393763238434 0.11517473910235397 3.8135075770961095
Ga 6.9211876688874465 6.448636766886792 6.388008786131679
Ga 9.898667396074885 3.239921240664294 3.79136424145986
Ga 9.13644155286155 8.169021532878167 5.774076878414647
Ga 2.1335982578490613 6.0965116422635885 5.93157614931114
Ga 7.4893062253165015 4.245467625893234 4.957850511187685
Ga 2.927967838430579 1.659471849518466 2.793806730685865
Ga 7.50103849034829 3.856510792389607 2.187476626753025
Ga 10.112955205080986 5.7904263177505255 5.060674272859419
Ga 4.326822855895812 9.628848236343488 6.491782980541003
Ga 5.400541138908738 2.29092475902145 1.9173801020235002
Ga 2.5979073325386413 3.9394354315918254 4.3816144216953035
Ga 2.049585589224542 8.587496696395315 4.801345384968039
Ga 4.525042202042393 7.245947746570603 4.638007142955285
Ga 5.161086659003753 4.852338608515728 3.4058104139599483
Ga 6.840701373271266 9.302787417955313 4.940225719279505
Ga 9.546566622010971 5.626985702771514 2.335899329779418
Ga 7.440252590090903 6.789377472172157 3.795379286807347
Ga 1.6114463533152739 6.340779762802588 3.1578641759918598
Ga 4.436220304189833 10.002529123780862 3.8993143638094345
Ga 2.4800727497454442 4.128050449094122 1.499260946018497
Ga 5.166434245350413 4.706881774064723 0.49442581823462234
Ga 3.9600617684458563 6.697604879294128 1.935312608654206
Ga 7.370637128588015 6.385230486219033 0.9823485229686131
Ga 5.970167933700837 8.565240337459963 2.167623047056284
Ga 2.609056821106568 9.046993239538486 2.052581453774168
Ga 5.272780931884904 7.575391641280568 10.545231150224728
