5
Energy = -7.68702696 eV
Ga 8.355599465136338 9.683548817769948 8.171420030062254
Ga 6.868157571946924 8.049268750147046 6.641390637232602
Ga 5.805916834753028 9.436569812201935 8.912932247344434
Ga 6.5058413620210835 5.330766992504626 6.665127759088445
Ga 8.4549348543367 3.4904271338187773 5.599659034744883
