55
Energy = -144.1917295 eV
Ga 8.766216911389927 5.913137936127203 1.4508945181632114
Ga 9.655436741140814 8.589799949525906 2.153430935805556
Ga 7.2250318474284025 7.454091603926513 3.003417661321601
Ga 11.145603629949976 6.803414595186487 0.49473314826124065
Ga 4.619717815036455 6.906825055174476 1.8021486134288913
Ga 6.42375556242924 4.653482200127131 1.8337745114101973
Ga 5.134649320387643 9.165590318690514 3.4306077888216184
Ga 8.310925297211957 4.988218595927722 4.13522618654772
Ga 8.048164142107801 9.7679093489273 4.14318380254195
Ga 11.080111353555864 5.235312280336045 2.780134360374951
Ga 9.734085913288801 7.126888866758622 4.674717957956079
Ga 6.975049538219291 10.62224630592804 7.133140233890673
Ga 12.144598715184184 7.757792414799957 2.9821020297893543
Ga 6.529857691419383 3.080199583130294 4.0554356354526675
Ga 3.8311360276495443 4.280621852219123 2.9656631058327574
Ga 6.263696946920403 8.178746922466022 5.846364333832847
Ga 9.311156968678963 11.105158194676486 6.092835241600979
Ga 2.9191633484459065 6.9168166878224 3.807067548889052
Ga 8.74629245059532 3.1327490128912423 6.244564570163813
Ga 11.202337728480003 9.475061888742479 4.755886387913856
Ga 4.339649036517649 3.345977824306116 5.633065269212632
Ga 5.572555834670723 5.921186391005322 4.487766519738434
Ga 10.858547554673365 4.2755453748621814 5.190692802905913
Ga 4.854891460448346 6.163067899568055 7.0725588484982636
Ga 2.223437926503823 5.32099678648072 5.835659530294798
Ga 12.406715236126605 6.540066708351317 5.453281599563052
Ga 3.4317500111242416 8.316385626813869 6.0227297698745454
Ga 7.32220475321868 6.524540540374551 8.088539990927698
Ga 4.675929433208553 10.830505391749922 5.54653576297635
Ga 6.556114486114913 1.5374710944250576 6.222668254636618
Ga 3.43290706538618 3.9933800387804443 8.064088595571477
Ga 5.09982618049355 1.8192335426396293 8.479430594939906
Ga 10.18651079116364 5.893723828057559 7.23000700777083
Ga 11.459016073704625 8.325052300663248 7.394987361703841
Ga 9.65155567694218 10.075936692766348 8.820538514663708
Ga 11.888020401730593 11.038943546631483 6.990524819767227
Ga 6.486702766798989 4.107838883185177 7.293490545362775
Ga 2.4144250776560714 6.765814876034096 8.100066106376953
Ga 8.716969091893978 8.370133034688083 6.767126434530265
Ga 8.868990114285118 4.24349013597519 8.980266673157105
Ga 5.186544882493116 7.057449372362152 9.635545947058851
Ga 4.5225220949074245 9.726718516833111 8.109366985525572
Ga 9.88095146004719 7.339663713386831 9.528520988038164
Ga 7.132868249072676 9.266761056664564 9.52413785612836
Ga 3.135157054065356 4.945154825363959 10.443768393556017
Ga 2.6470821205901154 7.650351525850454 10.544999333585745
Ga 7.865257252389034 6.179756349402142 10.825020751578268
Ga 6.2956752543061105 3.7513638697826557 9.993748910956358
Ga 4.509667442731789 9.639373007646883 10.655180943460294
Ga 5.410329742374129 5.381807635133942 11.81988422822797
Ga 2.358141147687669 5.836745394009338 12.850887496546529
Ga 6.892999516107484 8.322861122413883 12.034500971942546
Ga 2.3308768073510664 9.126521127233003 12.776354164607303
Ga 5.185576381414384 10.120131813286955 13.22815657993418
Ga 4.5105303900139555 7.4698732576215825 12.948459592115503
