50
Energy = -132.00607058 eV
Ga 5.590659376515458 4.853372023767049 0.16362226244436262
Ga 3.0226423641154287 5.806862015418031 0.28680094247416704
Ga 4.555624122839599 2.3816750787063925 0.8817439542185087
Ga 5.438116451052849 7.512542117760989 0.9707404424582463
Ga 1.1031909903280948 5.532535633874536 2.2512548661204694
Ga 2.0167832448185363 3.286951248400395 1.1854592116286626
Ga 7.869481090565025 0.44364202364055894 1.9402970940114794
Ga 7.362214003119452 2.9411361209079505 0.8101098471363832
Ga 2.9966702703168444 7.561220296642665 2.5140161102934107
Ga 7.305255516414391 5.507278271810672 2.235544644034414
Ga 3.2362394592164527 1.4492040388861582 3.1889613451128227
Ga 5.142448347305994 10.563527330108654 2.1999048135981827
Ga 4.298845135212282 4.686109560839904 2.7366806472733205
Ga 8.370016798118925 7.517353226878127 3.633279213442257
Ga 6.826081894251423 9.409657471063358 2.5815326641592895
Ga 4.42431700971925 9.673088872370345 3.6769555859605716
Ga 0.3662677364291834 7.28076148967975 4.131712701445728
Ga 2.234781790203775 4.052952710491104 4.4503016250221705
Ga 9.949397446909895 4.539883656045303 4.0318759771110315
Ga 5.431544048908797 6.924208960893679 3.814625997812693
Ga 5.972735087319307 2.3568293089427477 3.417192272245839
Ga 0.6313476865128822 2.154622140042688 3.2553554123633517
Ga 8.784290421991043 3.3910337051431383 3.1322150949129406
Ga 6.700585500448906 9.673088872370347 4.393787266571766
Ga 8.482884410814993 1.0425658031568936 4.552561456444196
Ga 10.207935504828903 2.431049100729762 5.914491037801069
Ga 6.877370295462228 4.519171079285769 4.827056656812401
Ga 9.717477262928695 2.897976046036316 5.973414915070967
Ga 9.549778070501034 5.472801363893507 4.891236242894506
Ga 3.094137468793298 6.572835680241643 5.2412224354078205
Ga 4.589770953922709 0.35337952261089195 5.33076128491414
Ga 8.108898266345594 6.902008372611035 6.880951214513672
Ga 6.709915091936257 8.794762971431497 5.44722856586295
Ga 1.9231415189808978 9.338671548429305 4.7173974936470415
Ga 2.0116153040597564 1.1562475997677975 5.584236113463058
Ga 4.501047764075723 3.371880953868894 5.677466790021517
Ga 6.739174498234393 1.754369749856257 6.476558002758225
Ga 0.7106501085330161 5.551271782739137 6.275757426614612
Ga 5.4081584963553615 5.966639500473725 6.504827698221372
Ga 4.072925112773849 1.518612542674248 7.8014629444881525
Ga 7.981978470529413 4.31469802074544 7.39509956406092
Ga 1.4261143627913864 8.142985177843036 7.179104667367965
Ga 6.192441055522595 8.34846987452824 8.157354760955949
Ga 1.8295143803453195 3.3108547814904905 7.343871350616663
Ga 6.215012571857079 2.863483698025543 8.91576574535868
Ga 4.15926015176158 8.929996370323224 6.3921648273802365
Ga 1.4404444461557628 5.5552746464264455 8.992323159097744
Ga 4.048032015835578 4.339012812851815 8.386747505897718
Ga 3.693821155030413 7.042999953187185 8.422516102950814
Ga 6.370724348408266 5.700203751505544 9.28549734721805
