55
Energy = -144.98137209 eV
Ga 7.81203883657844 7.976839440768983 7.492055660534804
Ga 3.2752845436314346 3.9747879829068857 6.695034087907468
Ga 7.40161394763933 3.6959105513000434 10.326873924243444
Ga 3.1986268105599085 8.3769568376947 8.745518256035409
Ga 8.408133029536678 7.232964941606999 5.0403750425582015
Ga 7.629105485950497 6.509330882659952 9.926722315758372
Ga 7.825593100594684 11.073789756051092 7.660273858113493
Ga 8.21259165722816 10.34299626274333 5.0111661583180735
Ga 10.235502340329678 10.886192921441193 9.171439943730055
Ga 7.745697404941844 4.785633314161798 7.553386758184471
Ga 8.426835229003673 3.030644201780823 5.446286999183228
Ga 5.333969186528984 8.062259476686668 10.604968250411183
Ga 3.0664535649904487 5.397332763055626 8.949180583902757
Ga 10.42599338405614 9.110800872679784 4.11087535536708
Ga 2.7537436230646963 6.9920109203023335 11.192486808439268
Ga 7.63929490518359 1.9969347573007263 8.242850610667976
Ga 10.351638662937138 5.0665412073511495 4.713682117705254
Ga 9.93097241773955 5.094341138123312 9.491140637801504
Ga 5.510536694209317 6.475665261483638 8.108856373859856
Ga 1.5925190795730941 7.7046425404006245 4.674478323978756
Ga 9.980366529872942 2.237916349022882 9.63804546983829
Ga 5.5754032987018665 9.533475976509594 8.25680149053555
Ga 3.3026811437398806 5.277414317905396 4.2436103256225
Ga 7.809202422987548 9.518827192430138 9.90322319175748
Ga 5.177653818624389 3.5346079096148486 8.702123561408298
Ga 5.845790968702728 6.9098183300319915 3.5168983945602674
Ga 10.160154706853096 7.9658712622680365 9.267653049520815
Ga 10.252211271215803 6.471810227270961 6.989652692369382
Ga 10.151139395524257 6.829213780774916 2.6929848116526376
Ga 3.188402233345461 6.958003067786129 2.164171752826092
Ga 10.310230714618765 9.365454204748207 6.823131822431388
Ga 5.938854707575174 10.78236698906021 3.342632447080386
Ga 3.894941826013966 8.948971683620233 3.8011193879404703
Ga 10.407340644026664 3.6515023896966765 7.214271178993334
Ga 3.515933285865104 11.75598608143097 4.293020675900399
Ga 5.252988070198167 4.395478406150879 2.355334171981857
Ga 5.940323648177307 8.534697060150057 5.668107884028118
Ga 6.605877851095597 2.336445617938415 3.664476319365173
Ga 5.599097641989161 8.810781573587587 1.4527186600203108
Ga 5.603476591392544 11.290184489129878 6.105455113271026
Ga 3.893948151582397 2.597992987039315 4.38465309776174
Ga 5.078299818031129 6.267516278652255 0.3478653442288017
Ga 5.84116046055954 4.970478440207355 5.551398916420501
Ga 8.062025147917847 8.891619261861667 2.6945045479113645
Ga 7.68736673657675 6.580278356593723 1.2653855147876651
Ga 5.74552540105433 2.2341819676345676 6.384362146008717
Ga 7.850870060271212 4.969706815240611 3.5089953280552404
Ga 9.860033069477991 6.71913830053436 11.734532256961709
Ga 3.6202315846691335 6.95279175136031 6.312625443093522
Ga 5.084623935989272 5.295372641218936 10.895301594519857
Ga 10.058626396122904 9.590302360047605 11.636556241630013
Ga 3.107603545440942 9.799589262101671 6.373142564330201
Ga 7.489665388088771 8.1914655199653 12.315249498896055
Ga 9.54298267048749 3.9432682327699062 12.072703976015317
Ga 7.118205842526544 5.430277768738907 12.599021945169534
