53
Energy = -140.08954518 eV
Ga 3.5827640158511125 4.624005456370586 9.224346790658245
Ga 5.560458963820605 2.9457026925722642 9.957801777845463
Ga 6.782651552987801 0.7089314872293658 0.3093914564416814
Ga 2.6729025270454163 2.0959690260958985 10.282913680574701
Ga 5.699359587931178 5.561215940027486 0.37527998696689424
Ga 0.25360586255220374 7.289691962310164 0.5148171561575312
Ga 4.240686501980673 10.200768160912293 1.0778062008961853
Ga 7.861251229768854 3.6244265335874934 1.5970841940424625
Ga 1.233948489321631 4.717551858967824 0.23702648065574164
Ga 3.2506208841013806 6.874050637119051 0.4453427249023059
Ga 1.3382874901172837 10.353575401054167 1.396629100719705
Ga 7.823772508480831 6.680457856191448 1.5909025865695248
Ga 3.6288955525232978 4.263058243138908 1.7566226582568327
Ga 5.505842050264551 2.1872088759616117 2.266645038315364
Ga 0.571411969665133 2.7225186092998954 1.886366926644857
Ga 5.157275102234603 7.781905338319646 2.482953897186825
Ga 8.691319404606277 5.108582267356776 3.913810602816631
Ga 8.166051081116304 1.0486160529597304 2.7832005626791947
Ga 2.9660925101636884 1.8533665349100008 2.735306994906179
Ga 5.809831706837352 5.215300904229632 3.2962859705842087
Ga 6.098982565116417 9.581436963813264 3.095284785930891
Ga 0.12519290257124951 8.439448467470749 3.2217268357752
Ga 9.364589325913679 5.186949794573937 2.2712503109610025
Ga 2.4437550571984707 9.085231908898695 1.711150165223914
Ga 1.6422011132311263 6.090063639919303 2.621592443774878
Ga 2.8415315856330996 8.043050537953244 4.234583610674001
Ga 3.287551883304759 5.1540063755702485 4.353698808684565
Ga 3.1305665455968517 9.440575356233612 3.54812896647143
Ga 0.6178858130931433 8.72190992148499 5.874427466443735
Ga 0.6644909806029556 0.7737781147173274 4.111924724106779
Ga 10.309146305147747 3.559621036511724 4.416774396991715
Ga 0.3490151513446937 6.142907246407011 4.98428785947368
Ga 6.686519895887034 3.0518799011126503 4.460437336400182
Ga 5.119522372381868 7.114302458617639 5.414743020481808
Ga 4.698616273546173 1.2849655230139063 4.707588857394717
Ga 2.5398501149047137 2.7387215424509685 5.166060437599287
Ga 2.892333559161839 6.793514054893083 6.738264681895959
Ga 9.364589325913679 2.5263751582178524 4.874216867128203
Ga 7.361548066314363 5.346451480811362 6.382019519949759
Ga 7.293188151378344 0.38030639605474237 5.478139633289595
Ga 4.995961149278679 9.188541443723617 5.745026290997597
Ga 7.440023147475309 7.562919446493977 4.275761325281503
Ga 2.393381426377245 10.237474688818338 6.470626031004831
Ga 4.724639677092971 4.009968238189669 6.3376299546352275
Ga 0.4769948930795823 6.854752468574834 7.912648594265159
Ga 0.3701005012130232 1.796573020677091 6.700765786366801
Ga 1.1738791545794487 4.3856730426750525 6.962368201043709
Ga 7.485150894442881 2.6725816597759113 7.118810802863478
Ga 5.342970063189996 6.244891690940478 8.059007489662216
Ga 5.167617665712345 0.9537371030839423 7.4587766144319225
Ga 2.9003402930833606 5.01742895298777 9.052117741796994
Ga 2.920250914428674 2.391903772502174 7.894591625541654
Ga 5.392288696500353 3.3980805541687866 9.030543817675756
