52
Energy = -136.68788106 eV
Ga 7.748393898978818 8.285467353234841 1.4904201374088704
Ga 5.43386264523307 10.543880401313809 2.3428912046091703
Ga 5.57659376189097 8.97598651320886 0.12222564896506405
Ga 8.402559402884624 5.750272667532061 2.07887919835787
Ga 6.579819670729896 6.729999308710769 4.059168049835871
Ga 5.166829356243731 8.989616130546878 5.365692142164756
Ga 5.978478187092878 6.193147844394388 0.6309010249437572
Ga 7.4102106927547196 9.408599022972922 3.8870561868510496
Ga 2.8579738567180777 9.738027816050126 1.1594393875487792
Ga 3.07993086938553 10.351988463662703 3.8844193526463884
Ga 8.745024064436537 5.45061975955845 6.774601424560616
Ga 4.2510599738043915 6.05745258083851 5.344270187112619
Ga 2.088138727995755 5.024774843901393 0.022474913533753308
Ga 1.617377550358862 7.586826990655145 2.6706241774488446
Ga 2.82351973851187 7.187909673429537 7.691364385349538
Ga 7.247189231741575 2.1219654876439957 4.098221580646296
Ga 4.7481959739527655 3.900606201845734 0.15838126318408205
Ga 7.4114810032439715 3.469691453899516 0.7039445241240522
Ga 6.204908849750068 4.1659470832865635 5.9918394794937315
Ga 2.46789478252418 8.23991757662605 5.306663391684571
Ga 0.7004362204849078 4.4040690949670385 2.5229641387176986
Ga 1.0021497626377274 1.383547183215095 7.513838958722551
Ga 3.457043780200186 7.308813937743629 0.024553197648766328
Ga 2.2231184962111725 5.689709369321024 9.915841394794358
Ga 2.8130714585411716 2.9653714819891057 9.214009571995774
Ga 2.4663048666096183 2.6406257318467046 1.1331259246198928
Ga 5.202160549949084 7.0860900371512425 9.19886966728482
Ga 1.3660030520358137 4.603907265608855 7.3036346709925715
Ga 6.500212919829758 7.047690439640571 6.805805980726611
Ga 0.9859401837676989 2.8403102759192382 5.022637306467766
Ga 4.570282183446006 7.9481698381414825 2.7529584399346447
Ga 4.837520664919017 4.621484970689242 10.640381382388611
Ga 2.5994086865599146 0.713779537735691 2.9751063646182456
Ga 4.329708912647513 4.91234875965185 7.878457387503171
Ga 3.509601937430553 5.4774937814767775 2.382708592855588
Ga 1.7051256912863175 5.620983393123284 4.716858323544321
Ga 3.427954002450855 2.936268074490009 6.463993593348233
Ga 3.4781757423741357 3.228413979078581 3.8574502050861805
Ga 7.067209346020566 4.808002662335304 8.923857756833621
Ga 2.881654761115191 0.28360828368105506 5.68795775638625
Ga 5.892335142733183 4.341815602651424 3.0959200285823374
Ga 5.568893562072391 1.5528540443234988 6.320320675871991
Ga 5.257688538503494 0.09451880090779323 4.010810706195738
Ga 9.268316646752703 7.228095957370467 4.435811649091774
Ga 5.251577958209143 1.9311536890245218 2.065402570409795
Ga 5.61614538564584 2.5120599006941227 8.937675054219126
Ga 8.111955435487168 2.6001168648493747 7.361163100102728
Ga 3.7608416923571046 0.4562607740741904 8.31853695452436
Ga 7.897150567866336 0.08493622051304184 5.786122695825655
Ga 8.601083637414616 4.3071790175871705 4.320668975395382
Ga 5.268833833395634 10.543880401313807 6.383594676313503
Ga 6.689552351266523 0.059123760299220104 8.471760788247503
