50
Energy = -131.521178 eV
Ga 7.034640714466902 2.759934739233909 8.919025828604711
Ga 1.667265076459424 2.4665487129961052 9.223865764767867
Ga 4.310151833493463 2.172265398276275 9.370855154208169
Ga 6.0330087901622145 0.04700484401802256 10.02365276208761
Ga 8.479659722837148 1.0614624094278395 0.803455331868768
Ga 5.603983634659333 4.827158170629976 10.178091274814284
Ga 8.602053354782418 3.9726923151696396 1.047077179563471
Ga 1.0843427088588633 0.46510824222175523 0.8028606816333927
Ga 1.7039781874792415 5.030914314725261 9.944216946082074
Ga 3.6264462863998075 6.946489233440474 9.818233305810866
Ga 6.072463531412209 2.5363233009255013 1.3621052362309065
Ga 0.20485822356754652 3.1468463141653893 1.2244411630554481
Ga 6.146977141300091 7.416616243167666 0.7753854133621119
Ga 6.627978101509134 0.10870801190035018 2.6477204968923727
Ga 9.282713255437322 1.1561576998557406 2.6051599522169644
Ga 3.419524083065803 3.1617549028982084 1.4175798606958547
Ga 9.61179514579488 5.781193941905336 1.4431866731768574
Ga 1.63717573877585 7.468653801889399 1.550293033524146
Ga 3.8864575554066567 0.20819468947593042 1.340145314731011
Ga 7.668107287291094 2.9632887022680388 3.5486682251535906
Ga 4.147587760087853 5.88338836727681 2.118661458387853
Ga 7.050939808080627 5.569681908579755 2.544691456359022
Ga 2.0630264599477917 9.058787433232732 2.8956687963712953
Ga 4.017821013725551 8.797246275722502 2.0076136357918224
Ga 1.8500848372869139 4.821672788396705 2.630981332772144
Ga 0.16101381413717603 6.8136520510332295 3.98919299216706
Ga 1.0664242121054222 2.5610020180833275 5.746741965033295
Ga 4.889485054775096 1.9116816035895101 3.769805171044353
Ga 5.700951071778137 7.435274440426049 4.139273723798978
Ga 0.43398224357546816 10.104256754868356 4.699516535909246
Ga 1.9610440692325377 1.7723724990876266 3.2124964606672806
Ga 5.143398279913204 4.649357359056229 4.263537085167536
Ga 2.9940009745505445 7.484463764621053 4.27980017541926
Ga 9.70495167806905 3.8643253651805582 3.7613421408570713
Ga 4.604560131102359 9.276524163485416 3.9261013153760644
Ga 2.041235120846813 4.97653342760307 5.178113405978895
Ga 2.9765369807820243 0.2443643988622748 5.659831039774951
Ga 8.602053354782418 1.733710234393658 5.405352862708208
Ga 6.774076493369586 3.564329482636625 6.16524865837085
Ga 0.6639449101770114 0.24962422368532075 7.368317483488501
Ga 3.7277999314379087 3.10489918742751 5.8097578653140465
Ga 1.5467324839871475 7.242578739803608 6.611388967014077
Ga 7.5440026965079285 0.8212723576257095 5.20165684317937
Ga 4.335645672344367 6.069919674090773 6.590517158475322
Ga 9.6666520174815 5.004030370760279 6.2901309017295395
Ga 5.27768748767671 1.0261188372511507 6.783936460940863
Ga 10.005612885417912 2.76401610789063 8.226973889977371
Ga 2.91567308243973 1.8082451628613403 8.150654681163344
Ga 4.934584133587408 3.8541289027697276 8.317829011262818
Ga 1.9691570076912994 4.591560061874341 7.922396996837332
