55
Energy = -142.9586455 eV
Ga 1.2663091265211632 3.794069145200172 5.810973447865498
Ga 8.176819150795886 10.730252681085206 8.16419178549107
Ga 9.260482440248428 9.862359937519216 5.391276558342646
Ga 4.224732984801984 7.635850837326805 6.485464848161399
Ga 4.745885927922539 9.576915374948923 4.02961025427648
Ga 2.093483045246437 8.602639772685333 8.065776262405615
Ga 8.679614667712736 5.0404016917542505 0.5785259568792578
Ga 7.6478550704632715 3.920873128313195 7.747401041015078
Ga 5.883920007648548 5.888261212554921 9.19095471640449
Ga 10.655453702031375 3.8627900809217 1.8723725126311812
Ga 4.535409636915118 2.9881765420536373 1.878250950782383
Ga 1.832208498775111 4.0160605722534815 8.663506080562591
Ga 2.6644584023612263 6.079649583227003 4.757881379845072
Ga 9.64652748455721 2.310564282447084 6.727228972825604
Ga 5.3095137860776935 3.1600141859033317 8.970367047524482
Ga 6.133012537668667 4.5319208957841415 3.934046759941065
Ga 8.801169399573855 6.256815596278041 9.629758478009885
Ga 1.2090895645113802 6.252805635728697 7.151448266520785
Ga 3.8163151532863373 3.2090701541062057 4.54093531446544
Ga 3.9450751478662816 4.962896963611053 6.96169887597003
Ga 7.586934474694626 3.9767765485957645 10.60646226761865
Ga 8.821997598680056 5.1905025265161955 3.4282907451972564
Ga 3.3476502564590813 2.168198448938787 7.05330209176635
Ga 2.3226942100323265 10.82341779891098 3.7432680646502066
Ga 2.90216907601501 7.98717080819454 2.7056440934508106
Ga 7.068556507003336 8.123163790741701 8.267179284700497
Ga 6.531014242624969 5.996048274220425 6.35394790193646
Ga 9.469665440469706 1.5599483966501315 2.5935418906304597
Ga 12.128279854503495 3.5366219618567136 6.865989912777439
Ga 3.093703271334762 1.7614241565982387 9.785148014050648
Ga 9.915373659162677 3.6295303376430517 9.07912096255599
Ga 5.842410463578825 2.8845400896737448 6.210102401064272
Ga 3.1404792017272003 6.272661044744196 9.30773558803112
Ga 11.412919291290553 5.7633023431158055 8.002135535755192
Ga 9.468741530875322 5.212071742294586 6.139865993795154
Ga 10.783984528905826 3.4976626125727512 4.479576307727305
Ga 8.346594977912698 7.528811546612171 4.59278462181246
Ga 9.738870862360287 12.252669429434116 6.4443760986455905
Ga 5.739702193297965 7.197165370691894 3.9940301791667387
Ga 11.169719810001927 10.270661735775194 10.56282371527253
Ga 10.796888069624522 10.112759513896894 7.836480760905192
Ga 8.952817868707214 8.832371163082309 10.016914447284256
Ga 4.120886440695464 5.651587427783073 2.412821267684125
Ga 8.031272636781638 2.574201633821515 4.686743900380417
Ga 1.7423074722606564 4.14073562099324 2.9571106806560916
Ga 11.545638311955376 7.85823922537317 9.473266164479055
Ga 5.627829813016344 10.785776279364269 8.498420802330559
Ga 4.553816297068834 8.470604421097352 9.179075987028066
Ga 2.997122853399322 11.162631772544586 8.930387900115225
Ga 1.1564022120784263 10.873658680964192 6.653206268015176
Ga 7.343331609179941 3.116331893035456 2.058368965283122
Ga 6.590132997192432 9.573601687605729 5.937454223451288
Ga 1.7881434366732392 8.533926615866573 5.248939805740921
Ga 9.707363589843247 7.7431830211908 7.165355686324216
Ga 3.8817387210701018 10.450143321359977 6.372947475259107
