51
Energy = -134.70380832 eV
Ga 3.0659655548909375 4.342751729124364 9.334605757618158
Ga 5.8829717095524305 5.089850920825466 10.473487850304103
Ga 2.343582180161996 1.6133814041193246 10.042824094212394
Ga 1.2775338617416738 6.021282086935748 0.8475955260774583
Ga 7.575866324342172 2.9751744962986333 0.953470064969503
Ga 5.1724321670346525 2.315888997427556 10.224681733915238
Ga 3.804416234032445 6.87992164901553 0.3077573143029431
Ga 6.704983734106247 0.2755131791958029 1.6354038069931525
Ga 0.537938005977479 3.4660668406558655 0.36056212943892535
Ga 8.254470316935867 5.316014064567288 1.926435288800726
Ga 1.5250039462321148 4.474107182973951 3.3983062351321376
Ga 3.4062379908531093 3.9542756757243875 1.4491705119145788
Ga 4.1006495244407635 10.230778728956624 0.7220054757512209
Ga 1.9050023844199258 8.458460873819483 1.82442194922422
Ga 5.720228739689163 4.577709499199164 2.8365900187999964
Ga 4.860917986361496 1.9597740403314625 2.622768383133035
Ga 0.30722806440132905 7.063576165655489 3.478769089961006
Ga 0.19088310309848622 0.6661136494744746 1.1892615912094258
Ga 6.240421047982918 7.166440824460973 2.0441676427084583
Ga 3.5200291124175593 6.35688459987037 3.0923835778618276
Ga 9.624159230460576 2.6390878145855705 3.0001999429169293
Ga 2.1490913895967894 1.9045950351668806 2.6636938325491175
Ga 9.486833646457013 5.133048798501282 2.1980273579161644
Ga 4.59783155431644 9.39593034421114 3.4841805671432664
Ga 4.3466048878484695 9.155578754491668 2.436189226942588
Ga 7.966572967286648 2.0895897994232144 3.4763206841228738
Ga 3.5373199274185234 1.1388863350178768 4.926595018757959
Ga 0.10397286525515562 0.3878426375645446 4.011196600822544
Ga 6.5294455651456245 0.27860568889506804 4.8764456204604585
Ga 1.954407551505045 9.52881218263707 2.500832841575339
Ga 6.442281755130502 9.14524877809754 4.115048317543474
Ga 6.001840514313659 6.490302676802993 5.190690724720703
Ga 8.000646595742978 4.570261211000424 4.726743498813996
Ga 1.430981236482586 2.6335379886130776 5.399193460658616
Ga 9.201664073286155 2.1720336240537423 5.847397857639922
Ga 2.178277867058693 9.155578754491671 5.224860635061882
Ga 3.8233000681870615 8.166551343194271 5.159702951354582
Ga 3.461196300383704 4.768983337540503 5.315404384156262
Ga 9.821345858129046 4.872342873095866 5.199557085657016
Ga 5.41698173878558 3.1044740091719136 4.973439285210503
Ga 7.769313238832896 2.342343272268158 6.339706283174192
Ga 8.47497525136255 7.221362428284122 3.968334385743158
Ga 4.647517976544783 9.419498751359683 6.355810915679922
Ga 0.1268803969268935 10.444962216475085 6.650425349095742
Ga 3.828266812607702 6.460839780024423 7.437293308709935
Ga 6.169585980054763 4.588634361075671 7.226617086444199
Ga 1.2022964926868633 4.626024197044421 7.3447363324456045
Ga 2.3656637482698 1.3659007821221116 7.629096647564925
Ga 1.5331918439856778 6.8651268239744665 5.785586589930371
Ga 3.6437375490096073 3.7207454643870523 8.005156397366806
Ga 5.3051059619937755 1.5344417402645016 7.304901601229715
