54
Energy = -142.79363218 eV
Ga 2.0799680844021085 3.6690928704641794 7.507963455219035
Ga 2.8700372165563905 0.8642738245394341 3.103883652923908
Ga 1.73855375842591 5.179680294047067 9.831864090664421
Ga 2.3462471781368133 2.1246050950935507 5.346120380386102
Ga 4.55694600271334 2.038888894178288 6.974473118844846
Ga 4.299071853407784 11.519443154468666 5.296625974701949
Ga 2.112419865749535 5.2151650429300265 4.962433257217232
Ga 4.387556321582964 3.827351735697169 8.935514792704538
Ga 1.5164811671766942 3.4966978281915146 3.0944007977923014
Ga 4.331114927903642 5.872800579797755 10.774698366348446
Ga 1.373498561032884 6.490746830534447 7.3645081736789795
Ga 4.239082944448009 0.7835559300727378 0.34562305925081044
Ga 6.812867746478165 0.5164349024558864 6.675979525178051
Ga 7.1475378148748465 2.311160521313484 8.600467508573356
Ga 4.408024801035414 4.734267493344288 6.179344589498056
Ga 0.6684356672884849 6.225346356252626 2.560511081029624
Ga 1.7683847214939277 2.034069451122232 0.8302689296506939
Ga 6.712625607666488 4.194829587019262 10.420684475775767
Ga 3.985099338311371 3.353361847591696 1.6329172550331328
Ga 1.602206975923816 8.741954895314777 2.2993559554073126
Ga 3.865921706451476 6.751916615506258 8.279394715265317
Ga 6.728468949718023 6.368286614605927 12.088325671808377
Ga 1.359637826974128 4.6857948543591315 0.5090616836598372
Ga 4.9969804323119575 2.4848422060653697 4.216604582570612
Ga 1.034924997663239 7.694068872209346 4.9601336425328935
Ga 5.5593124247638865 0.05149400976126529 2.732801019428338
Ga 4.4961077154973035 5.126417256788385 3.567980095847499
Ga 7.6017182717675595 1.102533412151485 4.1890944962520305
Ga 3.5815164723981687 7.6148967297948715 3.9438121186513113
Ga 6.827668923143004 3.4291065288600073 5.926587482987828
Ga 3.399169294277173 6.676792794758933 1.26449142032967
Ga 3.2965139244392896 8.538972183758581 6.444096091192414
Ga 6.388467596698373 5.583671321161626 7.822160733898611
Ga 6.584309117798036 2.463420177554962 1.8055366568532043
Ga 2.424225340794059 10.299128565804834 4.581295907166825
Ga 9.355153846491644 2.2977649723973563 6.4548904219391074
Ga 5.9959881248451445 7.803899022569217 9.752968132975264
Ga 5.795460943500971 5.275806836198456 0.9863455795230665
Ga 8.958712331005989 4.3938339986181045 8.178643516704183
Ga 5.9343516841600215 7.092932300170557 5.4281954660594085
Ga 7.04475773288263 5.503789352786334 3.437296600150691
Ga 8.33349625989299 6.416470735014425 9.793676925310574
Ga 4.0459561515490625 9.8712623850182 2.104293623114276
Ga 5.651906368522279 9.095872533823696 7.516966499821052
Ga 5.845547949445991 7.881998715149568 2.3142307409138065
Ga 8.774278614421608 3.46418448316804 3.89943466836929
Ga 5.346072653335936 9.793842483465573 4.585260623147726
Ga 8.70640812541831 5.651831575611059 5.749043677102384
Ga 8.133048879164589 7.775370386074454 7.537770652546549
Ga 8.50450133053321 4.248666339379156 1.2466949573361406
Ga 8.090762831458713 6.999566252549527 1.0535024714248256
Ga 8.16668146366329 7.99032885696636 3.938860922153443
Ga 7.80430560998716 9.93471716557378 5.879017883377497
Ga 9.911830669715203 5.966253745211417 3.127656718954709
