53
Energy = -139.33670216 eV
Ga 1.788356202429662 9.222926413775228 3.85798101754909
Ga 3.9734241516595845 4.90334837829195 7.4951805821773165
Ga 8.368692976046576 0.8737042602056929 1.8494132929327518
Ga 5.911199477164266 8.790613212381276 6.49222021070111
Ga 3.534728228111358 5.818157108981556 10.29646935586112
Ga 10.074785915914054 5.228169362210558 6.55887740829443
Ga 3.8005216838733062 2.7872915334971142 5.808167347525532
Ga 5.796883458861766 1.0486364134551889 6.4162030696697885
Ga 8.5219367070838 1.3352038125001473 6.097155057278235
Ga 0.42936872590668856 7.963414650118181 1.7601379846376024
Ga 4.472653944985467 0.7397311506717412 4.009895749934602
Ga 8.404503420405545 4.9193001422952385 8.62549294259873
Ga 5.757255890109008 4.151113552328573 9.760790347802484
Ga 1.73351061383113 1.7188516227185113 4.301307106322718
Ga 9.667441496318652 2.580967361102797 3.8395819153710757
Ga 3.776884715303483 7.730622203157752 8.335825221892778
Ga 2.922283248406069 7.744252074742692 5.8442224419170525
Ga 2.184547390452707 4.969086919202032 5.29916785038615
Ga 8.290103026313384 6.561920017809582 1.618748713007992
Ga 6.313018882864347 8.648461018410682 1.41491830436645
Ga 4.677657019453253 3.8106999019674013 3.3981518988790196
Ga 1.5764899246484945 5.884337239468813 8.051346711810758
Ga 5.328249447739923 6.101256924505708 5.2047515078690605
Ga 5.748685993896426 10.352559277921994 1.7993422691756005
Ga 10.03166674106448 2.5763557925802645 8.16644208645364
Ga 0.24298200187403407 6.86053267154921 4.412980751333998
Ga 6.16420431922475 6.462561215640765 8.330475864585809
Ga 4.426409293781951 2.126142528544576 8.416640708610325
Ga 4.003326264425313 4.0604583576132445 0.674962748937967
Ga 10.267951066343143 5.302302043565826 2.119190431063092
Ga 4.52887845086253 6.703066911187598 10.29646935586112
Ga 2.0306744345436876 5.904190555050762 0.6048912826011724
Ga 2.3027453089474648 3.389470134909452 9.491080053492784
Ga 7.294510998867115 2.245436285207637 8.463533878210105
Ga 6.862845698934462 2.5165740321699177 4.006333879414079
Ga 3.2849487544534384 1.5238516858039026 1.6151674212369154
Ga 6.49346592651394 4.974327815478574 0.24556671304908265
Ga 7.11191071604163 10.478035010934091 4.362095935165036
Ga 2.69231805890237 6.461179458901417 3.2201690850945237
Ga 7.916101459798055 6.675316323706213 6.219921477926879
Ga 8.539203926842417 3.6601824577679274 1.4376135127028737
Ga 1.9487257921597534 3.875149631519233 2.5266947384371985
Ga 6.412593394888913 4.008438444134198 6.53796301785865
Ga 6.01093600134647 2.3659943372444614 1.282013479826436
Ga 4.827197215532571 8.57011587795536 3.9682024311005692
Ga 9.230931658439482 4.184544839365144 6.064016903246912
Ga 5.401603392284632 6.1924348771964866 2.440799132203548
Ga 0.2839637417216178 8.085071860316017 6.964195456245814
Ga 7.694186759933374 8.127478493089702 3.970768500263441
Ga 1.2270039538400201 2.9988655192782807 6.936628046233842
Ga 7.912047809399772 5.032700665577906 3.8473962009735114
Ga 10.486216940641297 3.733945229540536 4.38980244862001
Ga 3.462189471456774 8.4379942725101 1.542397816560136
