50
Energy = -131.47073882 eV
Ga 3.095460039622516 3.703959310042522 10.905506280440791
Ga 3.8309645391795653 0.9592430085155397 11.557846867790031
Ga 5.799520557714103 2.9851915298549216 11.59507173639436
Ga 4.420431963660548 4.958994400542628 0.8180917013109642
Ga 7.1689712564868415 5.369740002687294 0.26712361895695397
Ga 11.565311129484082 2.0882214648703803 1.2001302048032432
Ga 1.6407411339498368 0.7601749810142341 0.8147387086407706
Ga 2.3612493253419498 6.374604659210014 12.05321662601567
Ga 3.788506288586354 2.2424571739365367 1.6664479108191173
Ga 1.3482207283898764 3.940493361293545 0.737261974388206
Ga 8.44179052338518 2.186967290679244 0.2521165072838485
Ga 6.258377246711994 0.533179878421626 0.9209155567025793
Ga 5.79026929713106 7.347192968471297 1.784003891825571
Ga 0.7684772604024857 6.574157255737913 2.0435112252363905
Ga 10.715786713707072 2.1693882742660593 3.8894794779140773
Ga 6.304872920533583 3.3193540008177846 1.9941784122648132
Ga 8.03212990541257 5.340396584049183 2.970674152890287
Ga 1.3568505689636592 2.750402482096211 3.291460551914686
Ga 3.7980884186130655 11.425582734994169 2.0045615348312844
Ga 2.508152853555384 8.73326992606764 1.6989693333186315
Ga 11.540449090999436 4.540158267567676 2.623823839223539
Ga 0.4620174864983316 0.1730001134357664 3.256448986359924
Ga 3.47894384111644 6.302989260477884 2.858142341306619
Ga 5.559006219527101 0.7230415903127148 3.534066703431023
Ga 8.254617627640531 1.735479416563058 3.007530481121771
Ga 6.614833636980142 3.6608018277061762 4.536563776427628
Ga 0.6945113755806478 1.300479476812319 5.709820608086223
Ga 1.6454096871786625 5.105885561768072 4.340327929102695
Ga 9.401948816625618 4.5205084373359625 4.5774728815861865
Ga 5.7950578824331975 6.40393838715527 4.468191154836604
Ga 9.401948816625618 3.3301442105564947 5.136840914047218
Ga 4.364555832499077 8.76518630032215 3.8969709097501615
Ga 3.973772033153764 3.8367443703233493 3.7600723705428907
Ga 11.387937967323765 6.643587112286025 4.550382579798641
Ga 1.6605878261632898 7.8884742905322645 4.383185185066956
Ga 8.047935790170085 5.799221463809425 5.855968149605274
Ga 11.916808261827056 3.8677334189666204 5.808659563559152
Ga 3.5289849504476636 6.890278038496797 6.131937366284529
Ga 2.9749344973800915 0.6331464428968251 4.354501560245923
Ga 2.66744669118545 4.091430852584998 6.662771613784314
Ga 4.811007504497857 2.413481140495552 5.881226298973449
Ga 7.2849632245035165 3.323140457388436 7.123903238708769
Ga 7.408577667551655 0.9884975258907592 5.5616033229220605
Ga 2.902435261765146 1.3438506574393498 7.3909905346551525
Ga 0.8678863342626895 6.262317958936845 6.856176725513512
Ga 5.419809675035407 5.338745132565682 7.108780687098383
Ga 4.913339382280487 11.737374376815351 6.001665521897526
Ga 0.6614502347664714 2.7050260118915994 8.195391844279897
Ga 4.712678858040034 3.305279141135954 8.69790976228804
Ga 6.065501165484595 0.9375214350476226 8.135349013485769
