53
Energy = -139.68804006 eV
Ga 1.0664404260880005 5.320230687618036 0.6703340472190263
Ga 3.6788156985694536 5.200924171280824 1.4164057969438903
Ga 4.240128974123831 11.596240736807431 5.901978254808621
Ga 3.735839510928353 6.783187801332794 4.480611331938953
Ga 2.841842087763667 1.1886800162842783 3.949207405285141
Ga 5.873422751040052 10.439169410417739 3.754633338392648
Ga 4.629620604039135 8.376531625926816 2.2147986801967816
Ga 1.8427832548361243 1.0929723482738967 7.012010586249122
Ga 4.7254976470953745 5.487917256854527 9.582482015761219
Ga 5.765813421776406 3.6919097105737384 7.651325173207303
Ga 3.166533476723712 7.579040653367416 11.779776631197787
Ga 0.7880537631595657 2.8891387525749472 4.93250761933935
Ga 5.822863767263195 5.354064327098922 2.9400175778464517
Ga 6.828020139003464 8.076317348538137 7.726883733385113
Ga 4.493874014003178 1.0887936365287965 8.316181943304885
Ga 4.323165610270578 8.250568447850906 8.93785455958242
Ga 6.004738423659514 3.7584020971478806 0.1792741685772019
Ga 5.686142954789346 1.10084799113737 3.880859121021592
Ga 8.570611426668114 1.9287757901904026 4.48759400787459
Ga 4.611423753445229 6.159938103188852 6.921896723249624
Ga 3.961132467855889 2.669818593142854 6.012637807136016
Ga 2.941320623998979 9.51959655089383 4.139853596179047
Ga 7.365003346002555 5.8023681846159105 8.863724813164799
Ga 6.825745400730118 6.329288995316325 5.3388473772730825
Ga 1.9797043193344082 5.464847231423737 6.035971817061853
Ga 1.969184726449864 7.423311671728657 2.366258715176338
Ga 6.701259051298233 1.1465722734099202 6.436541995137097
Ga 9.039897322800698 4.556804713422089 3.8962711773477468
Ga 0.7201650220292584 5.283185524028565 3.60822114327146
Ga 6.25473803165568 3.689110343339265 4.939838888518842
Ga 3.4418930863795554 4.1376839311142275 3.9347119249029268
Ga 8.141504638202852 3.3673809808018644 9.112777288159549
Ga 7.141933271880497 0.8868548416104839 9.207687050296139
Ga 9.29125330424878 6.967598405762681 6.825756019547689
Ga 8.462253287830336 4.296463768174237 6.548183718822392
Ga 6.011910987235866 6.966605493085292 0.3575991791161842
Ga 3.0609146789139303 3.4072300114214817 8.59120920601391
Ga 9.475928031987221 1.624819086100356 7.1305568861122275
Ga 5.304519427316397 2.825504109363205 10.443453895434507
Ga 4.301993828204786 2.2223945778955065 1.7953191228915715
Ga 2.071763237944971 6.129079357332147 8.700800132497639
Ga 0.6834085503634164 7.785609950637817 4.832930920479862
Ga 7.781503773603906 9.071685070471062 5.269971166209465
Ga 4.9914160252189435 8.88828085042346 5.934726462609897
Ga 0.5489948712098079 3.804880820774098 7.6798392243971465
Ga 2.517129880110342 8.262715852920195 6.8793731654275305
Ga 8.121674048571235 5.456931191241088 1.3754552168236027
Ga 7.224328699228698 2.8136643978369635 2.3654319991293824
Ga 9.550356095260081 7.172035989839667 4.039804139322675
Ga 7.189109269755673 7.808858184819778 2.8087542309305826
Ga 4.541033630762366 5.410896443619843 10.443453895434507
Ga 2.908499809841155 3.0838635237717975 11.455592285379725
Ga 1.529535423326618 2.9613628395190363 2.201397093363182
