52
Energy = -136.88720711 eV
Ga 2.8851027306098382 2.225456346305134 10.788402446241285
Ga 4.90053555352401 4.609924978027693 9.97953647369939
Ga 6.598419240511558 5.819586045661045 0.8368925698764944
Ga 5.54709966661642 1.6187337922224665 10.834338209143507
Ga 2.1835154841145186 4.931722407393407 0.011010266854539003
Ga 7.688603678500348 3.4044445212502024 0.04580655495911413
Ga 3.973323421121652 6.98970406247165 0.685796869392076
Ga 3.407204762320343 10.378203502817406 0.35109262464470065
Ga 1.258047254341776 7.32992133434153 1.0968822483109968
Ga 0.14067347823518306 2.939103856684615 0.05319736347584195
Ga 4.670117717810405 3.826855436172331 1.527764154861058
Ga 5.027503340744979 5.936250745388431 3.1946615198245656
Ga 5.577062079452268 10.115621110385854 2.231951902214833
Ga 9.300998413372168 5.357445134075899 1.7540346836680782
Ga 10.82504714030776 5.148194208809153 2.361906095078678
Ga 5.8824778606753485 8.550495204688017 2.119237868666482
Ga 7.024142167799899 4.152011111053738 3.1309051861336226
Ga 2.424292858450732 5.524913815039263 2.884345891046268
Ga 9.274668132691774 2.665137041117288 2.896862110003312
Ga 2.88379745091363 8.19803908886053 3.177803427867434
Ga 2.7562649301217164 10.02410404306617 3.1937957761378497
Ga 1.1582621258925256 0.6513002779675021 1.376559162654044
Ga 9.968981841921735 2.2417043364919333 2.488765309515991
Ga 4.090901857338611 1.3711633744531595 2.2841323053567018
Ga 1.9111672462955978 3.07897640454011 2.3534712149588417
Ga 6.842584746512485 1.5038568576523774 2.266933955452452
Ga 0.5394131645621696 3.0340302047722005 4.599482405902618
Ga 9.300998413372168 4.46501365466456 4.690900925269266
Ga 5.403268875529131 0.31100084237752373 4.6983006117100645
Ga 2.821242539938324 1.6132041518295173 4.578626561716774
Ga 9.589296704321159 1.6292980594957647 5.867653035897438
Ga 0.434527941610178 0.13894726208403677 4.293453254905896
Ga 5.274212306358139 8.15856125268201 4.978687154571799
Ga 3.5296694049139057 5.894721663786002 5.35865260768125
Ga 7.490671190642784 2.0159034029325453 4.908137319014995
Ga 4.93247655285578 3.285978011327709 4.980012076299942
Ga 0.7162080418086397 5.999766328747541 5.093651650408191
Ga 3.115225204321796 10.389448815052303 6.101027452787609
Ga 7.713218335037014 6.85170542682337 3.5586738194279963
Ga 9.04299482973265 4.693118405919188 5.188335866795239
Ga 6.406117681979656 5.571718405634694 5.674899675568689
Ga 2.5147057583586534 3.748201835836413 6.196383346914774
Ga 10.97748479551987 4.1052717732050255 7.206118114506469
Ga 2.4157103703344514 8.36264284895944 6.0026499192175296
Ga 1.116638065775671 1.3249098610267207 7.031885878833204
Ga 4.609504397039869 7.1883807132643085 7.554347598187939
Ga 6.768305902763003 3.1314873770846865 7.235752792885264
Ga 1.9791220235416174 6.0690139991879315 7.861729854674226
Ga 4.147195313499615 1.60136052973505 7.361748879654702
Ga 6.934471411030143 5.707835602723466 8.34022967839624
Ga 4.445251517820906 4.340071414483631 8.163084816387876
Ga 2.081460162891941 3.208278415177493 8.914781018090407
