51
Energy = -133.87627844 eV
Ga 2.5401250917671963 3.5472176576827708 0.47571938484327964
Ga 3.603211997704059 5.845124765095812 10.754522253743492
Ga 5.143189754647323 2.985155299700767 0.12979539595291217
Ga 1.9640725816377083 6.384607235128136 1.47381331196206
Ga 1.862989665795396 3.919393942190759 3.03950459907175
Ga 4.087547040299794 2.119638206002797 2.548808595554557
Ga 4.520628991729043 7.790219692470242 1.1515896216905852
Ga 4.478150318520367 5.0816093196155725 2.0739290676191695
Ga 0.1359977741148123 5.9686561209062745 3.862965822634507
Ga 6.2812446657224825 5.688986736846823 11.291184283265698
Ga 2.2570817905299325 7.96973013736364 3.617719882282002
Ga 6.43884812518876 0.9662041070432551 1.6357103023993949
Ga 3.390467085778086 2.008441943737655 5.056557948852652
Ga 6.86407401533846 0.7855591802544221 4.30835971501579
Ga 3.9704457747012296 4.789855269666761 4.692068297881353
Ga 7.890165912872118 3.4331607983649812 0.2527100621762466
Ga 0.47930473672861196 8.450873767282086 5.667603010877923
Ga 1.3028232696662094 3.712601533691198 5.7873140893959
Ga 4.953067550719505 7.213526439623822 3.934416826089951
Ga 4.045247396607308 9.82432266076326 2.872106569685461
Ga 6.541701468297031 3.5502552076137803 2.8086640941486434
Ga 6.949862781592034 8.935949319365616 2.2812318637402464
Ga 11.047923857740564 5.849399144803545 6.755824284099478
Ga 7.2523833390158154 6.107119520943264 2.31877814429862
Ga 2.266934469961318 6.340412732694585 5.770938722138465
Ga 8.879364381117737 2.109909288268951 2.3752808296991756
Ga 3.5544304618750098 8.937938506388823 6.081464393309026
Ga 6.108808193596413 5.737200018391967 6.005092245430613
Ga 1.7880856789435673 7.96861658531369 8.04806775829908
Ga 5.846292498046204 9.747567541054988 4.905200040712067
Ga 7.841769559593645 7.565626317903935 4.625145590836439
Ga 1.891341848893882 5.042963152090409 8.313315333310483
Ga 5.985274317849447 3.183664330037489 5.48177352941729
Ga 3.630874788602789 3.0489672568825683 7.510863731088495
Ga 4.2332531711140176 6.5030999921049375 7.543616702444369
Ga 8.289854214573136 4.658007279114099 4.568232617818745
Ga 5.145266054136406 0.6198032351498627 6.551946303087409
Ga 4.411369119629045 9.025370528900448 8.999436339262571
Ga 9.561809564028245 2.193524516386467 4.9197319778032345
Ga 6.371986636682152 8.293366701627827 7.078933299247274
Ga 8.667070196118337 6.420868640362494 6.878208279011467
Ga 3.3241635767023947 6.698213782686733 10.205008607847963
Ga 4.70995817929524 4.5272229820426 9.475194746911779
Ga 7.040030499749898 4.153456026315682 7.93558202779151
Ga 7.7591919152999465 1.5781588926081507 6.853924737224156
Ga 6.466002840425401 6.77840369540097 9.47475779667267
Ga 5.7197068222707514 1.8198554941603706 9.036029771593522
Ga 9.793155739139994 3.834948367182241 7.128515418569941
Ga 9.116553246699148 5.468278226076394 9.431633253724199
Ga 6.935674896907918 3.8502325805609274 10.754522253743492
Ga 8.70657913206225 2.3121298469960037 9.258628661955367
