52
Energy = -137.38489672 eV
Ga 10.174077465363679 6.104553741468418 0.0178903573473018
Ga 3.9509976139909604 4.038871077849904 10.012407669328908
Ga 2.8252978924837135 1.4722311651229274 0.3030309534366635
Ga 6.503670526702675 4.541483595185745 0.4261410234595122
Ga 2.3244243882880666 6.34678909144229 9.479234250855384
Ga 4.493753058634192 9.720575121276811 0.24081014663000133
Ga 4.659180335491924 6.506567407931163 0.5417382714899406
Ga 1.308907706007812 3.6821631798263548 0.014472423466080691
Ga 2.3689243065939816 5.509375153825503 1.7670831825980098
Ga 3.6356011650480236 3.1482123332566556 2.2653577133682963
Ga 4.020858141609636 8.96938022915525 1.6697098104313184
Ga 2.8571595531813134 10.230489580863598 2.498128928649172
Ga 6.377364793079695 2.7341030300582583 2.9008418323740672
Ga 9.093075133774718 2.1422078110594844 2.83587960753613
Ga 5.529117220232262 1.8923307896146768 0.39739591906469823
Ga 1.4075202901856916 8.058933229697654 1.1190520142408824
Ga 8.285039672027743 4.816369718814454 2.486659739557125
Ga 8.442422196542143 2.6729945714341388 0.20276457138513193
Ga 5.137435355395014 5.278957793372546 3.026950975652354
Ga 0.44976648412666353 1.1890093731971738 1.7599348712238418
Ga 10.272046854932558 3.805382471096579 2.165820960238192
Ga 5.692448961125416 0.0023206785599393393 2.6539139130443274
Ga 2.2056029845090035 1.8223275632514384 4.026597424529992
Ga 6.893507542729882 7.266183764232842 2.151712852815152
Ga 10.42506385561973 6.462200506857358 2.832061509234614
Ga 2.2927683242945065 7.755267229930255 3.7624825860392073
Ga 1.5399062987638543 4.342079256668063 4.070469208620333
Ga 7.700272847739057 0.6156310662040017 4.503788240015865
Ga 9.957710036444505 2.058520921866551 4.314957792099056
Ga 0.46205059162806045 9.934334617495596 4.264799437249538
Ga 9.093075133774718 4.754757827007047 4.763112020970749
Ga 5.079092725035431 7.903930887508299 4.059763851418486
Ga 4.720726734208633 1.461840233675889 4.754857351294961
Ga 8.327979702412705 3.426197639631481 5.117463370556995
Ga 3.506204299170838 5.697739514550719 5.225878468719683
Ga 7.535777792308786 6.261425194494383 4.821641779561488
Ga 3.1099517365453266 9.705226596437388 5.273849962589691
Ga 5.542154263744838 4.025046631631382 5.397936291951097
Ga 0.6483523382275937 6.439689308185526 5.6205719829515886
Ga 3.1769545589774077 3.2482043092957076 6.3215872030556755
Ga 3.035256559510164 7.973839356674349 6.6038565970098455
Ga 5.774041001863361 9.713136185892475 6.076179245252393
Ga 1.2871953697800693 1.0419943909903555 6.669626560349783
Ga 0.34778874328296755 3.6809543005785157 6.7010319844154305
Ga 6.644428816323031 1.8145020466578017 6.775373019047215
Ga 5.738981161530854 7.205599564505132 6.671059114389146
Ga 7.307937289434092 4.664515723170516 7.458742209639498
Ga 4.022503832416248 0.7873359961378277 7.499718792977734
Ga 1.7772040575857952 5.703498549930182 7.999943096709908
Ga 4.414642058050725 5.344170597945083 8.002121062693826
Ga 2.1529808781211246 2.893382210016125 8.861298779576789
Ga 5.259927637126277 2.922295150444919 8.793116409884856
