52
Energy = -137.52884602 eV
Ga 6.456144976374791 8.192773550387193 7.97855244531803
Ga 8.632058486194058 7.699909466818143 6.151106525141191
Ga 5.065277782810549 10.521699232505757 8.141703693499284
Ga 5.406522160019397 9.094587468013913 10.43932651574377
Ga 5.7466050053927304 10.34334559963422 3.028007374461347
Ga 4.530644205853275 11.403998460207019 5.63978532568649
Ga 9.72950285825756 5.047441423390699 6.1423415989115995
Ga 9.501855767593806 6.617983459958128 3.7279029915846107
Ga 6.288063810824511 9.209019217202952 5.514033475893428
Ga 7.323971492083054 8.049080517278693 3.2222286206101534
Ga 7.703663660831472 5.826081394580668 7.938426898322651
Ga 7.377731752967762 5.409312112700769 2.32662671251101
Ga 9.50675243274989 3.910660860770432 3.484876081915945
Ga 4.991802842126728 6.2877704197429924 6.560182530437228
Ga 9.972564031786417 2.0191630857024685 5.690545210095145
Ga 7.007900858167836 5.69779713973881 5.044072869873893
Ga 5.417348083850774 6.970008313247241 1.1720711060720719
Ga 3.602097770489689 8.83481868408382 1.6659723961727808
Ga 3.6426021450503585 7.689115812105797 8.965755437979166
Ga 5.954001171442016 6.473555767559786 10.218867065733157
Ga 3.650230996429571 8.666643104836032 6.391811577519019
Ga 3.0179466152014665 9.918654237722444 4.0342734419403685
Ga 8.079016166877839 3.249583589679139 7.332258446899942
Ga 8.043202871802734 2.90168277906931 1.3049365823739025
Ga 4.6005294464222155 7.362727284718831 3.994202380111454
Ga 6.879784896314987 3.2273377184120102 4.423498277575189
Ga 1.5269241679528864 7.668983654091454 4.703932284479884
Ga 6.591998666943171 1.276742403763923 8.903505371084071
Ga 5.430159027289743 3.552650514664908 6.969727233594708
Ga 2.4320271791534056 6.499561822312073 2.336265146077807
Ga 6.51188144041836 3.932670112471269 9.607735205748792
Ga 8.33006280813092 1.0847370098533324 3.4867409024951384
Ga 5.961225713344948 4.269475712990823 0.2001303946189273
Ga 4.720193797731075 4.592463155111942 2.834165746156491
Ga 3.826249808596508 4.939086172646563 8.77993732196041
Ga 4.099957539775599 2.749073664033795 4.730542251477954
Ga 2.026183852601145 6.57004535620731 7.231967283316806
Ga 2.929686937115117 5.129891591997361 4.894859881180134
Ga 3.287181813223683 5.299528135742284 0.012459452573343166
Ga 7.204795679492517 0.9794505201014764 6.17240350279044
Ga 4.569864684911236 0.9105481953511873 7.052956185525436
Ga 0.1562239639355003 5.444392738839195 3.7212761528881604
Ga 5.73755472576531 1.7222608028326858 2.2830624156471915
Ga 2.5086060566395014 2.961881122957202 7.252128034274836
Ga 0.5656055790945541 4.613768241549608 6.377011933508897
Ga 4.000354969443131 2.3016743039742416 9.473300121714232
Ga 1.8447976496449099 3.8177971234502044 2.2885518752348477
Ga 5.266057005868541 0.10296122421034426 4.3724173815283
Ga 3.739398561817295 2.7074369146841755 0.748670027069813
Ga 2.853333628759927 1.0932989634801167 2.7351277933934908
Ga 1.0361210959299 2.594521624758491 4.641358797838138
Ga 2.5167420670585483 0.3281142092089818 5.338613933618013
