53
Energy = -139.85338564 eV
Ga 3.451831817084097 0.5185582627774218 1.6579336710504997
Ga 2.173011045993751 2.7095345876985744 0.40590533853154287
Ga 0.6664301598350884 3.137917614003088 2.671349447657655
Ga 5.079014542123793 2.860042721962099 0.31309357625383344
Ga 4.599360247380513 0.21894322960256105 4.343703946671286
Ga 6.084589454410579 1.1510268402839037 2.267841458275954
Ga 1.9047301839004396 1.115926964646549 4.303709740863606
Ga 7.564308957025782 3.3489558907670993 1.6100817547600395
Ga 7.510736675854195 1.683449584089038 4.515541828297472
Ga 5.919718048174979 0.5643639978976065 6.714299500012112
Ga 3.7442226748963288 2.922592129208079 2.962889712816004
Ga 3.5056318207906805 5.294063226956289 10.833911415524424
Ga 0.48039887963772115 4.99210125596488 0.5683899065868351
Ga 3.2476411717974196 0.7660306256960706 6.824996531591259
Ga 10.261213198846406 4.891398298425719 4.35740688588793
Ga 6.198636883180107 5.3482832591630265 10.731271424276898
Ga 10.637435532662783 2.36989118754959 5.442013136406183
Ga 7.031577353481823 4.3574096320862 4.123673729437292
Ga 7.872528538559739 6.180406346870816 1.7851647890315239
Ga 5.224497371592542 4.9923211603331525 2.3718674956313386
Ga 7.138771059867713 3.7120840321326853 6.790796303953077
Ga 4.885609514696108 2.914742807605611 5.33864840966372
Ga 8.485969648535864 1.1763010422272207 7.221906791917503
Ga 2.1566126401110033 3.821232116102647 4.959156963610451
Ga 9.812996649972927 4.136219485848702 2.8969476341490705
Ga 1.9351641668606252 2.8928174859978495 7.605310087027039
Ga 9.652277931511692 3.379171156449694 5.483504260297378
Ga 4.99671058725988 7.533941128533515 1.3570318161937747
Ga 10.911142399411634 6.783801312872775 2.606132843567752
Ga 0.2785907043623675 4.915217926266221 6.982561482895136
Ga 4.754286550134497 2.8030615964504273 8.14382374713216
Ga 8.937726464196114 6.2503787802900455 4.4824400695907824
Ga 2.508268816112773 5.380048918661875 2.5665793816989333
Ga 6.992500235646137 8.091323455531978 3.4793403889082146
Ga 4.43033825042041 6.809686370895313 4.271901370873458
Ga 1.9461921921437486 7.455176595559603 0.5253183532945935
Ga 7.229167913731349 3.1064105528687707 9.551678863353958
Ga 9.653075769367057 3.435402100967935 8.247500308301301
Ga 2.9792863718375404 5.030249275694267 9.05379819643813
Ga 3.8492908108342396 5.214046239248294 6.383933008121314
Ga 6.537354387522258 6.324217601937115 5.950026958541587
Ga 1.6133868268080604 6.52130707588643 4.967757062499869
Ga 9.032879428012455 5.965007174467602 7.460661851123264
Ga 2.1759678978465375 8.5148049822284 2.965359589090719
Ga 4.622703819674464 9.595239608129392 3.3923362457702
Ga 8.787299917539695 8.498666315664627 6.037033186763043
Ga 5.877625777397728 9.069631822234848 5.784025795834427
Ga 1.8109936011499734 7.076174034891408 7.674523060739688
Ga 4.923867684496769 4.041394861931844 10.731271424276898
Ga 5.994988229112129 5.4811747332842655 8.639931468681306
Ga 2.8894360975751447 8.886785635443314 5.707437871836619
Ga 4.422825189377224 7.560750001750144 7.757094767161041
Ga 7.106485010810639 8.034469742550124 8.185280663068474
