54
Energy = -141.97674369 eV
Ga 8.994192625123443 5.837259263090593 1.3096025565322431
Ga 8.119803230382933 8.377307801262301 2.4424714280072926
Ga 6.409332161697746 6.344820501823562 1.6532878024619062
Ga 8.36016525734967 3.654358680066483 2.9109363528434637
Ga 3.8190442646868537 6.488665937259761 2.187147555864366
Ga 2.8439947894974242 8.491744035719183 4.1361013961478035
Ga 5.451999672520045 7.591136539663785 4.070955922511477
Ga 6.9641775113464455 10.452094593995817 3.5519360285684716
Ga 10.457940370040411 6.99643964243055 3.2049137644570176
Ga 5.630546393832917 4.357335142574469 3.607688648364487
Ga 4.704542420503117 10.191897008453523 4.952093409878008
Ga 1.2234400329766244 6.549531334763412 3.0396432135697324
Ga 10.123530920919066 4.599569224043236 5.145921108003553
Ga 7.494162918518242 3.633267012618489 5.579242261010277
Ga 7.907988792730891 6.212105462806549 4.24482994250396
Ga 1.0821019989751854 6.540130630752892 5.837476833197588
Ga 7.267648865154731 8.658549950513562 5.684846467473137
Ga 12.090242058225915 9.036765046299397 3.9148916026839333
Ga 3.2980377172347053 5.271286651600295 4.601595992540595
Ga 5.980028028936049 5.869258852757937 6.339742316342172
Ga 8.220164678809855 11.61225866505716 5.734129769248259
Ga 5.740602193593484 10.768393446995862 7.297062500762693
Ga 11.371617672714265 5.300205726722602 7.620763156951366
Ga 3.798739786317888 7.354579686570944 6.493923908343928
Ga 4.866196332464371 3.2361348186048287 6.037521332071063
Ga 11.319647706899332 7.26952950166513 5.832738678739536
Ga 11.563930866373173 10.020786819802153 6.4917691314579615
Ga 9.528971430275805 9.511072379579634 4.589712070315488
Ga 6.9566784109389905 8.345214129325292 8.183044238075615
Ga 7.6145024438448745 12.54252514088777 8.214043601081949
Ga 2.338788458581102 4.396874981248857 6.971758857616158
Ga 4.243341307500028 8.963380416040623 8.567831184041417
Ga 9.497365012437958 5.91230731023133 9.509736822192577
Ga 10.859171367991852 3.3907060100326305 9.627961678387736
Ga 9.057165171789494 10.190195739218442 7.986259458178612
Ga 3.5954823335633126 2.2442259191951974 8.174875640488615
Ga 1.9827612758798998 7.005906370896908 8.508903728470328
Ga 10.866215215215849 8.143830122873595 8.436408739457674
Ga 8.915314439659134 3.586334160719691 7.7941534386889195
Ga 6.928458079119703 5.817972723621504 8.955300814306417
Ga 4.193225426088483 5.272020400568674 8.634867314710366
Ga 8.734243215375876 6.518347335075178 6.903282758530002
Ga 3.4545426800061625 7.076447357142625 10.761391043574136
Ga 6.021929787233486 3.1748753509115306 8.8932505691581
Ga 4.309750809606065 9.651307758321778 11.252234081354729
Ga 6.634748987296295 10.61423864577146 10.025393606481437
Ga 11.278717614519518 7.350277065060479 11.000817544787694
Ga 7.990515402811913 3.797493155835012 10.657215288162929
Ga 5.300852414103105 4.956175299132626 11.152504385632206
Ga 8.183094180202323 6.522228116987384 11.99172792225346
Ga 6.083060986353784 7.689146523619438 10.64435636101225
Ga 8.865070561276976 8.72690055736433 10.278240323756725
Ga 10.35140852531187 4.787179032200044 12.021375285966382
Ga 7.299379543628612 9.285980368659937 12.528694511218903
