51
Energy = -134.59206448 eV
Ga 9.118961780819378 5.9618765239727685 2.715647056439878
Ga 9.342671661749478 6.1763319126687595 5.43986035072196
Ga 8.07311100374869 8.325243729326797 4.288676295242126
Ga 8.559704601011093 1.8623028590583492 5.823376955743009
Ga 7.9970020773058295 3.9591228886263443 4.228125624904716
Ga 7.43877065426915 1.4975113042968575 3.079140628855455
Ga 7.738928457084281 8.258831882078132 1.557117300489982
Ga 7.808118286524891 7.820085919002315 7.093925760135535
Ga 8.240527386330601 3.524857801636722 1.5328549785979244
Ga 6.428252998096541 5.7078488888786865 2.470697341162649
Ga 9.03924866033718 4.124000234543387 7.001382951041766
Ga 7.769312358387577 10.550215593683522 4.9408167997010635
Ga 7.422795912589046 2.614236244939467 8.739328404726333
Ga 5.482538941706514 8.214019555260728 3.348965574543155
Ga 5.294964706271188 2.139584860009637 1.461257059565361
Ga 4.918567630756888 7.115815056660896 0.49079569041984344
Ga 5.869923306758064 3.8616591982054547 6.657116965226294
Ga 5.289392265893507 3.2261911554292038 4.045705870513501
Ga 4.023158994649433 4.632799034834524 2.0971251786230507
Ga 7.313275075219378 5.6182656085779685 8.551925957705528
Ga 8.21749650606372 5.946240356330119 0.01443862916071513
Ga 5.257012103865448 0.19387852507830752 4.269240071741447
Ga 6.401125479526179 6.054354142129092 5.201301042721947
Ga 5.98866101756756 4.441527052327315 11.148183853936139
Ga 6.1326343948875754 1.099234693684279 6.649208518394009
Ga 2.848435940959203 4.458110515679597 4.529715420865126
Ga 5.5130256861912725 8.921572244682379 6.255763888403812
Ga 1.1102744405946572 4.325392121481741 2.2086888037104355
Ga 2.2821338484295257 6.043984233180788 0.44442019454578874
Ga 4.854054679509075 6.520159897623273 7.641747315610159
Ga 3.463465504301411 1.8965408833739048 5.698828710024895
Ga 4.312437617627785 1.7728455851873295 8.381240390859087
Ga 3.4228863481984493 9.697285256117848 4.541421595132985
Ga 2.5499160034473216 2.430346832373816 0.9125092163667786
Ga 3.1626875277946 1.0243006036847158 3.034610900283817
Ga 3.0040290437792208 7.4118965482125585 2.5854906367653223
Ga 5.1152999470841864 4.353419369858259 9.460646738633853
Ga 3.859872696292743 6.720112602267777 5.135484786678487
Ga 3.1201859409917936 4.088240530521705 7.436686177262341
Ga 3.5473733376757766 4.080620834774414 10.217422003101374
Ga 0.1510431332310782 5.429981605066588 4.445799092023656
Ga 2.9167100748337913 8.48434843615113 7.1968396182762735
Ga 0.3538540531829692 3.589423737749312 6.307761582965891
Ga 0.1483696546448687 7.174782242517587 2.224049923661642
Ga 1.5282631986676667 1.5351056838501078 7.708119388659011
Ga 0.9720723188358872 2.2553010485708933 3.945313757610579
Ga 1.378349149369933 7.885768169428715 4.791207243877911
Ga 2.697634417383236 3.0669352079776746 10.217422003101374
Ga 2.9084514372613035 6.183910295553431 9.603088061619355
Ga 1.4255183340925703 6.150769025709712 6.858593924629407
Ga 0.6972604761254368 4.299840282971721 8.844853657495364
