54
Energy = -142.90930639 eV
Ga 9.793308987761487 4.6291291438016815 6.808121635570232
Ga 8.068419818997896 6.622105265631369 5.438004446998553
Ga 8.05001050005041 6.197197201261746 11.116581997843262
Ga 2.032863033847894 7.189400442778684 4.908088182333425
Ga 9.101827099739115 8.555202856315596 10.094482364795628
Ga 9.704101958670064 4.412570194869142 9.508319607089284
Ga 6.518451265326842 8.610073402128352 7.075953961651838
Ga 6.952811517685275 4.132413655326713 9.664446363906627
Ga 5.169258325686157 10.443991815298588 8.743140710426799
Ga 11.114034362706278 6.771118726803833 5.6867332057335584
Ga 2.925610121249991 5.3473320139984555 9.505871531647111
Ga 4.642323106083848 3.431364233414403 8.076362594925504
Ga 3.7896656758863565 8.579100148981613 6.618896795225082
Ga 6.823324654345261 7.846186229410871 3.258954297671587
Ga 11.131200282834111 9.498819371970269 5.205753621567564
Ga 3.2970186199380658 5.132358023369739 3.6527934597928806
Ga 6.735807919558679 4.6307771591806555 3.893978992847161
Ga 3.9923549534440688 8.037373099548544 3.038167328707918
Ga 7.972047753879755 6.442415434964383 8.285948945118038
Ga 9.742326416025278 7.769881617337379 3.357722999418308
Ga 5.314682780176945 5.996368503131271 1.8031545859617182
Ga 5.212304410356408 6.612154749285508 5.213118760255713
Ga 3.6664921119921785 8.178088255099867 9.65980905025221
Ga 1.6611571342286828 7.13810209506347 7.845370816739245
Ga 8.686393366688117 2.572328693226828 5.39294968384845
Ga 9.26862135120283 8.6371534822044 7.209896316037876
Ga 10.904037913545618 6.742497841465273 8.400530422962735
Ga 7.909056875007734 10.769275616025121 9.115586939481657
Ga 3.126980103056774 5.2243282499056924 6.524668700084311
Ga 9.633365147650299 11.431077873600525 6.8449024416733355
Ga 2.4508948654647082 10.28250221954771 8.30032330080894
Ga 8.224944707053522 9.68147666766878 4.913186321225717
Ga 11.314421187080077 9.52427132765597 8.78035354245696
Ga 6.426745633052269 8.341824778840067 9.924502272492367
Ga 2.6718059426074374 10.063686103942352 4.441265328126597
Ga 8.288230722066643 5.930631848950151 1.9077893519394933
Ga 5.290017620984595 6.073634073072576 11.038854096485231
Ga 6.833788954244665 11.492096121040184 6.5752713542647525
Ga 8.827266410481768 2.2239468148738744 8.148141260147433
Ga 4.717132428195289 3.3587575601177226 5.282549128406057
Ga 9.834864762017427 4.816975401092101 4.018327973779357
Ga 5.458138057406879 9.732752818617477 4.713239250168766
Ga 4.02148148128189 11.64831052842097 6.3778367753156635
Ga 5.228136927082015 6.298333771471231 8.056545594314711
Ga 6.943390712336832 4.393271212918006 6.738772007715231
Ga 8.410971801632213 2.8350466463089945 2.6646972916078933
Ga 4.475775615893965 3.463812933415452 10.939450867342384
Ga 4.847475498938015 3.122207046947397 2.4575217765887705
Ga 6.407419096354473 1.366037731859433 3.9808919730359453
Ga 6.367697224344655 1.4935694343056976 9.517999601934552
Ga 6.370017509910471 1.5724800156011784 6.75861332748141
Ga 6.861068531940739 3.9798527304104185 0.6274359078015912
Ga 0.7028986035457048 9.238138114535365 6.379936213284939
Ga 10.858132557103676 6.577625508537526 11.192821663189138
