54
Energy = -142.59077644 eV
Ga 8.352823254301043 4.310613803371647 6.228198560305895
Ga 6.374575797284107 5.075777012874689 0.19706258814762218
Ga 6.003928878789632 6.204395739801571 6.107183788258664
Ga 0.26923560853835643 0.9931099675933939 5.239163528099949
Ga 2.4478821261785493 9.701503985931362 4.419643529208387
Ga 7.843133335716049 6.223402555924467 8.278173326032785
Ga 5.053388331856229 7.255294641902317 8.545632808469332
Ga 0.8100963380664361 3.0873798655846416 3.278712260090055
Ga 5.664488881344973 3.6900687305120483 5.734813788604146
Ga 6.7454552135762516 9.960946701808497 2.318319816159125
Ga 8.883909069070443 7.450470856446287 2.581474622475979
Ga 5.136062970994369 10.65331432831075 3.729031108689862
Ga 5.482979807990395 2.3701776879939596 3.5201364345726085
Ga 9.006251856506102 4.596388273953967 1.4083924641631258
Ga 3.5334809846185764 5.391916375187682 6.673123694904939
Ga 4.225303695382434 2.6797333919456237 7.873342321204571
Ga 4.136671154930108 6.1849877757240215 1.7122089422959348
Ga 8.3248241201626 2.8592296166514437 3.820227248500207
Ga 7.514396547362162 0.36898874211740823 2.8413155437907602
Ga 2.3160708215887813 10.19684481517066 4.8813568894768675
Ga 0.6307484988688496 0.42413802306612586 2.5458072223935266
Ga 7.203095652624697 2.817334983625333 8.156689008978322
Ga 10.641370366817046 3.4998350298979943 5.824932610449821
Ga 3.6692994212832866 6.882712195005826 4.32304195792843
Ga 7.030326383480845 8.748744342032651 6.959028336396336
Ga 3.5371236477699513 4.199244739240088 3.553188176948313
Ga 2.0955687426123246 2.1415690637940035 0.9465680661095601
Ga 2.314955297237969 0.5718954397563599 7.292577996760846
Ga 6.923905466912582 5.228123626017282 3.2015290063096753
Ga 2.9236046963561013 4.934519606389342 9.401317231748822
Ga 10.057109709699692 4.939404311745843 4.0732320350659
Ga 1.591839882613036 4.916547920707742 1.367179762875662
Ga 7.07819291572924 2.5828295082576713 1.2484846468608626
Ga 2.2752229306009752 3.0729332464378722 5.7805108437014106
Ga 4.835755579124338 0.9001623119236537 1.2389692518045305
Ga 1.5370005711120909 7.643069466027674 5.971573432281221
Ga 2.2112348284096255 7.529011692212179 8.720742135403423
Ga 7.230057838275337 1.2113258584905062 5.80449651502636
Ga 4.040921735150543 8.61409684292399 6.518653558378325
Ga 0.7596244411021194 5.3344413637682875 7.31610314774872
Ga 2.9997553288549277 1.3495640551544155 3.6854169196493314
Ga 4.593679115024901 0.7054563012635962 5.910556763278551
Ga 2.9042271795996677 10.233969093530666 1.9742325517344435
Ga 5.575681629523028 4.657312101033046 9.208057235920185
Ga 8.392347362784324 9.597505362368993 4.6055964603081945
Ga 1.4541100252820847 7.601700204240694 2.6173367532813043
Ga 8.627005562367096 6.9389665236622875 5.306713046216852
Ga 1.3258235892404848 2.851771919493526 8.4784300633284
Ga 5.434312496148627 10.19684481517066 4.824154888453306
Ga 4.152485749361815 8.917076323199286 2.3530718374564565
Ga 0.9400138040053451 5.470825709765123 4.435981927582928
Ga 6.236438068082018 7.669376158750366 3.9326637366315307
Ga 6.520566219312632 7.526440361729265 1.117743315170901
Ga 4.30808688628779 3.571893338995638 0.8149885639941143
