6
Energy = -12.30807568 eV
Ga 7.590808960813765 9.200488699895441 8.964390295991285
Ga 9.38958051595887 8.118311303542518 6.809464187231797
Ga 8.910416269055485 7.013086621996397 9.070861124754718
Ga 7.759174029994696 6.1884672787299015 6.410109420236784
Ga 5.953268522203301 7.270452476783838 8.566704231827588
Ga 6.4402969944171105 8.380573698052707 6.312748993486821
