6
Energy = -11.52412663 eV
Ga 9.20390972769085 7.87353159529656 7.278088275237388
Ga 8.548646164228659 9.683994302740363 8.859424918032433
Ga 8.07685852263041 12.574792437678434 8.634191937696915
Ga 9.01170175490644 6.65215909479397 9.50389345627011
Ga 7.791507014748274 11.159152353216161 10.806212788706372
Ga 8.344322788592812 8.437563081927529 11.104661827955724
