6
Energy = -10.21793518 eV
Ga 7.883447567294159 5.36799669619568 6.945883932212436
Ga 7.543960886440322 2.7326629370210123 7.931844300219815
Ga 6.424953500273499 6.297004251974801 4.64353496044878
Ga 6.2047670920048885 8.896797048999545 5.7676515164560485
Ga 3.717384470120494 7.59930333185577 4.941671556142205
Ga 5.557353824523519 6.413642788297263 7.11655383134484
