6
Energy = -9.6673811 eV
Ga 7.911644954347903 7.291026514885049 6.906267578549992
Ga 6.0822611588412245 9.50550628238998 6.982714742995217
Ga 6.025531099783039 7.423270574644135 8.77880827077251
Ga 6.814864059495033 2.1517537548986296 4.564324900036759
Ga 5.33790604407465 6.513713582423819 5.946267713606091
Ga 5.260313145632489 4.541004562368103 4.241172821406356
