6
Energy = -11.33008333 eV
Ga 4.926431557200909 6.791142990120116 5.679510998190599
Ga 7.425424786466453 7.153377115466775 5.262642077912542
Ga 7.020561422702196 8.146811814827517 7.602299285901263
Ga 9.658434479974904 8.405334467944979 7.474206058378328
Ga 5.160233422104753 5.629309096064298 7.911411058111111
Ga 7.718427923702676 5.707389436714485 8.020757491668878
