6
Energy = -12.42816992 eV
Ga 7.52754417184991 5.984582979416942 7.265717370519886
Ga 5.21310238320051 7.3212833 7.265661358677615
Ga 5.21310238320051 4.6478826588338835 7.265661358677615
Ga 7.52754417184991 5.984582979416942 4.703448588313998
Ga 5.21310238320051 4.6478826588338835 4.703504600156271
Ga 5.21310238320051 7.3212833 4.703504600156271
