6
Energy = -11.62788268 eV
Ga 9.982118185160592 8.45599502560657 7.71581314958241
Ga 6.8530292173224785 4.906236176333235 6.878742022917053
Ga 7.448972454887299 7.042028419101214 8.135219548854307
Ga 4.669064057222542 6.1791755944579005 6.912786866934165
Ga 5.516835999597891 8.526655451482801 7.342928609668989
Ga 8.293642095051785 7.688914763519268 5.875036637668046
