6
Energy = -11.56465978 eV
Ga 7.371947401451034 6.605486432757437 7.378997491340216
Ga 5.092026638453574 6.916610627768627 6.243291337646651
Ga 8.16292893501476 8.875592920734157 6.600889292862105
Ga 7.067717699566323 6.896878708039311 9.838104727846435
Ga 8.745970289408955 6.068171431064592 5.232711463643035
Ga 8.056585896348778 9.13216911032886 9.07936077579215
