6
Energy = -11.62396576 eV
Ga 9.233182845480153 7.227456309176172 6.3885090899170915
Ga 6.781139146617904 5.353819664256212 7.300308320222831
Ga 7.015056523697855 6.723700350214243 5.19450186922019
Ga 5.203249092770935 4.136348546468221 5.678476345745145
Ga 5.798949275793093 8.618884656499569 6.348705612740611
Ga 4.968423115639976 6.939790473385869 8.08949876215417
