7
Energy = -14.14168202 eV
Ga 7.0944845196820445 4.093297052346498 6.554609883133267
Ga 6.200075951481411 7.464468654061047 4.2096411951616375
Ga 4.597780674160394 4.201085673124578 7.337960365296024
Ga 8.491321098840682 6.206222608604934 6.824505736076107
Ga 5.62472617028074 6.399819799033148 6.422490539333559
Ga 6.969934850490766 7.893754478238793 8.13363995084494
Ga 6.537125829193295 9.25680082872034 6.032601424283936
