7
Energy = -13.68215683 eV
Ga 6.73585691873927 9.778370997343798 6.742384793468763
Ga 8.130943609514347 8.136654758954487 8.141271233033704
Ga 9.525741429257621 6.615156960645379 6.603906355226493
Ga 9.542434119032311 9.658746339597531 9.6623782057365
Ga 11.001870866768343 8.129816888860203 8.131514765742004
Ga 6.7312603479320785 6.479809450318903 9.518369493726572
Ga 5.265589950082557 8.135141845606231 8.133872394392496
