7
Energy = -15.49680578 eV
Ga 5.462527904663077 8.311575313049362 6.863374497437506
Ga 7.499452880027212 5.437321666871643 7.477585182691121
Ga 7.811457348426983 9.25996520281837 7.194541138492709
Ga 9.297002031386407 7.297991834914019 6.157716925793809
Ga 8.25163556557709 7.483535777047461 8.91411920910592
Ga 6.796506442433809 6.69565394195769 5.414464521600754
Ga 5.6804563885213115 6.754090336180864 8.932122261698586
