7
Energy = -13.73924611 eV
Ga 8.232116216343876 6.027997786635707 5.675825019266315
Ga 9.947991117021482 6.212743082175461 8.068167970715983
Ga 8.991580994100325 8.227122770377358 6.812005512062072
Ga 3.134633715269864 6.059522699326905 5.5780228791088
Ga 6.757024360910049 7.297278278057661 7.818905323214618
Ga 4.285658143473541 7.314081175684365 7.579790544948159
Ga 5.788393183047292 5.97827628847536 5.593297252624712
