7
Energy = -13.15121995 eV
Ga 4.8065603087317585 4.927616254070775 5.878998374903844
Ga 5.010560570541189 7.475386327285599 6.011049853099769
Ga 9.16275509452239 7.1526203764764285 7.935988461206553
Ga 7.877422706825491 9.314440770787662 7.276985458135376
Ga 6.87939934157181 4.939173844810513 7.538259580967926
Ga 7.327617887206685 7.098952192674731 5.8642444235326145
Ga 9.21490782895708 9.419281982636713 9.863445420057515
