7
Energy = -15.49435452 eV
Ga 5.841918497389817 4.597563628543749 7.276208518896963
Ga 3.669505645019115 5.422761727868328 5.968012916071586
Ga 6.658454736171443 6.9495437883426705 7.595458130987036
Ga 4.864404887483641 7.733033568303112 5.968012916071586
Ga 5.841918497389817 4.597563628543749 4.659817313246209
Ga 8.241433412875944 5.526080282556945 5.968012916071586
Ga 6.658454736171443 6.9495437883426705 4.340567701156135
