7
Energy = -14.69885008 eV
Ga 7.821299917285243 5.148698099410951 7.770788183095762
Ga 9.361300827791306 7.334779818658234 8.537893656176648
Ga 7.382877694533423 6.155767254243681 5.501789817207347
Ga 6.494720285655403 8.330412849576232 6.586988599703365
Ga 6.758811086409325 7.277291650041543 8.842518342937462
Ga 5.431991343131875 9.665421523485858 8.73129647624785
Ga 9.074918576931868 8.36117873159259 6.255363617741504
