7
Energy = -13.9071551 eV
Ga 4.423392350718719 7.71757792760409 5.121264056876698
Ga 8.526154669042135 5.792808694609551 7.257852184632142
Ga 10.068775443699206 6.3174033906773115 9.185174726877822
Ga 7.455173750170198 7.885942151632767 8.329622822952734
Ga 5.999740950980342 9.16466498281855 6.761469140480882
Ga 9.059635258964775 8.557254433632176 10.18445976132484
Ga 6.933080512129307 6.899172930638368 5.624883687458825
