8
Energy = -17.6717919 eV
Ga 5.213613459276341 8.78288256101106 7.015179231296711
Ga 7.280109797113504 9.364506058235767 5.537473091385641
Ga 9.13828991706956 7.404880811402464 6.526825778395402
Ga 10.046249947424307 5.901798513128847 8.494403219732584
Ga 7.413855608886701 5.534499574167987 8.8523791165781
Ga 6.678978078812824 6.524022759227839 6.701535352313911
Ga 8.354739936713028 9.263422739423229 8.148086238002557
Ga 6.471262459221258 7.980903067057233 9.21182485114401
