8
Energy = -16.97013704 eV
Ga 7.438373084493998 9.56374214447331 8.782127335279572
Ga 6.853697203871472 7.282902612991984 7.253631009301537
Ga 6.8312803361629175 4.980454969347196 9.18936365385418
Ga 7.788648751548478 4.969725394617661 6.796141010429228
Ga 7.3582768540001595 11.227132478093637 6.772129365508643
Ga 6.440237171168867 7.4199961666602 9.809082728970118
Ga 8.659638568984503 8.906317421341003 6.462041246398864
Ga 9.58654773549133 6.5735552555683965 5.850883551541244
