8
Energy = -18.2466887 eV
Ga 4.723201009278895 5.981993019100709 8.321737499999998
Ga 7.24078502892252 5.981993019100709 8.321737499999998
Ga 4.732886347573203 4.602102739342574 5.981993019100709
Ga 4.732886347573203 7.3618832988588405 5.981993019100709
Ga 7.231099690628215 7.3618832988588405 5.981993019100709
Ga 7.231099690628215 4.602102739342574 5.981993019100709
Ga 4.723201009278895 5.981993019100709 3.6422485382014176
Ga 7.24078502892252 5.981993019100709 3.6422485382014176
