8
Energy = -14.30573016 eV
Ga 5.73352754006495 3.9946862503977605 5.89795191824384
Ga 5.9380492420688435 7.916536651211921 6.495559645492043
Ga 5.668718447674232 5.905381654789447 7.875903313486937
Ga 9.637534904754334 5.811517563855665 8.869576398114141
Ga 8.107154849676702 9.12360775125754 5.7701508025373265
Ga 6.484909626352164 8.627870607413877 3.3802626397057445
Ga 5.535344495843187 8.553371415951466 9.097897892218107
Ga 7.828047799096803 5.04133148625786 7.543584558317167
