8
Energy = -17.06696331 eV
Ga 8.318685799028657 9.61787291635826 6.528167917389724
Ga 8.398581652997416 5.506830227785004 5.994968089464659
Ga 6.336198710973178 10.414618926127865 7.982584994352949
Ga 9.187091176005886 6.126925007411804 8.470405701232776
Ga 7.1301513525563855 7.578080716998341 7.496698983714719
Ga 5.611491798506227 8.448722741208355 9.450225031083514
Ga 9.977022032510192 7.674359242615118 6.21894813108103
Ga 7.416753322811661 6.829531880562914 10.176772513882755
