8
Energy = -14.43480778 eV
Ga 3.0081577871456533 7.206844898920767 8.36920172841951
Ga 8.580456485959925 5.5976584992390475 6.289398738607385
Ga 9.138057659458838 8.177644986221852 3.1732106595402336
Ga 5.8698305626278975 2.996751106248425 7.017084118824024
Ga 7.0041065887400435 8.959350455893482 7.773074443628234
Ga 5.605150939853527 6.833028964721363 8.775174576900191
Ga 5.922524847701334 5.755395525463018 6.549539719382359
Ga 8.582185944911155 8.17589268616171 5.788720947926263
