9
Energy = -16.64759697 eV
Ga 10.466946859797478 9.304632523854771 8.834819156961936
Ga 11.01489776468666 6.937303361045786 7.529003966501386
Ga 8.977370168489893 7.073716641057045 9.654757999324314
Ga 8.30289022094145 8.003736752852879 7.014152248940589
Ga 7.004999054252324 5.910409135358334 6.068105533090921
Ga 5.580469327808943 7.164926993465981 4.444323987114366
Ga 5.049508260504634 5.422715755484251 7.686432658889818
Ga 3.2564787752578916 5.78407446726404 5.532245610584346
Ga 3.8258021112507796 7.828605009418798 6.719162472525421
