17
Energy = -67.60796389 eV
Ge 6.9662095970695725 9.681172211149203 12.003874911187408
Ge 9.537674591490735 9.07572823633672 11.782888631413506
Ge 7.333114200706887 7.10558738894422 11.499268106061772
Ge 7.555316650115477 10.165400546351341 9.587835201991222
Ge 9.769585553635318 6.716510352732934 10.436094743905555
Ge 11.736917172708178 7.050569506921943 8.641603326260494
Ge 9.30447129684831 5.4213086121034895 8.068905226568425
Ge 7.731291575524502 7.423689939102662 8.699518526110904
Ge 9.918757145968558 9.196409588050193 9.17724804460915
Ge 5.575945584028594 8.31188201299097 9.774480115501193
Ge 11.427002869218875 9.281900381653736 7.094111714841105
Ge 9.024712673175998 8.14762666308935 6.575571310793142
Ge 10.867317445374916 6.46352467425831 6.209639100433036
Ge 7.510886264324422 11.639457606791069 7.514794094328501
Ge 5.427557452160352 9.989300912564584 7.554951342916196
Ge 9.52603020312688 11.005176296005585 6.021549468945403
Ge 7.2207201146862126 9.717402765570812 5.719303541538763
