17
Energy = -67.23627456 eV
Ge 10.52854857485011 6.032253744027673 6.776791445562825
Ge 9.85851206067656 4.393482039740326 4.7516688964063345
Ge 7.938719145321893 5.504836450020792 6.3301429323947325
Ge 10.513464607195045 8.683386956264894 7.198011672093854
Ge 9.361276116798495 7.0952588263337635 4.637015622625165
Ge 7.549577200845107 4.852793496446106 3.8388489342591554
Ge 8.245953324266221 9.93066784325448 7.082896111197776
Ge 9.101090024753013 10.26453175033611 9.695859114894
Ge 8.800413135667654 7.816854811974105 8.864063300048363
Ge 6.785772274415186 7.257457612827551 4.629958718821839
Ge 6.734003916494814 9.696619450860727 9.608149396527814
Ge 6.496448283630921 8.050606639398422 7.131219076531471
Ge 4.397210373429041 9.31534542860804 8.44930751430486
Ge 5.438025428466308 7.508276763288996 10.411394013959896
Ge 4.547576603898073 6.513013022201584 7.997360008363041
Ge 7.099495110438706 5.821427915893599 8.940987201687495
Ge 3.0344066066591817 7.638964501879776 9.83701947963242
