19
Energy = -75.89560265 eV
Ge 10.889718431073828 6.517114698667933 7.648864254531083
Ge 9.5909353709375 8.12951178460611 5.935368912254362
Ge 8.4641086022127 6.818867373825746 8.256133258216934
Ge 6.423970110669428 5.291285600597387 9.198810454230834
Ge 7.288657498313684 9.109391932997333 4.984429605027371
Ge 9.40093248208051 5.384885828465057 5.8841695281265
Ge 7.793184441509999 9.229701170017314 7.572554030996642
Ge 7.012613376365937 4.997623421721778 6.665951227826844
Ge 8.508428209388494 6.911744218645988 3.83771456634611
Ge 5.111292169533618 8.994769694826894 6.619512663732696
Ge 5.873547568391443 3.283682304491009 4.895304800476626
Ge 4.890183629537906 6.6560096107899245 7.708181049883174
Ge 4.935925281242641 3.4605867353556476 7.456814895429569
Ge 6.056948180097717 6.608885007391549 4.957491685043647
Ge 3.4994469349170516 7.209474091577348 5.4064130167038
Ge 2.753411376421038 5.1961512104184875 7.330846365632197
Ge 3.333977426702656 3.3985159530554414 5.291958123016611
Ge 4.356499323263771 5.179923963907025 3.4923404015744763
Ge 1.851539794009383 5.4685227067273035 4.685940631833462
