11
Energy = -42.37391346 eV
Ge 9.061502664951023 5.483695616961917 5.387425217559748
Ge 6.239365285645646 8.359217810718789 10.201977607917023
Ge 6.022265855142523 10.455221691427933 8.565494426222429
Ge 8.084455556226636 9.01711490486646 8.090541637429764
Ge 7.210126975086073 6.64443277988378 8.695792324849338
Ge 6.296093862003031 4.892839900227396 5.499899926952737
Ge 5.079086523227974 7.266525531748704 5.269218895734579
Ge 7.76086210520021 4.291799079865036 3.5905178003322242
Ge 7.506868850580665 7.361718840943068 5.980023874269153
Ge 7.900519054378375 4.458024248986117 7.489503179802343
Ge 5.325751380832337 8.254306131865981 7.671105293349093
