12
Energy = -47.71464137 eV
Ge 8.177636753474863 8.415312140768782 8.646706394702582
Ge 6.284763945070501 9.0430878414987 6.861296819049773
Ge 8.805973684966906 7.3637309547731284 6.41796602928318
Ge 6.5949147988495955 6.578067593184413 8.020035086363444
Ge 4.152483676766569 6.94431409948974 6.6767259534974475
Ge 5.0511463827778895 4.535880775472015 7.732950397422602
Ge 4.275530376506843 6.804504986276525 3.977134783052037
Ge 7.6893277346801465 4.883741124758063 6.283587049757449
Ge 6.532231747714565 7.144211937145985 5.1168379537900055
Ge 4.105429153587276 4.5222345654685325 5.1245586987870615
Ge 6.1146659356690405 3.0006988912331605 5.644568997963929
Ge 6.4070604816357015 4.951055463625939 3.7017158967840316
