15
Energy = -59.47484927 eV
Ge 6.062863837213456 9.47282109779318 6.66005277035157
Ge 8.671277727934354 8.690449335133124 6.837768096707476
Ge 5.877082194785554 7.12139685442935 7.558632505261814
Ge 5.210992460924424 9.767970435472405 4.196687711991107
Ge 7.443664746884339 8.593365858248424 4.471389731973122
Ge 8.670247907568895 6.199456454911464 7.815013565086433
Ge 9.177177588318127 6.689005730968576 5.039814307962908
Ge 6.575753077079334 6.25880452837216 9.844450558355872
Ge 4.89285341366716 7.365272402509523 4.912972158409651
Ge 4.151970055470855 5.394293061346724 8.371163005697747
Ge 7.9899742435596135 4.290889815070845 5.724218442093787
Ge 6.952416643090754 5.979095749648945 3.79340351014544
Ge 5.072835354525168 4.91486470811444 5.73638579849184
Ge 5.459625421191211 3.922525014394024 10.016434886374485
Ge 6.725061575020537 4.233416248676611 7.907739774415356
