15
Energy = -59.66175044 eV
Ge 6.70937812386344 10.117798600128586 8.456468807203967
Ge 7.149390696577167 6.215181860835037 7.648345786450153
Ge 10.833001899391652 9.159355610107085 7.288690287052282
Ge 6.253832104271612 8.546714750277685 6.457030839458755
Ge 10.345714950234232 8.503165588604183 10.043339269723104
Ge 10.129633665122128 5.742842283367202 10.252715698548363
Ge 6.172703525257131 11.342978843401607 6.058698262281972
Ge 7.893038599483097 7.270122567125564 9.908710784596488
Ge 9.274290461505544 4.370820474891701 8.054070720781143
Ge 7.823557317820487 9.671260289782015 10.787488236418568
Ge 8.459709165932258 9.886873503754487 6.443718013561885
Ge 9.635937746858335 6.9748153792069285 7.867451549043468
Ge 9.456066704115605 10.843998666732757 8.952389992429199
Ge 7.90778739207096 12.407071847766804 7.476649084697981
Ge 7.648085022780715 4.659151687558079 10.025614696730353
