12
Energy = -47.10514361 eV
Ge 5.933141279108499 2.399494438405564 8.106443956312209
Ge 7.110997343087384 6.11730868715156 6.791246396761869
Ge 5.820698960810788 4.896407985391154 8.725356945406109
Ge 5.688058412133821 3.83220914764821 6.059956688987052
Ge 7.872740296472584 4.582637288833582 4.7462803105354885
Ge 5.534390638953108 4.526438806895372 3.377740349561044
Ge 3.346098026939368 4.493647470542101 4.991826053469228
Ge 6.910406867946294 6.839742985814567 4.012875581526432
Ge 4.258353706721025 6.0584016971475325 6.950095731217667
Ge 4.144823035709182 6.779724479080442 4.151153065853122
Ge 5.457729613759035 8.869006856640812 3.6101594400249546
Ge 5.603718757821216 8.150303031195675 6.170949073678574
