18
Energy = -72.26380844 eV
Ge 2.5041456837140497 5.9745162470731 3.8439129123866684
Ge 4.837720426054641 5.103884461078649 8.492560254136942
Ge 3.1283949061685483 7.94915370902954 5.623401317409234
Ge 4.488372731972457 2.8989591931644316 6.719614090838702
Ge 3.982156221562935 8.19133364133345 3.1422169545760803
Ge 6.8801046254990395 3.390348913829007 8.02360344438386
Ge 4.308772250623344 5.6512124698199955 5.959688344753391
Ge 4.536658987167042 5.846915760841146 2.1383400515955175
Ge 4.814160494170185 7.796843960115355 7.956525994542501
Ge 7.143836143003782 8.726872393713357 7.256220613424318
Ge 7.116013897931622 6.223511034778576 7.455960392132641
Ge 5.872253864581329 7.98471213953926 5.17862679282743
Ge 6.52650695638725 5.334023571416743 4.446221909353672
Ge 6.661705460798286 7.295284170570703 2.7766456211656694
Ge 8.561754163698131 4.689367142823684 5.936963980434048
Ge 4.390606291913173 3.9038185547929722 4.039810966068552
Ge 6.796694338200408 2.4147780479362813 5.4945982590569225
Ge 8.88197816110544 2.3230284161331345 6.995599829713867
