17
Energy = -67.83565074 eV
Ge 9.785035730025157 5.2937530814504505 10.444358159400934
Ge 11.036883050647457 4.45188507110158 8.306278345870645
Ge 8.639355577320126 5.07472317246193 7.792007976960342
Ge 10.758972629647882 6.956654142993737 8.526987438518525
Ge 7.104724412949006 8.896173008039481 10.854159553041631
Ge 7.4997777426809495 6.2961300712640735 9.868500797641945
Ge 5.220779523189701 7.1674014435323885 10.049444799487885
Ge 9.65835582765195 8.040623216875668 10.808730061462148
Ge 8.847109347254362 9.604334266533423 8.779798729248421
Ge 9.27549980501928 10.531683401781015 6.3959372180190925
Ge 6.379500344098176 8.383999466921443 8.094925450899845
Ge 8.633941498744505 7.631547299497874 6.924916375950477
Ge 6.238487494401954 7.9069849159752295 5.304606070790762
Ge 4.828793429581242 9.813032318082666 6.618877020638259
Ge 6.775197874958749 11.102628734958031 7.829783650222351
Ge 8.696606259908062 8.599479113002797 4.582619687636503
Ge 6.921151538154831 10.543819237201598 5.1137997849096175
