16
Energy = -64.83128302 eV
Ge 9.446513067977651 7.5325291030508525 7.5410499682711665
Ge 8.093537806136387 6.472810499231968 9.63785690918387
Ge 9.516222367122245 4.874401621166609 8.040723572676994
Ge 6.912127295957646 4.263904908865364 8.475981693758518
Ge 9.618371495596245 5.763956822465176 5.520840872972895
Ge 6.472302601857453 7.218815980454321 7.827895440021652
Ge 8.073389910468698 3.56737653134123 6.1549577608847095
Ge 4.31482288418256 5.470241466812578 8.15563631582308
Ge 6.146241165861615 5.272104363892751 5.972997015286146
Ge 7.5728254829291854 7.398788415923014 5.450957096420842
Ge 5.98744833206234 9.568494375464418 6.58369566212949
Ge 3.550148051605035 6.05671793719835 5.669511661098713
Ge 3.931116276956997 8.089141577048832 7.533705147058515
Ge 6.291763619722885 9.020594240896171 3.94174237159331
Ge 5.340152122802135 6.465388137157086 3.73012124486843
Ge 3.8957007654135185 8.607005679987665 4.9186025578825525
