19
Energy = -74.7084961 eV
Ge 8.753928446931372 9.103995699301628 3.25669624500786
Ge 7.0754475540284325 9.752387882542733 5.151766150070671
Ge 9.605005347753323 10.133741192690692 5.768237537891388
Ge 10.584646151282348 7.854391002939899 4.723074667283895
Ge 7.732178832032743 6.96071133386516 4.2974513356362944
Ge 5.392183557237538 7.496968034934326 5.2394120717509605
Ge 10.090634790030146 7.991538976186485 7.383784735117207
Ge 7.983876667502645 9.691250710807669 7.787713029635177
Ge 9.288253639841852 5.773092267988794 5.969759978134703
Ge 4.543767660180368 9.847068178399006 4.9873562423289695
Ge 7.262693922815331 4.517178533620701 7.356397315681922
Ge 4.87564898567244 5.530023621413352 6.899775311992575
Ge 7.375907376621458 7.310694979669568 7.047495223739916
Ge 7.666335645186896 3.6846804531696566 9.85479671004323
Ge 7.318964684185935 6.179623665988576 9.751911339122593
Ge 5.100659586465962 4.036911688162297 9.281122430678563
Ge 4.340944823767714 6.641751833549783 9.386809030262109
Ge 5.94484161831116 7.895279678889547 10.942035665738768
Ge 5.468369722091217 5.2958060810844705 11.507819629215392
