19
Energy = -75.1565588 eV
Ge 6.729812119581897 8.498773767628634 9.516263823565943
Ge 9.0683995249453 9.07714137853256 5.81675218703187
Ge 3.487427262967977 7.722735028432283 11.736984421752227
Ge 4.566969386070623 9.54936042589955 8.309550787550151
Ge 8.081779065321662 7.2423779878754235 7.676367027561584
Ge 6.09608786635931 7.184379317505358 11.520193642973688
Ge 6.636321902896713 8.353595946112526 5.5934797691704405
Ge 4.7405169722075975 9.68755052627113 10.942740540122522
Ge 5.477090093854104 10.583269959417148 6.16272041734491
Ge 5.734287892721986 6.084540291276164 6.5337655805330535
Ge 7.524844578609536 10.224195751367715 7.694477656963662
Ge 4.34024820293329 7.239563115717865 9.369044874013307
Ge 8.244311552466515 3.2913145356131506 4.310117970328382
Ge 6.716706863578564 5.5810543957223695 3.9968695289218212
Ge 7.938958613243321 4.833497864797428 6.334581456117536
Ge 10.419221898618856 4.143753370534404 6.297303815398847
Ge 9.244839326547543 5.9167492656507985 4.087331967675198
Ge 10.351422151781307 6.862958709487916 6.279639233157175
Ge 10.665075387852092 3.7902635080600477 3.694875077533026
