16
Energy = -64.17310857 eV
Ge 5.818273513595664 5.371163663440976 7.66315149725214
Ge 7.3394663182652895 4.493532748381842 9.790159801487802
Ge 9.087969173299154 6.659665902917657 10.566605709554644
Ge 7.099753144232624 7.095335451959276 9.05616913500468
Ge 7.9640455460667186 3.833353066681991 7.214551894912191
Ge 9.855883505879614 4.802848671191739 8.903660631282023
Ge 9.893271733167614 7.461018088592306 8.11663654032638
Ge 7.829953981328395 6.445785897231561 6.38441658989336
Ge 10.172022208258431 5.469384900026445 6.365339921161267
Ge 8.13868933169991 9.228128343686615 7.277368384336838
Ge 5.478809021316746 9.308033114865179 6.6503495763055245
Ge 6.841931628956256 8.347521424690214 4.826099723825818
Ge 7.774848347851509 11.596671289610157 8.341119838217137
Ge 5.6091947672044205 11.857911881194218 6.925650319577123
Ge 7.53331101435493 10.992147944489535 5.4397404435004875
Ge 6.1314595398226315 9.645935181008763 9.149442943901583
