12
Energy = -39.27338145 eV
Ge 3.5161603685058984 8.111776460151573 3.651635178857579
Ge 10.19022727836088 6.9555405691836665 9.58675388262255
Ge 9.183742596104981 9.921698405247588 7.3241459164320695
Ge 7.803453580770766 8.465241551646145 6.21495248736787
Ge 8.04569384318011 4.615109273770266 7.603970562242806
Ge 3.7913817687496385 6.018237892996782 6.679388879447571
Ge 2.1072457127252004 6.882900981859744 5.114550625800978
Ge 9.056900374276848 4.671810117077973 9.803457846121805
Ge 9.424954709801604 6.672699244300158 6.453152950234369
Ge 6.762649224512732 4.013206855935538 5.237414794665988
Ge 4.780963494028714 9.302581722337047 5.375494835108798
Ge 4.68466752436241 3.744913161562482 6.290435382950096
