11
Energy = -42.30685779 eV
Ge 8.715312221482739 5.625401858052975 3.481004940672915
Ge 9.569738572432664 6.23366240646831 5.94925845135883
Ge 7.754626998682514 7.764062846449236 4.720945688119465
Ge 7.509348144031938 6.67143458317675 7.327247678466839
Ge 7.136819351298884 4.919567759712613 5.223842657698922
Ge 5.0613213034879285 4.984669663652586 6.821168168873277
Ge 7.010886842371787 8.54759448350009 8.937815679770848
Ge 5.234413729349916 6.924513884837245 4.803314582812829
Ge 5.840164342946667 5.909391446839759 9.234820200032765
Ge 4.91099049354588 7.7402476432311635 7.27787987355657
Ge 4.5774488684334 8.112053056792933 9.728782197793851
