13
Energy = -51.17489942 eV
Ge 10.293140719836451 5.56021405514827 5.598001188660503
Ge 8.24954992864535 5.545367798427736 7.10691753382104
Ge 8.960701005824129 7.816989046148543 5.507219828219353
Ge 8.922703742858124 5.989774840856423 9.730683877009934
Ge 10.386410712956842 7.0672540723218935 7.757282352728205
Ge 7.537336791981737 8.106672753076477 9.613126443810872
Ge 6.234485705022677 5.848351316998631 8.66280335421493
Ge 10.383277127410446 9.494291691472966 6.9890541423729955
Ge 8.05553187190714 10.120306224344366 8.070983711100665
Ge 6.873285507906591 8.058859657051181 7.04768514611254
Ge 6.115261091632179 10.299805529914707 10.000986571185658
Ge 4.84976218968202 8.204580485757857 8.995821196238996
Ge 5.5104333288232095 10.280733676136208 7.32080714478218
