17
Energy = -67.67964189 eV
Ge 10.444835007043281 9.75509539301806 9.475290546358266
Ge 8.161219689993885 9.703436442352151 10.84714809185042
Ge 9.783541254994509 8.79187082407575 7.136054408803719
Ge 9.911290942381767 7.510497432492123 10.787978175850402
Ge 8.137978186884734 9.968046402197663 5.675660780751694
Ge 10.377054133199193 6.580207705709898 8.19397058205565
Ge 6.9178014944395 7.648277387070323 5.785994708085706
Ge 7.946680147884811 10.323940687155398 8.362954424092326
Ge 8.18541729037326 5.706607733435968 6.861426761572645
Ge 6.46672919281359 3.8310688355125904 7.475462881793166
Ge 5.870239052942382 6.287912105610265 8.321206758213544
Ge 8.034280062926431 7.7377060891512945 9.042617068361587
Ge 7.0078634264075275 4.584163581660838 4.7899879413311455
Ge 4.70110455613764 4.983495806315234 6.067450518917424
Ge 4.52411756701762 7.862767178736992 6.604996046011807
Ge 5.3554140070362255 6.658875295019874 4.006450367550715
Ge 2.9333268813020914 6.478927357655389 5.163244963021546
