17
Energy = -67.62428619 eV
Ge 7.9783651049940705 3.8670449422171 3.415356882588456
Ge 5.479871485379337 3.3165805245740523 3.161043799709542
Ge 5.561588254470707 5.797135683889474 2.578019212123964
Ge 5.576869580692671 7.753390288989055 6.659264375917592
Ge 5.762721100292956 4.462387255211558 5.3198885608502735
Ge 7.366779585458548 6.142526739816878 4.244762002921635
Ge 6.321819331090623 10.07727374106859 6.090483161115262
Ge 4.354192832940738 4.857335140039636 9.293180237494884
Ge 3.9996251557506457 5.592609686450274 6.864726505649278
Ge 5.718467727191274 7.050758888344994 9.201639351165394
Ge 8.320460694627831 9.851288537213996 7.872935921944841
Ge 8.118257068934035 8.059766696015085 5.772103050294487
Ge 5.786545704323421 9.630299315663642 8.735250157093855
Ge 9.860840649898215 7.638685024462195 7.78176353967058
Ge 6.2871207360409205 4.0095849719290175 7.808462790944946
Ge 8.086389977830317 7.992390733273154 9.814468791529551
Ge 7.757167802862413 6.23947350637044 7.722382367999765
