14
Energy = -53.74673739 eV
Ge 9.540741632384103 11.80906178883349 5.8420592805978195
Ge 9.274302870818147 7.821033583301997 7.048832107432813
Ge 10.084901438303184 10.150451140593866 7.545001032562174
Ge 8.690258023754618 9.590067339250433 5.320735989657239
Ge 9.115897583272783 4.8684696487879 9.440640260123969
Ge 7.803062627772039 7.05240997153691 9.128956524347116
Ge 6.740653202545536 7.1763163738031075 6.432018516785801
Ge 4.559559851494979 10.03298521774905 8.990606512084161
Ge 7.594419806186735 5.0317809417571855 5.321038927726131
Ge 9.664114175130372 5.309351648710471 6.922526082551205
Ge 4.572576245322292 8.151186401373856 7.4303136357186945
Ge 5.624186148392919 8.104127191279055 10.050924532426402
Ge 7.199689243802554 4.442586689628022 7.805639410792524
Ge 5.197211797413583 5.94593214490241 8.66390809910007
