11
Energy = -43.85666784 eV
Ge 9.504760745805878 7.7629572692491555 7.357070206823123
Ge 7.937444189960942 8.750021481744565 9.265725549512885
Ge 8.702188532865408 7.996181359255161 4.903756668717461
Ge 8.476181095786384 5.876281317232466 8.864402412569769
Ge 8.201159098228134 5.654042009186487 6.220876941761823
Ge 7.543228538311633 9.600885426214624 6.764427125199511
Ge 6.096445191161335 7.662181288632035 5.624815204345564
Ge 5.779362597832887 5.1298100705897465 5.243062327055503
Ge 6.243396167222558 6.912748612665456 9.979269424770646
Ge 5.903578079965369 5.899084081171839 7.6354527897350595
Ge 5.371206382724749 8.612042695961598 8.001124691760902
