19
Energy = -76.39404382 eV
Ge 3.4494166116975085 8.442420898327299 8.461582555307679
Ge 7.056512333434749 9.881520954067865 10.933617655531942
Ge 4.361692212687594 10.597516244363856 9.947116213987506
Ge 4.45435874706111 10.563181164957541 7.203499027837375
Ge 5.9822483089402025 8.467066923104513 9.1778656159135
Ge 6.5252937438926395 11.471226570879788 8.754885211727414
Ge 5.377511981502803 7.555989417043185 6.802072721807677
Ge 6.902373102555621 9.628829130195706 6.636054149706658
Ge 8.712397620222044 9.59136238020377 8.947732150545955
Ge 9.381008510371387 10.053682737920916 6.519158213656672
Ge 7.408383049172664 5.981277878524322 7.7647366620913845
Ge 9.42098524313898 6.902563959634876 9.167567123377783
Ge 7.610469743177073 3.6402378804666955 6.7305799232688575
Ge 8.171226721084869 5.598546814979843 5.003626191475784
Ge 9.426636107354124 4.244634127653293 8.753285763373006
Ge 9.372522329458752 7.449800874937514 6.5718272160776
Ge 11.372577319528991 5.97323379563893 7.6197557702806265
Ge 10.134619894730948 4.003412629841358 6.12990907275177
Ge 10.826086007788728 6.131521509718046 4.880820445441889
