10
Energy = -37.29351843 eV
Ge 10.162977771006043 9.410562530701814 5.272247498566653
Ge 10.285194440806489 8.897408073198202 8.665164751285374
Ge 10.282543227259938 7.290426681114865 6.443923850541246
Ge 8.203303166927462 7.2562742743661754 8.223628337202157
Ge 8.32766766029196 9.67097196721676 7.034590017410579
Ge 6.397879062842264 6.077946524084688 7.0598393151753625
Ge 7.243281206214314 6.803727969648486 10.307877590431005
Ge 4.986104537308726 5.504240836180463 9.085657994531017
Ge 6.074855340779953 8.627298414949113 6.626765689477425
Ge 5.321096434018565 7.8383822131019105 9.038360842591706
