16
Energy = -63.8769447 eV
Ge 7.131784105605505 2.8286461961608427 4.885234246517954
Ge 8.541547606343245 4.827484251122503 6.091614461376965
Ge 6.403749115075413 5.721287591751021 4.948392455128737
Ge 5.096208147383071 1.8763352906375856 6.4444874281152
Ge 5.589756162076429 4.208950665519245 2.788994133100447
Ge 7.191198133657484 3.06472273461856 7.556502651659802
Ge 4.333045941495407 4.023203868448606 5.2357023568838486
Ge 6.808883867458707 5.658962260257268 8.004915976954056
Ge 5.4716274640388916 6.856676772988229 2.6363124343246214
Ge 3.0250424996579475 4.869382505991333 2.9824660654547275
Ge 5.453444986352976 8.216093490801486 4.906688870476638
Ge 4.749629947530043 3.903420522603512 8.21282947491045
Ge 3.0520995684640346 7.1276889975582165 1.6239865728866352
Ge 4.436579306579656 6.274666869047015 6.681547323444738
Ge 2.0912644100410467 5.495955358296048 5.391308406794707
Ge 3.1026932534696967 7.501113358347345 4.13046881363595
