12
Energy = -46.63237561 eV
Ge 6.361551248547463 2.8948454095913827 8.49032233307418
Ge 7.098710051627245 7.147584887757381 8.64422290109396
Ge 6.730561897618732 5.309968677689841 10.322053774755606
Ge 5.085739816052137 5.062279002416834 8.291626278011183
Ge 7.932725465710999 4.694502256763388 8.027112044406131
Ge 8.572781813879349 6.855005862258164 6.390902418815483
Ge 7.1499745390002944 6.034897545979142 4.383954446843378
Ge 5.704997557453238 6.716641676911078 6.373670198644733
Ge 4.821408668240543 7.809809871375238 3.925274556222317
Ge 4.772099208851324 9.074521879147225 6.127666043756071
Ge 6.912857119564919 7.75809812884467 2.510046672808051
Ge 7.1629286503578635 8.820978732690376 4.86826732395433
