13
Energy = -51.35993619 eV
Ge 8.50961175269512 4.905746591575278 5.960159007717627
Ge 5.741701732350578 6.189987819885555 6.158720488160534
Ge 7.279744338344189 6.018061932524153 4.014042195149136
Ge 6.511534290294617 3.938818892458135 7.249777629879342
Ge 9.812283988713794 5.416313112636033 8.083289467933854
Ge 4.9694761025266505 7.250771856482536 8.483473060733012
Ge 5.307237936183314 8.837894018200469 6.031389954884774
Ge 7.311615011666453 6.00142244074671 8.57258002319867
Ge 5.379933532183856 9.820674249466691 8.527708906410679
Ge 7.771442990442313 8.030566644268626 5.418354140762492
Ge 9.15405850319756 7.829747280742272 7.547033013022422
Ge 7.577460506441823 10.07462548787699 7.210063237559216
Ge 7.4786801157526135 8.477981482970428 9.532715023949198
