18
Energy = -71.83857842 eV
Ge 8.425840814379006 3.750575872522358 7.289490510038119
Ge 10.144210265075978 4.180092465172704 9.103774673106797
Ge 6.150298589075994 5.206261752981634 8.148049936443238
Ge 6.430249613229488 4.228678568774298 5.677570988649583
Ge 8.420730483512 6.104567933987537 9.026518008463002
Ge 10.571926693528036 5.628741523087811 7.0159305332594
Ge 9.0736161279928 4.791244599728829 4.909904294527216
Ge 5.6097171796725664 9.345183051908482 10.454485592191723
Ge 5.288273935350188 6.885515565449413 6.222847252368888
Ge 7.143751729461387 6.477565059845523 4.207209360277768
Ge 8.187933106919054 8.800330895893373 9.808066038211841
Ge 8.393023510006477 6.972288670679712 6.532550998918789
Ge 8.75197022800363 9.93711466405969 7.434385458339286
Ge 7.129462387629889 11.33012608238009 9.262767321558254
Ge 7.141925934885934 8.958892344592527 5.355286549132464
Ge 6.1959440059194355 8.775056036784363 7.969222722919714
Ge 6.407398680723008 11.28863661699499 6.709720063105662
Ge 4.5514047893902605 10.759219949114188 8.508067850387816
