15
Energy = -59.88174951 eV
Ge 8.803895214133536 7.290143210435768 4.737866408756852
Ge 6.249046495826498 6.9734515108225175 4.07067529427827
Ge 7.8392045384884685 4.914740159204273 4.647349593886339
Ge 6.701086382490434 6.2488466518568195 6.514329128730155
Ge 6.7699119507385195 8.911165660134229 5.543045889952237
Ge 9.778828489586667 7.7120187072593325 7.160610740626242
Ge 6.9486396829284125 10.440228244514213 8.412726135658206
Ge 7.476650811411049 7.79932280402429 8.444686676295468
Ge 9.531608683439964 9.94212880960674 8.374009330268443
Ge 8.389570624793448 10.87776394151638 10.676321625328702
Ge 9.993026942660306 7.3664554971028195 9.77915163536201
Ge 10.836818618808746 9.702565879133981 10.566600175633509
Ge 6.43264661223285 8.941031294294325 10.596619170926752
Ge 7.676884603210661 6.513356871437127 10.693421443091953
Ge 8.762254501188963 8.556854910595444 11.972660903143305
