16
Energy = -63.29429123 eV
Ge 10.490616113837346 6.420096078619054 11.153749420112891
Ge 10.895291397136509 7.308586851331219 8.81629483376617
Ge 8.995408007360572 8.437965565944394 10.460928300363006
Ge 8.508657949837668 5.7627570025353165 9.654804064294217
Ge 9.379353165436568 6.125096745632341 7.244017828578852
Ge 9.64763689264988 9.514095421037856 7.977160618157542
Ge 7.019231477509674 9.342532626355503 8.652671672659114
Ge 6.539010931615828 7.428853236767306 10.371748173106866
Ge 9.075153855406962 5.897922615440072 4.844829063916598
Ge 6.721943486798131 6.103832930129571 5.698966846625078
Ge 8.186160596956936 8.372640928053897 6.098716206712194
Ge 5.788200355411566 6.933132060585078 7.906131838953173
Ge 6.578680736502302 9.21022886689199 4.275110721945631
Ge 4.685501959960273 7.3219173343730075 4.657180859332053
Ge 5.22338301070728 9.312100104002319 6.461699310814138
Ge 3.4510664925379877 7.600568769008528 6.918473230089384
