11
Energy = -42.5862966 eV
Ge 10.035146973755529 9.387478599565581 5.166762693740585
Ge 7.528595134851763 9.62114584524509 4.7394224845766395
Ge 8.725431988828387 9.762079766919383 7.334629442932298
Ge 8.507019596945701 7.3098572892750715 5.6976015324679405
Ge 7.46256650054617 7.033112002461832 10.883512350337814
Ge 6.268252994642865 8.760515732605983 6.733756212436204
Ge 8.172315708244193 7.31744082277416 8.399726402853029
Ge 6.2151830558079055 6.166370168154005 6.60433958568072
Ge 5.594362526140352 7.786705321561036 9.333783581385708
Ge 8.919591037875483 5.250414518003187 9.639077336421357
Ge 6.335919920786957 5.230262346099927 9.064137850853692
