10
Energy = -39.56181175 eV
Ge 7.150460862132765 4.87283225580432 7.513064480806159
Ge 9.09840712807422 5.468886230140099 5.939068931336892
Ge 4.738897250481059 5.605743930404519 6.749908931570821
Ge 6.583352892120706 5.5764593059471785 4.875790810643799
Ge 8.11636049215168 7.814229700506404 5.491622209006464
Ge 5.505944515090534 7.972754168577895 5.1693315408470975
Ge 8.753205129277129 7.075820209258155 8.107266700879313
Ge 6.391659014804502 6.7301629682180195 9.212695219334783
Ge 4.785244332472835 8.026238757223318 7.657837048305421
Ge 7.140338539318252 9.093061752381814 7.57926392643065
