16
Energy = -64.24341018 eV
Ge 5.265595661595009 8.694828540023037 4.91075881940867
Ge 6.869896453678252 7.2586860312229335 6.905438525485477
Ge 7.1598713564189636 7.191216982291902 4.254466594602529
Ge 3.986398578115646 7.940768174799952 7.127558750157622
Ge 5.666533989095789 4.801173795362386 6.424643588469376
Ge 4.359193756989514 6.2985793040354645 4.445290206447481
Ge 5.170005309504904 6.155158243353032 8.596773072754166
Ge 8.298767428435891 5.14717305038883 5.87390326098449
Ge 8.622148760082876 5.414357904157257 3.2874660435917025
Ge 3.1198286599031992 5.406306588418134 6.609817826491187
Ge 3.8105433688958854 2.7240831441010136 6.370458857698657
Ge 6.228312980464015 4.4974850704604625 3.5520842121944414
Ge 6.464066167564121 2.5745947016725705 5.49406367601454
Ge 3.8569780868556682 4.798341109231437 2.3943038655482094
Ge 2.373440114499647 4.02805238964772 4.436213617837643
Ge 4.427102314823131 2.50600683854996 3.761481272777651
