18
Energy = -71.85973837 eV
Ge 11.09440882987273 8.871812176087023 5.917553563206317
Ge 11.703261127425602 7.2707855911466295 7.81308922562476
Ge 10.268761895494299 9.37684786187351 8.47251226004984
Ge 9.10934501471427 10.45677845041345 6.396430360312455
Ge 8.183554784505146 8.339459039581557 5.018887548300209
Ge 9.529684737397888 6.49875554925358 6.336063055281189
Ge 7.7546894255714545 8.320967085084852 7.8108044151027745
Ge 9.456373268463725 6.4965713439134944 9.089544141338548
Ge 8.740758391612129 4.386858240103402 7.516153951543011
Ge 5.582968327890664 9.510474125673982 9.118164871361998
Ge 7.01429657983089 7.566381037005802 10.294564231878217
Ge 5.9530180698883 7.066077497073309 6.128861793215334
Ge 5.830234743808408 9.808170759632823 6.486767778309803
Ge 6.540688854490879 4.629288223577603 6.1137199920675105
Ge 6.496987080445106 5.678911849103858 8.516597540738474
Ge 4.351599503839257 7.139927076194379 9.701110873542163
Ge 3.84412835034674 8.270866073640688 7.314402856978775
Ge 3.988945266358124 5.615995904789574 7.538391869293629
