15
Energy = -59.85313729 eV
Ge 5.99165936731346 5.2380823282551265 8.324774479159103
Ge 4.110759851032391 4.8174753665131185 6.532791568692853
Ge 3.45343202648741 7.395137524484854 5.770672056863992
Ge 4.870211456866904 9.117648707317509 7.143554621734013
Ge 7.1982474807980035 7.467842637978751 7.890151333204447
Ge 7.873929364399067 3.493576711993436 8.533184512306816
Ge 5.784050682793928 2.787279957044597 6.963549767469563
Ge 8.069801059018532 3.044695455051539 5.655988651644764
Ge 5.8340635417145705 4.235333521538714 4.589241747515494
Ge 5.527105494670539 10.978641255034475 5.681720472404131
Ge 8.532394723550437 5.400956249681008 6.985260211917115
Ge 6.1827850936600015 6.703156419338997 5.519016088854214
Ge 8.230646206478127 5.353735558572643 4.384472502944769
Ge 5.051658015695268 8.861948429986342 4.3476367068397455
Ge 7.397819389918474 9.18159720285336 5.779329167699691
