18
Energy = -71.9276812 eV
Ge 3.8948824815794674 3.992744997490621 6.72436272023238
Ge 4.6814875466227175 6.036926963300163 5.424751494011488
Ge 5.9482632254699865 4.849845181215195 7.9212292729675875
Ge 7.506239048320886 5.734500086392139 5.794522828314603
Ge 3.451170522746132 6.351378528400427 7.7463867754846225
Ge 6.385271171326204 6.804542038468491 3.747120274164659
Ge 5.722729610705182 7.407265882197078 8.025381349855413
Ge 8.756213883252629 7.650901616090471 7.142382545389203
Ge 6.3452188368861275 8.422085573472405 5.725667779854283
Ge 6.423561425680312 8.726141453103413 10.195173073050633
Ge 10.576019867894242 6.348139899029159 8.39134564024522
Ge 9.084031845140073 10.070300931870754 6.236587235864362
Ge 8.716811329434538 7.407592678467472 9.910798945304261
Ge 7.945012308796099 9.933556674179117 8.527645990580679
Ge 11.276772656554531 8.646082357148947 6.994523530812987
Ge 9.279548050349177 9.912397157709387 10.781159009654571
Ge 11.270062416670628 8.519819634264143 9.777012299234816
Ge 10.500392246291089 10.832640915945971 8.520244351590495
