14
Energy = -54.707459 eV
Ge 5.555945328017126 4.7833810511884165 9.420915253336247
Ge 6.573730714601319 5.106201775082211 7.188338619102513
Ge 4.637122042671974 7.033077378611639 8.782833170537561
Ge 3.7249819885134774 3.547060488133166 8.275679406363393
Ge 10.674555132980156 7.084046640175666 8.500773554079842
Ge 6.834451255883351 8.4088907587518 7.99825607000518
Ge 9.251815165747646 9.154740348414343 9.002108431595012
Ge 10.910712448351198 8.762715217136753 6.554642929910718
Ge 4.16740619352609 5.533748039409723 6.821771402074548
Ge 7.446255509624894 10.872448679670242 8.198727786128941
Ge 8.734704202653838 6.876246553194544 6.8864386672418245
Ge 8.15418069908744 9.741763490133321 5.978277250551507
Ge 9.992467522228786 11.125700109053781 7.390928309842161
Ge 9.360413469894313 7.9176821453474 4.672023375574935
