19
Energy = -75.83348308 eV
Ge 8.407740446668187 4.609551506257958 9.571240595612332
Ge 6.779496005771345 6.131103751855361 10.841191311862476
Ge 9.241398295457245 6.971395094793912 10.89039791862332
Ge 8.565328335747704 5.425227118686302 6.819254438996213
Ge 6.206039600498548 6.199741192491098 8.16402809030744
Ge 6.292737341233148 6.200903035864932 5.481096234772308
Ge 8.38658953473719 7.58511184565868 8.585547636504625
Ge 10.654823494933614 5.804083048646022 8.98983278069505
Ge 7.832139826340443 11.583055388407208 11.399196941301799
Ge 10.302567667526812 7.626264915326889 6.795142352694479
Ge 10.26150903077757 12.569812999015065 11.369332407183212
Ge 6.066615863914622 8.901734890557844 7.920049234849435
Ge 8.60244843398616 7.31705474291001 4.784182609260721
Ge 7.694812409405026 10.603103373632804 9.1107531165164
Ge 9.122488121752584 12.78467263523576 9.139808908730156
Ge 10.324872701010483 10.778874131903901 7.8268007389279655
Ge 6.300468532137046 8.84119823702149 5.360048785140058
Ge 8.425596494080187 9.544150170809708 6.474137242701227
Ge 9.995642361107667 10.252445462078377 10.350574349332225
