18
Energy = -71.9165613 eV
Ge 5.475481795381771 7.592206000233229 4.566324468258179
Ge 3.9955430988299754 6.562097981527455 6.387479501992815
Ge 5.848709548178296 6.551211364447113 2.2692195066490912
Ge 7.01943526176699 9.627880110310164 4.9557970422074495
Ge 5.299274458778279 7.582404006086521 8.367938058472657
Ge 6.4103688519993 5.389637026463803 6.552716931089544
Ge 8.136152681338608 7.4387862615855465 5.508333840978055
Ge 5.615681245913167 6.7009936847918254 10.661672211580834
Ge 6.902624843263094 9.324314172689391 7.490610083073891
Ge 7.632271509998922 5.508754081269661 3.8446388370424494
Ge 7.937975158586129 7.792496772989955 10.242065392863536
Ge 8.871533979638508 9.85658859806362 8.970962025838325
Ge 4.164437797226294 3.9986027882049364 6.102287626115597
Ge 9.3342639343302 7.6285939316000215 7.792265000902412
Ge 7.172669824099465 5.407735261126309 9.043157009882785
Ge 4.962777132554415 4.70978546902271 3.778378877914451
Ge 9.592463692119326 5.897294350768646 9.627341144941079
Ge 6.8216550866453565 3.315043674801288 5.015701935518294
