10
Energy = -39.93415472 eV
Ge 6.705286742088901 6.189640658836227 4.096849648380634
Ge 6.087996294798361 4.142738374022828 5.811800693635518
Ge 8.626071393233788 4.906249378051074 5.417415953445617
Ge 4.2655190531063765 6.0086623524679 5.1685634620723935
Ge 5.867028875926894 8.141738792547606 5.748218583443017
Ge 8.425474623563364 7.446948613184832 6.174851337964527
Ge 4.031015663682962 7.985952157388645 7.446181525235214
Ge 7.795758388794045 5.373271779518302 7.886439768395319
Ge 6.836261097246548 7.831506386122609 8.29140228167585
Ge 5.13666515731287 5.750368797613782 7.735354035506033
