12
Energy = -47.36796771 eV
Ge 8.19259682319751 5.991080163969427 5.180949227184293
Ge 9.485746999216598 9.373279953254892 7.098658360072962
Ge 6.558223914920767 4.018558248592122 5.821728445686442
Ge 8.159234863543402 8.500526059734817 9.522487775391856
Ge 8.04778957727594 4.612333789008796 7.970337620419855
Ge 9.03872675404325 10.749665174415702 9.320146134812509
Ge 6.999340864644982 10.364217971939487 7.747158988214548
Ge 6.555014496348705 6.49152011580776 9.41870098091797
Ge 7.002093831084189 8.506378888416924 5.715966860928073
Ge 6.010338892734576 6.210328466226941 6.786821532009342
Ge 8.81984747226291 6.964331776792405 7.417219247877362
Ge 5.174514366799295 8.29975962387943 7.979478030123364
