17
Energy = -67.70874174 eV
Ge 8.287545079502802 7.103102719710176 7.092468757069969
Ge 7.920008285637658 6.594891989741518 3.4851439478395947
Ge 6.663369319675011 8.377091768388658 9.016001565104878
Ge 7.402539266854071 2.272077665671425 7.905535826334194
Ge 7.515147872286483 6.058126318193111 9.663181968138304
Ge 8.568293291131074 4.586985389998024 7.861160227532414
Ge 6.446246908592416 7.547370497720123 1.580577091907903
Ge 5.240201108749629 5.9146920124076505 3.2620573645493613
Ge 6.273664508830144 8.57208689427945 4.135087817202105
Ge 6.718677697885757 5.643876448642599 5.686339388058608
Ge 5.839878840455526 3.239048631815573 6.035922453744506
Ge 5.4534143139509075 7.736581380514703 6.8890606955683085
Ge 5.964882137734133 4.075399921824908 8.812538937672976
Ge 4.640976281052706 6.298182659029958 9.197896563648769
Ge 4.245819901062187 5.2351533540788076 6.805873231402704
Ge 4.218592403397854 8.396960451414579 2.6033791699410136
Ge 3.6887811207486627 7.350588308741871 5.029601253291272
