11
Energy = -43.30566228 eV
Ge 5.8060573052675375 8.2583058103706 6.9900643114169165
Ge 4.201448487722227 6.665670754627375 8.176762469800062
Ge 6.666651433278873 6.080115284204109 8.424875332919576
Ge 3.4579048839738817 4.905247360620689 6.4567218611127455
Ge 8.029105120672538 8.427554181220563 8.534628129864533
Ge 7.295784944519523 7.305709572693995 4.485512276879101
Ge 9.311776848614658 7.516223709565414 6.295496460557771
Ge 7.7146376628357745 9.555844877182789 5.9978186200830566
Ge 5.640289511440552 5.771687312806592 5.824216438528784
Ge 8.160506771650356 5.072254857238646 5.880311702098056
Ge 9.157743000583489 5.824503350090279 8.290653429063825
