13
Energy = -45.77785686 eV
Ge 9.468424442815083 6.3334191617034605 4.309469068013872
Ge 9.825267139439493 4.401474070255911 5.952948492759127
Ge 7.291095551417087 5.283950786634502 3.6234261704821327
Ge 10.651677692008526 6.282325689110348 7.076819290885723
Ge 6.473708665219592 6.660718406924123 5.552754876781576
Ge 8.11495468071975 6.668026167367988 10.257129551510154
Ge 6.359015625291271 5.524671362374341 9.145532728667131
Ge 8.540347653233223 7.233782887514708 7.779386155339338
Ge 4.651323744188822 8.668325855300006 5.016137660908691
Ge 6.342414203034777 9.057638243332095 6.833750370096373
Ge 4.915356883325718 7.180982279413864 10.120358842619764
Ge 4.184161430846301 7.648074776540073 7.799671223120346
Ge 4.13141123409024 9.977699667284517 7.462375074134102
