10
Energy = -38.92137326 eV
Ge 7.333371518960521 6.593161711576894 4.8089044731325075
Ge 6.022619158123944 8.457680735873325 3.98491945870651
Ge 6.310343267930254 8.591030686048327 6.438542146492411
Ge 8.811186784829218 5.245959920650631 6.363088749931531
Ge 6.113843184273011 5.725293383803851 7.0677932597184645
Ge 5.884481438449239 7.675041719897338 9.021198137703207
Ge 7.72256978319078 9.725002903616286 8.297865515729242
Ge 7.717030822694412 5.487029016253773 9.175360603652125
Ge 8.252682036588448 7.891246500602683 10.157749232608563
Ge 8.687002471718623 7.463683888435458 7.539708889084135
