11
Energy = -42.1372822 eV
Ge 6.740129589957386 6.293918033056759 5.340749547250217
Ge 9.893429557942158 7.999049362758216 3.4798750870496153
Ge 5.233472273560248 6.546183323354433 9.821594608037733
Ge 5.754351695488167 7.771645975868012 7.643180481161579
Ge 9.372513112194268 6.441871310523997 5.400040982573162
Ge 3.272729019852268 5.446035250062946 10.74560879656559
Ge 6.133149485072388 5.09331074473622 7.589113401044855
Ge 7.673798127078595 8.593341189317576 4.598132273612451
Ge 8.250448280257865 8.014123298245815 7.175107923998242
Ge 9.997177312045741 9.190838550969145 5.845686492508053
Ge 3.8065527026231987 4.766052241906151 8.445333192266698
