11
Energy = -43.94237663 eV
Ge 4.745943793470806 4.147077712798066 6.89654332634624
Ge 5.865339517605095 5.367467720200564 4.825756774936912
Ge 7.450394101073568 7.509105857345246 4.628342190695439
Ge 8.523087898581709 5.166884924539102 5.4263709407035075
Ge 7.046279762169085 4.910642855708223 7.577106611365572
Ge 4.840456667479551 7.88470003889973 5.145558507087708
Ge 8.714423644250193 7.212885773446071 7.002664023943757
Ge 4.837106810238499 6.589792562393575 7.431394481722522
Ge 6.56951577093498 8.796250574508074 6.845893577950372
Ge 6.742316400716462 6.96758782520153 9.175635404642629
Ge 8.281218796923916 9.035849538943868 8.74498601557136
