14
Energy = -54.94131918 eV
Ge 8.081786732786393 5.94228364953605 3.945092496915708
Ge 6.550558141301763 7.709229984039585 5.330258214790173
Ge 7.070074992753713 10.10358457964901 6.447687624660583
Ge 6.0779878582681635 4.4726800475544755 4.902051989004019
Ge 4.336870145263369 6.406173212876202 5.2622483338674755
Ge 7.489125520388391 7.789989046260357 8.00036596914645
Ge 9.13453654549522 7.075916460801602 6.096942312315207
Ge 8.516522937548096 4.586213041982506 6.162513394707079
Ge 6.77586282820732 10.028996365676585 9.031839645050132
Ge 4.841779246857079 9.1377567637095 7.380952618100179
Ge 6.997849765932845 2.386072807558104 5.821792417746598
Ge 5.345292899902755 6.100297757129568 7.514595902607701
Ge 6.783540885273577 3.9710384901471403 7.899277871794925
Ge 5.282818562953724 7.771695937312471 9.574033018821906
