11
Energy = -43.1009016 eV
Ge 8.965121620200538 9.423173264191561 4.779889696438394
Ge 6.754346458685969 10.57425832856437 5.656138007662849
Ge 6.929160556797682 8.024491809433675 5.251728708049448
Ge 8.396542274852516 9.29512170772152 7.378821469361934
Ge 7.5100784016351945 6.871218370073971 7.680686456782854
Ge 5.640119458588762 9.18052304130432 7.376831467496359
Ge 7.69792356136764 4.347821085872801 6.895818089940611
Ge 7.831334336101535 5.281592270235856 9.561656547737162
Ge 5.818818813753295 5.685989463471399 5.691951243959803
Ge 6.467299723639555 3.156997500544051 8.733846129214431
Ge 5.383898740868346 5.3771065336726664 8.245608532219537
