15
Energy = -59.80130086 eV
Ge 6.427669391038574 8.611925883575168 5.101438369090242
Ge 8.853913581778396 8.786467788494113 3.9369121493609236
Ge 7.728656344958244 6.421990843983803 4.9212081612538965
Ge 7.051253601706831 10.663270745991639 3.8768991859811606
Ge 9.471503642383468 8.08686711747198 6.434020666592829
Ge 7.549935706501813 6.428371120168955 7.59258412335101
Ge 8.41666930084117 10.494718111920633 6.153327802604294
Ge 7.0434682357756095 9.038192267479527 8.040239640314637
Ge 9.007215625483546 5.224892177448381 9.48393858338865
Ge 7.1203351006257565 8.835448401556427 10.684576888902843
Ge 6.323953642208273 4.675305906814721 9.022784918895832
Ge 9.317092164406409 8.01569296404815 9.06365760433041
Ge 5.3600686074652915 7.278790787739524 9.051554601325313
Ge 6.8952571332539545 6.160143187925595 11.023332358263309
Ge 9.258224626147575 7.1031393999570955 11.438741650920049
