16
Energy = -62.49186303 eV
Ge 8.315633667055833 6.76036094121546 10.589209482294438
Ge 6.912447654310612 4.5732038491062665 10.311391965786038
Ge 8.582499305654322 8.483720160333377 8.54684406289774
Ge 5.695251541574087 7.108032505672911 10.912605505684644
Ge 6.702092844194804 6.541069495548632 8.458377098122762
Ge 8.346422531885295 10.430723982588766 6.815907688577299
Ge 9.838019269077895 7.912077379706507 6.410360209162742
Ge 5.3358611319131395 6.155397563381228 6.206574277619949
Ge 4.248966735167064 4.9411745371111415 10.373220664913198
Ge 10.462890863199416 10.180865777418791 5.218659306914754
Ge 6.4298458854343865 8.584244286692565 6.636942967046731
Ge 5.386296346489729 4.239167020171127 7.975490706209051
Ge 3.9651622079113773 6.692130696661975 8.449759391167861
Ge 10.581783330896897 7.600205099137156 4.064558977352453
Ge 8.076488365010201 8.64544519047099 4.512406967349813
Ge 9.58362319250722 9.739526371491399 2.849959364249142
