18
Energy = -71.0751808 eV
Ge 5.446701033766286 4.454201589606873 6.956692039027776
Ge 5.331577205864033 6.835522364678169 7.950290646701439
Ge 7.789047600296199 5.341158522974346 7.369877553458342
Ge 6.353111153793415 6.199465071713826 5.302201441488772
Ge 5.937697778780015 8.589807322749447 6.121225351594819
Ge 7.381910882348951 7.0569724491248875 9.518901497549114
Ge 9.928100354737678 6.530172217237779 8.253296245587189
Ge 6.17762641287346 10.80710202352638 5.20824027143823
Ge 8.896696127036723 6.892882409478383 5.074501095017861
Ge 9.780379051043443 7.245652045708395 10.871222879650004
Ge 8.273091085190716 9.360423442062908 4.606058455103414
Ge 10.047935987570161 8.703787772396927 6.714235782318269
Ge 7.487775592830773 9.021505024826599 11.182201035577506
Ge 9.23492632470469 9.456412240199455 9.133412497458309
Ge 7.860602677358156 10.531606958211261 7.2632191457666
Ge 7.366909485733125 6.190376488615986 11.878737345734356
Ge 9.911713237458757 11.043079264925264 5.704515319872518
Ge 8.849109399816246 7.921684714777064 13.078442392441922
