19
Energy = -75.56768279 eV
Ge 9.876597592270745 6.997313007047442 6.595339156433422
Ge 9.504478439674621 7.528616778740896 4.189231307548587
Ge 9.419117630207083 6.469528231927909 8.964653836747463
Ge 8.339802857085758 5.236400710862876 4.960067613632004
Ge 7.414994884042013 8.386002388203108 5.424179661720564
Ge 8.24762240458381 4.735153514524897 7.442154638147605
Ge 7.234413191000142 7.506376177847427 7.9803651811546565
Ge 7.56339591605089 2.548254137629602 5.784197377936291
Ge 7.209164610198389 10.024438495358016 7.686636998846322
Ge 5.442727963096577 5.542862182302501 7.909743882049045
Ge 6.285425480318005 4.1362736006322605 3.867098300992464
Ge 4.682933391640695 9.05210795821342 8.172514271647971
Ge 5.049756874241037 11.49695157057869 7.642370888434887
Ge 5.914095406847754 6.26843049410934 5.463549065117008
Ge 3.7854339416018985 7.582170618806995 6.038530957142591
Ge 6.412271459025726 3.116929103400618 8.225789150922276
Ge 3.336702301019092 6.908157166416472 8.570721921268346
Ge 5.045267992830855 3.3793083624610967 5.992052232375542
Ge 5.113859381704278 9.81241861737421 5.6470819650367705
