11
Energy = -42.47271738 eV
Ge 7.007930992140789 7.114764166540569 7.891242528176775
Ge 9.663559017732569 7.107711625635165 7.783288132799577
Ge 8.37852990231008 7.5075522754270825 5.076386803421068
Ge 5.943073401176532 6.297373253532742 5.527591793333851
Ge 8.11945580437967 5.117174610448171 6.376098116823572
Ge 6.2040065620082485 8.847153047593556 6.011833625121314
Ge 10.403126078254257 6.146336190188595 5.531298507504708
Ge 5.975499380407136 8.957848167197614 11.657941930552584
Ge 5.688398106900886 7.0274415416562785 10.109559579978452
Ge 8.413032479227423 9.479122893299117 7.323797197828129
Ge 7.092657848013363 9.240514751374931 9.586815596839196
