11
Energy = -43.38266882 eV
Ge 9.430608820456865 5.3963092547560585 9.545276953163606
Ge 9.867283367904145 7.630007441218442 8.133351202787827
Ge 7.850634498568319 5.7529195937868325 7.715019629013455
Ge 7.468211559816139 7.049996496523019 10.171049810014225
Ge 8.811902993084571 7.301590390428491 5.790867550004574
Ge 6.084369677523712 6.152659329911904 5.89073562171238
Ge 7.775413310986239 9.061978851707549 8.508010322459409
Ge 6.364072491193143 8.907557328296697 6.018088085793913
Ge 5.54474563260499 10.013364964978571 8.103125369890973
Ge 7.22326746798064 7.924851182404068 3.976800999485345
Ge 5.501035305789411 7.364487586613381 8.311506781364448
