15
Energy = -60.15329402 eV
Ge 4.776680526666174 8.027372721953666 3.356069992617774
Ge 7.0879797418652 6.815385173067426 3.0976453434076023
Ge 3.0216421578656116 6.7519279139543915 4.831722971064996
Ge 5.180679323385397 5.391520035667054 4.285402667721208
Ge 6.006130359136742 2.9128498309665476 4.657205468751102
Ge 7.033481005570535 8.894089776614482 4.824069022446503
Ge 8.038010524250735 3.9058722760010753 5.859314990696977
Ge 7.3095655936102455 6.341504374165221 5.654875747499623
Ge 4.451053188926307 8.87656734523185 5.916457112632346
Ge 6.619119003784245 8.196674002117238 7.388915824723751
Ge 4.699607208303925 6.321757000480344 6.760937946773822
Ge 8.206710927836324 3.367764396661447 8.306704792463313
Ge 5.748032000284423 3.2935533437861966 7.199194121780503
Ge 6.856641452578734 5.566399334735904 8.53940119369013
Ge 4.4496348851049765 4.821730373767306 8.807050702899476
