19
Energy = -76.91217571 eV
Ge 2.7096750131316285 4.052435122207162 5.4466734259439225
Ge 2.4303872129752406 5.298108850976893 7.888115922636888
Ge 3.405241494922358 2.747933023721951 7.69309916693459
Ge 4.354856694594044 5.913059358370432 5.931258897839263
Ge 5.967663798304477 2.5210618630539283 8.204699085518024
Ge 4.479378084269282 4.460631876326814 9.570673454951399
Ge 6.255901933527128 4.957525433856691 7.571603107851344
Ge 5.248673766873712 3.263974972448346 5.67380711395173
Ge 7.763929956474785 5.420751527783396 3.9370184924066898
Ge 8.089022932268298 7.882539061029341 2.7757412307855054
Ge 4.58213346833453 6.859999828154816 8.369659956921428
Ge 9.963376874893518 7.008945260869389 4.502099483902671
Ge 6.06720458576332 7.27199411079869 4.573506267067152
Ge 8.008791366489925 6.431388518328873 6.304817448034052
Ge 6.383605661174764 9.735082283620132 3.966906834494949
Ge 9.06276113282017 9.657637561763103 4.597677544029309
Ge 7.194060189699487 7.7740756249460015 8.541109738044367
Ge 9.664366176011177 8.383321522980161 6.860285889215626
Ge 7.055324559011477 9.110168046196359 6.3787025357015095
