12
Energy = -47.70784333 eV
Ge 7.495158842386685 5.065604853968655 7.812245994092366
Ge 8.752759254130318 7.259237027375882 8.60142078254326
Ge 10.302879577989431 8.324300861639525 6.81210840000181
Ge 7.985506132603608 7.3477059420067565 6.010553733889034
Ge 8.452581360369571 9.933797620174362 6.5277449586517236
Ge 6.216448416325579 7.5392097879394235 8.526817676753364
Ge 5.759204220311007 9.035234841217553 6.407436063170167
Ge 5.136848778786792 5.26856207095638 8.939584073480512
Ge 5.676139265063353 6.884387122292197 4.804046160714451
Ge 7.545832368265062 4.92575003937314 5.150213687938493
Ge 4.029978998156767 6.938169518013412 6.993867769793118
Ge 5.1800645661540266 4.628299910889833 6.318260446995603
