13
Energy = -51.2384702 eV
Ge 7.999407789980932 3.6447766361394973 7.570615951017743
Ge 6.301693490680486 5.435182041754932 6.053159659090775
Ge 5.397886580435364 3.5531922799497333 7.415759081621185
Ge 6.334459743733366 5.32296032890536 8.968377774969541
Ge 8.311979569661192 8.987136282530168 6.34302458684992
Ge 8.54636004357671 6.045763923321449 7.36677371117054
Ge 5.944467271902981 9.789931975092385 6.038911653070639
Ge 10.39814366046334 7.85133998250436 7.170572055645379
Ge 6.061784121974393 7.624448615323884 7.591473907101721
Ge 8.60585918220855 8.018020268782367 9.30026646277115
Ge 7.689776570984045 11.53875821746987 6.909121325800194
Ge 9.565337081004845 10.290392546807782 8.419405450011618
Ge 6.7437016549293425 9.96649330804796 8.792962434138007
