15
Energy = -59.41961291 eV
Ge 6.41632651716163 7.792070880035242 3.5965157822467217
Ge 8.86258423453124 8.94744315810145 4.417906224551077
Ge 6.667630562558924 10.342369268073744 4.565587494128145
Ge 6.160858539307751 6.33825090106938 5.693164963816846
Ge 8.670995704289117 6.366250621132253 4.399629550759822
Ge 9.69585865749375 7.883221207501543 6.614997963786341
Ge 7.970936306562082 9.993194822340744 6.907170846567761
Ge 4.994911818689898 4.776005278684129 7.355862841411483
Ge 6.762391253692358 3.6090942884226407 8.663474376872728
Ge 5.291690593448707 8.800942053801482 6.150655377854512
Ge 8.38920531141005 5.552430662905387 6.981061047312188
Ge 7.099750056455097 7.71826947843088 7.722541002902261
Ge 3.9275093467364015 4.620910751954893 9.641624891424476
Ge 6.230621236312177 4.300624749844939 11.07250203429732
Ge 6.037434197482655 6.13762621383341 9.3960099382003
