13
Energy = -52.01243641 eV
Ge 10.23121294129354 6.740522092204973 10.212186788280869
Ge 9.29368978798408 6.602150747777046 7.723202663898332
Ge 10.462027769876002 9.476426480696487 10.417270954622412
Ge 11.510687337035721 8.20174071808365 8.374218970955745
Ge 8.017395709153355 8.027434853654558 9.810859104744436
Ge 8.318231917017506 10.66214235199316 9.364265787784445
Ge 10.475151569844112 10.550607240880575 7.796850396918229
Ge 10.26202572773373 8.434203321682554 6.036536252554825
Ge 8.05659784470531 9.083489951732373 7.20461424303064
Ge 6.687397790393183 6.598694873890409 7.673340773375054
Ge 5.817470217859032 9.814904341595922 8.935445445562985
Ge 5.277339753022517 8.500186793071403 6.826976115060686
Ge 5.238293829504483 7.412393315322819 9.560183715069389
