15
Energy = -59.39228485 eV
Ge 6.727365053499528 2.256197273597689 8.829031346815704
Ge 8.863726008637823 3.754464771024766 9.186288580624538
Ge 6.8562777869279925 8.51628652446621 6.1666395643659735
Ge 6.567873334369539 4.816817226193892 8.852570592941769
Ge 8.013046533345054 3.4264348869984977 6.767188794997212
Ge 5.296032716170186 3.174410752508695 6.981643369442422
Ge 7.597130167867097 6.755833833259412 4.022990771543716
Ge 6.744023938662759 5.697324025862415 6.221093080162794
Ge 5.887476215383005 8.966755842824867 3.5838604021180354
Ge 5.722955037728738 7.280445612421976 8.284815097666339
Ge 4.186950116921047 7.056871672056356 6.2736889408153464
Ge 5.608605614579378 6.768395882323578 2.2164884257445143
Ge 5.084512135958082 5.327911828773279 4.267340483528386
Ge 4.419570031921521 9.5713242140979 5.630858547706603
Ge 3.493284375028962 7.736916418296728 3.807033288656295
