10
Energy = -33.72489087 eV
Ge 4.37221053238163 6.0725684928050745 2.8199048115042955
Ge 7.892646144956958 7.123310230050303 3.7079973715067807
Ge 5.66251612275061 8.008210791201817 3.461313453283502
Ge 2.710540479685285 6.078581824970092 4.588457362890152
Ge 3.113885196124897 3.871186776464613 5.488433290787588
Ge 8.31695664491249 7.729156103907692 6.020413124482487
Ge 3.653499407257413 4.326036123346319 7.791722220629233
Ge 8.720857275817487 5.512504169332252 6.899524480956362
Ge 5.858906764352434 3.332226356347332 7.954214600608725
Ge 7.069488563229974 5.317726263043829 8.63952641481962
