10
Energy = -38.8716882 eV
Ge 9.661558385175551 6.447442198681055 8.569010197203369
Ge 10.015395312164843 9.052755261908095 9.100666700569228
Ge 9.21027432904193 6.113932519874605 5.919972540708973
Ge 9.366028616378097 8.522218062596869 6.741285881885953
Ge 7.107643445824368 6.391302347288941 7.8853527666612395
Ge 7.732851813015179 8.210651344401015 9.836652581041475
Ge 4.842880980348352 6.877369325271507 6.872732563172028
Ge 6.939192999786568 7.33068281897935 5.306635494345504
Ge 5.1618530347292495 8.241008075612887 9.10801429933988
Ge 6.580995689898958 9.167055162877373 7.19071096512766
