18
Energy = -72.57582423 eV
Ge 8.294247848443941 10.975059637630398 10.841358271582068
Ge 9.009897848489238 11.967046145524412 8.307941488090087
Ge 6.45551490600363 11.686715076083374 8.993516724948982
Ge 10.504498459496963 10.182642960073093 9.529132997011063
Ge 9.759877484977194 9.714899309318616 6.795585630367869
Ge 8.931952002638083 8.009561868422546 10.62033530485317
Ge 7.126174788713288 10.461317903597863 6.564743861879448
Ge 10.739797688966103 7.652722496792699 8.608531444169005
Ge 7.737047588736187 9.439198952162851 8.785563189894903
Ge 7.085728950698492 6.751987761951945 8.902733482379496
Ge 6.164279126525094 7.725908245000718 6.467999348722581
Ge 9.150621948815088 5.135011658129773 8.581163782363687
Ge 8.767796910995166 6.987151052687193 6.737244134174729
Ge 4.733774468057614 6.163366009091955 8.111929623452943
Ge 6.646022914443357 4.134996525969545 8.278870260729255
Ge 8.40073477045596 4.3385532090140435 6.1120926129785556
Ge 7.567679265002754 6.40715595849905 4.554086866607097
Ge 5.773420802683822 5.033656636794822 5.9375060471903955
