13
Energy = -50.98030262 eV
Ge 6.576353022823047 6.553354911777197 8.85858887837319
Ge 8.955193219842823 7.159265455480065 8.833302602233804
Ge 6.054794985112725 9.553807892575513 5.888754481241472
Ge 4.631386578067784 7.853275278626566 7.10809187474646
Ge 4.2000975828965315 5.948656636109873 8.826854045054583
Ge 5.04313079747788 4.919723324076916 6.607307813498749
Ge 3.383240051250051 6.417708354397906 5.358020201592654
Ge 5.57079791179781 7.3758430774936405 4.551644937724016
Ge 8.104531652159958 8.229383612694408 6.6345608193042
Ge 9.76609146812025 6.754791603250788 5.359177461798624
Ge 8.51689941987848 5.2846550854437515 7.080756226126083
Ge 7.578147381760511 5.812211312169411 4.534628856475477
Ge 7.09225457400294 3.6101736272359033 5.831196210092329
