18
Energy = -71.2092375 eV
Ge 10.11989590948756 7.004715924017595 4.939284390853588
Ge 10.112830816900694 6.149416109223572 7.728543940007519
Ge 8.78040455104716 4.9872673813226776 5.796701451835222
Ge 10.96784956228406 8.568089232038371 6.891288672493162
Ge 4.715538061453874 3.7166796484396643 4.913176344120842
Ge 5.237041330331259 3.081119528074714 7.474315453946101
Ge 2.9039447951995108 4.072658650906035 6.93503756055741
Ge 8.512384730736706 8.470321807938959 6.6674229179921465
Ge 7.640908248944483 7.5364647695762645 4.094914318905743
Ge 6.3116857437216405 5.290286055824837 6.462014421244932
Ge 5.172690661066251 6.536770872328584 4.509182253517682
Ge 7.614299283835716 6.512511607724635 8.443777531754815
Ge 5.114385527238291 5.349838160807105 8.893366463171303
Ge 2.6757641485579553 5.658879613942403 4.983324871066215
Ge 6.590740657397575 8.859442512470217 8.36516207086577
Ge 4.073662685942467 6.80632479783247 6.986666733018059
Ge 6.034027749200235 9.048842547397035 5.548027107521493
Ge 4.314236340129489 9.331344319028748 7.385686445845755
