19
Energy = -76.43868486 eV
Ge 7.942938114368319 8.833535685782708 3.076580442512897
Ge 8.719348584594316 6.635686161388141 4.2073181316061365
Ge 9.366904720613473 9.221735655416632 5.213356152723671
Ge 5.927856157718197 7.626574296291666 4.026398189119216
Ge 9.476557386130805 7.16873709478287 6.863322487739523
Ge 8.154733823750362 5.072902067497319 8.411491419677974
Ge 6.999043718015761 5.978074381726387 6.096494666798391
Ge 6.777114172789371 10.212798320907442 5.099325615329505
Ge 8.049350037210107 9.69760670434585 7.44448614340961
Ge 8.165873968321586 7.735759841036749 9.329698504657
Ge 6.993145216846856 3.2352548710827547 6.570791101476695
Ge 5.806421370420409 6.374184585039846 8.763326977778602
Ge 5.535223544222906 8.344417330178077 6.572993005983732
Ge 5.861921235555844 9.001204991225386 9.067800470271607
Ge 5.326130040554261 4.372780827955375 4.818199161451891
Ge 4.3490767662919 3.132781640906638 7.06740419055662
Ge 5.954916551213142 3.5781148728316476 9.094021704828744
Ge 4.116643367876258 5.947390588058049 6.507004940413559
Ge 3.6385573404658427 5.013614580535643 8.896129102514951
