15
Energy = -60.47487812 eV
Ge 6.556313965821313 5.810364345626533 2.5330942529867717
Ge 4.402497327475401 4.402290717563677 3.6372153662623243
Ge 6.9145494709192885 3.4081206026216697 3.6437616166380606
Ge 8.625852584001157 5.384309136150481 4.345812765817878
Ge 5.692156609796206 7.286061327811607 4.466596544196269
Ge 5.276743757076282 2.8573284795063616 5.646956906320963
Ge 7.904032632725115 3.517882585336424 6.099663304116851
Ge 6.451130231122523 8.96139355739341 6.400508340787716
Ge 3.686355278068886 8.130231376719832 6.0422439015517
Ge 4.700245283982549 8.961226162001099 8.304285918542792
Ge 7.229736744939232 6.281882747236206 6.32141080422223
Ge 6.657284864149516 7.201459791791684 8.774818900736957
Ge 4.612993804222775 5.506396971936014 5.99803313405501
Ge 3.9665346781482342 6.389845140809499 8.442886770809345
Ge 6.034408941859833 4.612043231802952 8.053547647263008
