19
Energy = -77.03515249 eV
Ge 6.84176184929802 7.34743983818486 4.586735537714211
Ge 5.655848195749214 5.4240328815142025 5.850342046847959
Ge 9.117546673581957 7.094179651235572 3.155126952757519
Ge 7.537648089895724 4.946906725714672 3.588125837102855
Ge 8.387301109286982 9.329889844044663 5.179689400214432
Ge 7.402004993078001 9.188743922621118 7.595930846055699
Ge 6.040776335155515 7.008017730504071 7.852410110756736
Ge 8.132043968804584 4.795438692823045 6.197215587058431
Ge 8.30361502099008 7.095744381440861 9.101029230679961
Ge 9.988190819078929 5.668382768074757 7.708932888777868
Ge 9.815479250683403 7.275531049528175 5.7500330072373895
Ge 5.652101062313642 6.639039808452525 10.378987656211638
Ge 10.11968290064466 4.9718589556922606 4.363801990043041
Ge 8.96408784828457 9.57265302392402 9.673748920047677
Ge 6.430220472560258 10.886758017305493 9.283660323208423
Ge 5.263608659089006 9.082280940242429 11.190586689737431
Ge 4.63289654967142 9.018221362587475 8.670019581504922
Ge 7.783222588241765 7.733124019157965 11.547896273829242
Ge 7.454334655950098 10.38679622648209 11.70080676474556
