12
Energy = -45.57973769 eV
Ge 7.485530137305926 8.482299552506673 5.1783556214977695
Ge 5.26671978561426 5.64033131380009 9.123738055663035
Ge 8.788815639838685 8.785496733580633 9.266933863094255
Ge 9.476980919164806 8.637797452167225 6.8265243755328715
Ge 10.007444759667589 9.70763616707263 4.615792668800607
Ge 7.627778686122147 10.570067563483251 3.7506951264513626
Ge 8.330601359690698 11.018176331974864 6.197165945355129
Ge 7.599965045689666 4.139052234109094 8.712115870513793
Ge 5.616248697503617 3.3375825307348856 10.01936194490841
Ge 6.833047055588622 9.427403558156252 7.542204211939531
Ge 7.563196832548732 6.582511109442702 9.091679106463436
Ge 6.998502180327707 5.263797572726068 11.317416811279532
