13
Energy = -50.33772594 eV
Ge 9.774609784425499 5.830807971005806 8.887255677600177
Ge 8.444910197658517 8.968876780528552 6.1706336887261015
Ge 7.637621835068468 7.203765985933388 8.023789393219598
Ge 8.39323594613051 4.296891516969205 7.642857940924811
Ge 9.850040236969633 6.337528040485294 6.271682908216978
Ge 6.139254486412892 3.311868266564062 7.549574192315088
Ge 7.536670914539498 6.449980642897809 5.302476297299106
Ge 5.6539127165880325 5.611794670579809 6.793945752034738
Ge 6.632658351184902 8.522082789277182 4.173859007353058
Ge 5.996798728874219 9.63628769462208 6.768409016300894
Ge 3.185999667208053 6.410399199816742 6.9255901770729515
Ge 4.904639793876694 7.780973184270242 8.344299219717582
Ge 4.379860377724164 8.162723988503485 5.595806412188063
