11
Energy = -43.53104023 eV
Ge 8.23501992019903 6.4633447014023355 3.803075872495727
Ge 6.349444748947334 7.5646284091143245 5.19169835715739
Ge 4.478544855858895 5.548169004945946 6.176895893677858
Ge 9.188699990375774 8.198993304937796 5.477741531005558
Ge 6.576746879737455 4.715037123904112 4.959904722675809
Ge 7.500002411911637 8.792862903329967 7.466592695571326
Ge 4.827290469056313 8.193459101000059 7.31114456653653
Ge 8.284481953001242 6.129006389357191 6.7437845366160385
Ge 4.362676408990884 5.818515892826853 8.690620092859882
Ge 6.483960750834912 4.3688408747438885 7.665545337735187
Ge 6.602268254650014 6.9502129894284135 9.005271174525035
