14
Energy = -54.823898 eV
Ge 7.71344649040481 8.633112645118697 9.943921285253273
Ge 5.3530020777214045 7.4546467245855235 10.5341863417281
Ge 6.656836602708619 8.861810579728207 12.071169849057823
Ge 5.975581829627088 8.78525917458315 6.309907212698057
Ge 8.532176418823223 8.398517698960937 7.400468294919236
Ge 6.396253265697913 6.968631651196852 8.226100784938422
Ge 8.711238801525557 5.727531760460767 7.163779238984442
Ge 7.94392256428224 7.679626744284246 4.797359117026726
Ge 5.448397054914093 7.212432857153864 4.0590558661337415
Ge 7.3516051215929625 5.66596840457399 2.8558244513920443
Ge 4.490717942526228 6.419949309551916 6.472838979075278
Ge 6.262443229599013 4.4748617562887585 7.555661493304861
Ge 9.51079097473471 5.746227632943342 4.497426621249703
Ge 6.742461566685609 5.0601079491836085 5.185967917328789
