17
Energy = -68.19738826 eV
Ge 3.08439240882135 8.693546542468306 8.99131334125189
Ge 4.310579379061121 8.011237196489825 6.745767203492679
Ge 4.346079377272401 6.374756131182909 8.726983105775364
Ge 5.714564657652465 8.721341906736676 9.385901803308222
Ge 4.456306997496069 10.497559861861236 7.707574987929065
Ge 6.911884260094824 6.534580619044098 8.040179727580092
Ge 6.484688311724009 4.84056286357774 6.081230755504856
Ge 8.957751481423013 6.009489318370179 9.558427603904903
Ge 9.038189415389594 8.220828844807814 7.9243120774073175
Ge 7.410039540679342 7.249427131767604 5.509849812935503
Ge 5.6668586987249085 9.056874538569009 4.879782690725952
Ge 6.929517634532082 9.881065906151777 7.001946431667649
Ge 8.385571362630305 3.9899573688853223 7.759469392971395
Ge 8.93581295801669 4.898693053557792 5.238482729243661
Ge 9.976034776013257 7.569128354732319 5.51749898030176
Ge 10.459750880778357 5.785764563559702 7.551170694826195
Ge 11.421859470280433 5.235964704944795 5.325462040886236
