17
Energy = -67.4032994 eV
Ge 11.501405368204445 5.109111224356418 6.388303014661892
Ge 12.515261811469298 7.488558136142056 6.685232855334851
Ge 10.995099512492132 6.72093156251056 8.552816908832913
Ge 9.286110564261786 5.031659928056028 5.002204719838865
Ge 8.990750013552516 5.054544350868247 7.530129579120934
Ge 10.084508103985907 7.38101721803102 5.80479544337327
Ge 8.926048179249586 6.030216225062039 9.864047049107139
Ge 8.48847668898354 8.134690190113448 8.132954488718898
Ge 5.834573876460398 9.137532369135855 7.6538652198370585
Ge 6.377755349470293 6.334807326855214 8.604163108749383
Ge 7.036406042665349 6.938356715497845 6.001909961849567
Ge 4.011919074457356 7.880224875738138 9.237094594532861
Ge 4.975381595178737 8.945705158682 5.122107049652298
Ge 4.433412891220311 6.789659530170339 6.723602833838604
Ge 3.1129523098246996 9.454430616754793 7.142027521227456
Ge 2.5643473874126332 7.7340263411736965 5.143083973634697
Ge 2.0132389380493243 7.022329431869483 7.65577070549611
