14
Energy = -54.75120845 eV
Ge 3.8168124615106813 10.753005191785583 4.66802353962968
Ge 4.9859208837671805 7.308167572119456 5.097094928121042
Ge 5.264111380125106 9.152116904720547 7.493198588176587
Ge 5.96428473826494 9.596950349240844 5.1119070426687685
Ge 8.049788579063216 5.464395117633993 5.629546195618135
Ge 6.500763974035011 6.752205763847022 7.431853171360901
Ge 9.083817844046326 4.648778212640873 7.929857058131185
Ge 10.604302504385325 5.746369536689153 6.220506888785162
Ge 3.237603937689823 8.781952545577894 6.1080860861020225
Ge 6.7097993097953115 4.789173955812225 9.142787811447159
Ge 8.963879288025545 7.706621338833479 6.929541001394783
Ge 8.047128125010664 7.155074592996934 9.650128746386091
Ge 8.983988960606121 4.83692445060102 10.452079497273779
Ge 10.64666080962165 6.6582154430776335 8.844704762025938
