16
Energy = -64.02690139 eV
Ge 6.741268155864055 2.236996741480153 8.080235451148088
Ge 6.904269664419388 3.6282912058706933 5.997245192588531
Ge 9.304532221599109 3.8009401718204705 7.192730862531368
Ge 7.466280821627995 4.441016219279146 9.03583819623387
Ge 5.146813653804763 4.638803197767689 7.734900510228352
Ge 5.81600912805016 5.734570968885077 5.137033588647005
Ge 8.6225647222059 5.604581979949604 5.278470325058434
Ge 9.13609632811002 6.362656997859043 8.08201406896939
Ge 4.740680506476833 7.6218746349505615 7.01571125459904
Ge 7.372945976134604 7.5330675091053685 6.537171307191798
Ge 5.92921556102029 9.179216619871347 4.799306114328611
Ge 6.5437790590491165 6.7903387672603674 9.07436700896005
Ge 4.201348078391365 10.29467940379608 6.407089685668054
Ge 6.490320540754386 9.947427329330429 7.612081795474602
Ge 6.356876521989091 11.657333465736997 5.606438929996285
Ge 8.345783838705557 9.95509866383829 5.669008409860422
