16
Energy = -61.92488102 eV
Ge 10.443717212990437 5.2500090269588355 6.648574877418022
Ge 7.946363432905661 5.856525846910113 5.760437260960228
Ge 8.8186529186252 5.714627196337591 8.556685943993674
Ge 10.100287073931705 7.549262906488939 5.441769587938369
Ge 10.825268830720434 7.532191804148466 8.12342291850779
Ge 6.548953743722563 4.341360719597292 7.632703407985377
Ge 7.10558880592217 4.647533459078129 10.245699210227343
Ge 8.5455739699803 8.84386856234633 6.8606394188899245
Ge 8.450947032194431 8.243216097317053 9.378254724371583
Ge 6.486485930610241 7.180601811441408 7.790862697263241
Ge 7.413087637926253 11.089293950048278 6.811680757565506
Ge 4.82516796783513 5.533390171219776 9.072859728729679
Ge 6.218750612796148 7.142857155291546 10.596529847589744
Ge 5.159326990761851 10.500172020569517 4.295551391465768
Ge 5.911019504286188 9.026222679803558 6.043994647401586
Ge 4.998295649306376 11.524769052800956 6.690178432775167
