14
Energy = -56.17591323 eV
Ge 6.837960205531169 9.250362738351184 8.654804985197375
Ge 5.917495747648472 5.5354581556417255 2.8829851914554725
Ge 7.582038053899077 5.469842548398692 4.907210742350513
Ge 4.82296639232254 6.977657172686647 4.757666721455505
Ge 7.227917600685623 7.761853601953372 3.580663168674496
Ge 5.218820498762876 4.239886249785117 5.1183255519322115
Ge 5.543012482173786 6.982057345552543 9.644574655805815
Ge 5.900435288635205 5.675843028795129 7.2107915439636505
Ge 7.222833624291413 4.846839879894336 9.263837142097541
Ge 4.784733043400041 8.124511951979096 7.328592084707686
Ge 7.2253535179408 7.995665005432413 6.195028966333804
Ge 8.204146001618303 7.273538881498465 9.856017177461423
Ge 8.716548168787867 5.90413740331761 7.390173790801312
Ge 9.280955472261471 8.447562134671871 7.694544375721424
