14
Energy = -55.82801286 eV
Ge 5.261571208946896 4.476122999625095 8.959099849746488
Ge 9.230514544169063 6.520296840366062 8.725478131065422
Ge 6.332959811332048 4.350049705612497 6.640120034804872
Ge 8.72423251762495 5.322570155906818 6.507594638068926
Ge 6.6999919710152565 6.503753179714389 8.419384228589598
Ge 4.291297408620242 3.920496712934835 5.2571673479834535
Ge 3.769722573825457 5.617641936987001 7.2082874710952165
Ge 4.771970240359726 6.322387587760727 4.671054846581586
Ge 5.664585026291653 8.208188133656783 6.86306466345541
Ge 9.567402478077058 6.738028842369011 4.60812062570614
Ge 8.95669512115068 8.11706219466608 6.769934091722261
Ge 3.2626145856967836 7.841133220552983 6.0920497271058585
Ge 7.140776641223552 7.351944710277089 4.619426492490457
Ge 7.2988765274155005 9.702709888400937 5.613486133665619
