15
Energy = -59.53120206 eV
Ge 6.845480241391337 3.2558768758131915 3.517805788016899
Ge 5.958963052135219 5.688558307870796 4.031553962237682
Ge 6.388645116306163 8.38629156068304 6.037882726457954
Ge 4.778466086523748 3.704539366411882 5.153119603890662
Ge 8.720661949260016 5.137394707254452 3.955388042267485
Ge 7.547682467156598 7.613718445236781 3.805417272357783
Ge 5.687202240884027 5.548173057970053 6.826614013053363
Ge 8.238704780241592 6.3454291204508015 6.212796902623401
Ge 7.332163368354671 3.568976751028073 6.086670215669884
Ge 7.288782379110685 9.986401176232382 7.73181991917147
Ge 8.078633754750225 7.694491073140242 8.481307251977846
Ge 6.388606389434761 6.486417408194059 10.166347676651677
Ge 4.019781307942761 8.527741476646963 7.125379133685572
Ge 4.218455030730621 6.423612005885566 8.685015511687311
Ge 5.562848474144603 8.687455305549562 9.237958618618055
