10
Energy = -39.49538326 eV
Ge 7.863669501951741 4.473135938228354 6.7459516308571965
Ge 6.276035001970454 5.569424353184573 8.67491676831098
Ge 5.872164371136102 6.0474575166531865 5.959022509955764
Ge 8.131674798697272 6.499218317009802 4.643635856426549
Ge 9.993281993896547 5.858459795741131 6.315190363853809
Ge 8.132577568401723 7.228482556009853 7.3803234310490655
Ge 4.17215652128027 8.043605269110447 5.778450107967362
Ge 3.918393944683644 6.157856649542232 7.698796462095232
Ge 6.695267750259788 8.66854490223556 5.47185649835885
Ge 5.702772378347806 8.252939219239568 8.079839641042435
