10
Energy = -38.70480373 eV
Ge 4.4834798231676265 4.756539886309265 3.7624957584393957
Ge 8.6830847967115 6.806794116210069 3.927072835447629
Ge 6.333043129223782 6.58033598122957 3.6421172052851056
Ge 3.038767317822453 5.257039496409483 5.881274996302982
Ge 7.832210990701931 5.771426324486531 6.1103431390338265
Ge 3.5392610886720637 3.1815837132721025 7.265916179454804
Ge 7.0647564940497745 8.31780930061857 5.691013497770784
Ge 5.200537694842336 6.709431321331885 6.168658472025186
Ge 5.662228521652293 3.9884344148944164 5.9110381491705954
Ge 4.726577491227893 5.194552793309725 8.204017115141344
