15
Energy = -60.18322728 eV
Ge 7.0976283044245765 5.565180439110742 2.636198661275317
Ge 5.31554238569208 7.5076631837166765 3.8204581759072584
Ge 4.645367066602113 4.818677142772329 3.374932324975296
Ge 7.575900284728978 6.510234272511933 4.9665814448723715
Ge 7.0646024622476356 3.486623624003107 4.256844950943306
Ge 5.10568159497595 5.704959567732321 5.873263637963456
Ge 4.716401216520636 3.0915567455108413 5.294738205875727
Ge 4.026905403782219 6.402664076701037 8.230231847333219
Ge 7.418087605979423 4.545551746478023 6.695504018363212
Ge 6.74595914126527 9.0123446439341 5.879333453360324
Ge 8.375233277258504 7.247557061954024 7.393903506577024
Ge 5.008488490039376 3.8430617417736777 7.915400307374203
Ge 4.113421136945891 8.231112123699106 6.324126686167229
Ge 6.728361769863806 5.7651185285596815 9.030195387968275
Ge 6.011574124372811 8.216849366241693 8.257441655742914
