14
Energy = -55.74177461 eV
Ge 3.2849103940018565 6.4606997031780775 6.81990328090021
Ge 7.018320110527659 8.959437193184533 6.4457202057994945
Ge 5.338872113258812 7.271022640106289 8.036435311973412
Ge 5.042949231889735 7.565071911581512 5.2042765214491356
Ge 7.732005069320254 6.6154630634469855 4.970948182663905
Ge 6.76350815506549 9.07308232970291 9.053312012516889
Ge 9.46008953222493 8.278179951738139 5.74981044567915
Ge 9.007379426209237 7.891152300521515 8.326236898121794
Ge 7.339316320121243 6.066255765205194 9.235646993109864
Ge 4.573792558677562 4.671566484713641 5.3622064951254025
Ge 5.911672856678004 5.859300194340924 3.4204362230744927
Ge 5.391422003819008 4.631002177615356 7.872442684308072
Ge 9.082784942955422 5.608016364851589 7.005828883033
Ge 7.139473496806236 4.151523007907833 5.65302620062336
