10
Energy = -40.65258398 eV
Ge 6.546918674526922 9.105733025436779 5.9574111844822495
Ge 7.793340366897924 7.522749817098218 7.648932003820609
Ge 9.341889402770045 6.113781610434064 6.233294827429368
Ge 4.778023077130504 7.2324414701615565 5.207170649429356
Ge 5.135188934647615 7.801062588673954 7.842206282879618
Ge 7.411753266875592 6.905616356905731 4.798830805650429
Ge 7.299331873112735 4.738353456368969 6.7926938615410615
Ge 6.4109034328169106 5.767612042744843 9.045934801813866
Ge 4.68118477684878 5.2379765595023215 7.053304860849068
Ge 5.8030469704315815 4.822138611979781 4.637187833158526
