18
Energy = -72.18719241 eV
Ge 7.351927383276055 4.680232231605862 7.619755665643776
Ge 6.357584497777366 7.305974723657569 7.415917536030651
Ge 5.071186738089699 5.315348724388129 8.724761890085642
Ge 5.086122984862356 2.8868624986004177 7.628053796406294
Ge 7.692096959779495 2.822668349819168 3.2624057728207663
Ge 6.548804255840213 3.411574724487655 5.510021354733363
Ge 6.3222424397437 6.040006725552017 5.247194606980722
Ge 3.9596089481422734 6.762331877214985 6.467861340427511
Ge 2.874060529117593 4.518119913164417 7.456144599328529
Ge 2.32244615578175 5.541223664064401 3.1435008720443847
Ge 3.521424144612209 7.635369051173358 3.958562185221997
Ge 4.1232979647188435 4.276134561771032 5.277811341192738
Ge 7.438339776038688 5.475612806283417 2.979792574664314
Ge 5.023589957144414 6.213970033580714 2.494418830979858
Ge 5.392036971448914 3.3331504531111276 2.5953397895742434
Ge 3.636108875693614 4.337183971090583 0.9697682769749084
Ge 1.2676586455061765 3.772021185391203 1.7741670389518498
Ge 2.97853710720893 2.7311552919509263 3.3542426687116063
