16
Energy = -64.48922989 eV
Ge 8.483930227511157 5.0746335663345485 4.295237624709668
Ge 5.695147546446384 2.5992778309793865 6.323123218753331
Ge 6.481438045145225 5.261404528263712 6.835117339475028
Ge 8.829408167937691 6.213796474610093 6.7514188557686605
Ge 8.51588960875184 7.745987925092779 4.596606286159722
Ge 5.070762952113971 4.0077334943590825 8.590150389971937
Ge 3.9940216281852865 2.8357151823366618 4.227017902910454
Ge 6.9079749649804425 8.143972587157277 6.792400767065589
Ge 5.819560296344723 4.632818486151172 4.322661452585395
Ge 3.1005690360785265 3.0597605132968564 6.887419601639358
Ge 6.1102579202762195 8.776590176708341 4.275715800356254
Ge 6.866782245910363 6.5786801436823 2.8124584396374224
Ge 4.891465645361411 6.829028399202229 5.38813034190515
Ge 2.8125391795810883 4.957620350889952 5.000868640673693
Ge 3.405801098492282 5.661713153386999 7.611180996942757
Ge 2.385922895469158 7.282679191992237 5.9424162390162705
