13
Energy = -50.66293453 eV
Ge 8.252342019919158 9.191909514343578 10.096418280787134
Ge 6.516627386342355 7.304396588712708 9.50154324604751
Ge 5.781900699694372 9.67513782668816 10.3147517055471
Ge 9.201045623869513 6.881321895780033 9.148966103540896
Ge 8.510503367800975 8.26940686385431 7.196013385782864
Ge 7.706506385785537 5.379706806108525 7.245814426300808
Ge 6.568251273685543 9.819233044357285 7.871359853097723
Ge 5.194417116952853 7.638671923304252 7.13637562587855
Ge 8.948327401143326 5.584625734410346 4.973301164594104
Ge 6.806855405200528 4.226509861004505 4.484811727760091
Ge 8.774674319116864 8.145586776152712 4.644857861534142
Ge 5.330848953323845 4.9747881309259405 6.526244543873459
Ge 6.555845459031032 6.812403600625499 4.947334341324354
