16
Energy = -63.35771076 eV
Ge 9.322465721290687 10.925051590969359 7.120929782688138
Ge 7.683768024923731 9.14470838787275 5.855753031082577
Ge 9.904550372908528 10.112777755179518 4.7978558324415275
Ge 8.369870630688068 9.352209841974824 9.056624508934073
Ge 5.74516768208491 10.062985281757847 9.913249331239486
Ge 9.148634045310166 7.557922047054955 4.271797353682932
Ge 7.781522871250916 10.295282326041317 11.51089894929005
Ge 9.005302713277581 8.086935603093714 11.566859898431183
Ge 10.470317554719152 8.388280378674754 6.655947913808215
Ge 6.2986252910702785 8.055238106655912 11.607211386545453
Ge 6.172169736036229 8.288839169200374 7.865760007675211
Ge 8.483668905925725 6.493651025839424 6.511250387016076
Ge 10.159385481830757 7.2236538883984585 9.088216170965518
Ge 7.467431958089199 6.729321015551598 9.651814203302651
Ge 6.283156103768617 5.675127921400033 7.560738375520994
Ge 8.982675536147323 4.950766462081518 8.537557325623403
