19
Energy = -75.32114603 eV
Ge 10.90340992304711 9.12026980953386 9.7325251018458
Ge 10.409851800096458 6.6334529853507 9.292264514954649
Ge 8.502153847121365 8.553415115897828 10.500725257868847
Ge 9.349324259130055 8.967324604956152 7.67513535932795
Ge 9.245123174608844 6.424232672677659 6.98242698340871
Ge 6.060142738571163 8.040958454639195 10.391299627950648
Ge 6.996323778534412 9.746956060061809 8.663113884885247
Ge 7.740869043025713 6.074407307261338 9.181743540908862
Ge 6.942431238420084 8.908502440890691 4.6674559343858055
Ge 8.016371005725933 5.224302048184347 5.057352280507574
Ge 9.228504407812968 9.903238212391864 5.213618844427299
Ge 8.369663490033902 3.752581162272049 7.268722736390641
Ge 5.233927295056493 9.030448388811132 7.0000472800923745
Ge 5.0832890980157766 6.115123852463644 8.480817875286641
Ge 5.845163645396252 4.343421785287659 6.409295362990201
Ge 6.7072871271387635 6.932926941116487 6.601482550041176
Ge 6.420018117913755 3.7924454944795856 9.000536486952212
Ge 5.078397064122826 10.713875551032974 5.02432259118462
Ge 7.2514546830936295 11.108066751808288 6.293196667159152
