15
Energy = -59.6011666 eV
Ge 6.1293835253952755 7.919278436904409 5.09223499439158
Ge 7.106896316370785 5.2156271778335865 1.6128632569586754
Ge 8.600628511733833 7.457693705645726 5.855577012221413
Ge 5.313816770928212 6.467001175926148 3.1160044690275175
Ge 8.132472154848601 6.429824145684243 3.5586055187347894
Ge 4.491356570235903 7.4075519802460965 7.2007266753305155
Ge 6.771970061680676 6.022625218509755 7.11602919294723
Ge 6.720286787739113 4.045180749272647 3.8038639421328373
Ge 3.6768615996243974 7.932827233333816 9.430615776649121
Ge 6.498025897742693 8.084406131733124 8.980755645533964
Ge 4.614924668967922 5.427566286121971 5.375360466141791
Ge 6.2156325914532715 3.5690082507962035 6.281239046241065
Ge 8.63845686771178 4.706316881950587 5.649516925351415
Ge 5.469696898046826 7.22613445675387 11.114224429872714
Ge 5.111507894489537 5.532556892056496 9.241934451168392
