10
Energy = -38.26806129 eV
Ge 5.5243252494312 8.244686533801248 9.64630661029536
Ge 5.880652764953171 6.289280290864627 8.187127239881914
Ge 8.087130480307618 7.399406769436597 9.063600678657375
Ge 7.64968906317346 9.857034426116812 9.049967072836957
Ge 5.57767313741272 5.937713170771919 4.747972562429124
Ge 6.118357944617577 4.284719104024608 6.574347274000167
Ge 6.4135963520635935 8.771981287531883 7.109426080262195
Ge 7.966588041836903 6.834235456100547 6.432656518994637
Ge 6.981674256767696 5.84347055692208 2.780916823095818
Ge 8.11784544426793 4.897237204081452 4.82626219271309
