15
Energy = -58.19390349 eV
Ge 8.34691945821844 3.380633275765291 3.816432339511776
Ge 6.893404546704381 4.928834021270859 5.001776798243696
Ge 8.625900461398896 9.312610701130167 6.269707074994152
Ge 9.597430115046025 5.157394174812832 4.862799755321426
Ge 8.164471652448002 6.84415602666125 6.064965953620911
Ge 6.766875176406994 10.965344544687753 6.101748440873626
Ge 5.771244051358156 8.835355418444216 7.105265029921869
Ge 7.62221032461822 10.804840497776452 8.491462775623193
Ge 5.6124691134952895 7.19467739867853 9.116521894455223
Ge 9.821283410696392 9.303932819533864 8.698835165957208
Ge 8.447716863647747 6.742945253319593 8.560871718830608
Ge 5.46504350592065 9.989458197663978 9.65634520405566
Ge 7.468411953499549 8.725529596886524 10.571106905282063
Ge 9.747197699778065 7.556972508272397 10.727498940763718
Ge 7.402278049753253 6.010171948086546 10.707518385535414
