10
Energy = -38.39679647 eV
Ge 7.988356463527315 6.365929043606312 7.399562264831784
Ge 6.024569863468841 6.845672492756964 5.719951425856507
Ge 7.370506474488029 9.16907581349017 6.44667565209833
Ge 9.82904963756942 8.594020219955212 6.823697939246247
Ge 5.560899339136845 5.33760709069271 7.894290694039991
Ge 8.037109740208553 8.458484841923651 9.099891256448814
Ge 9.65682590195279 10.342329030807544 9.047338621213733
Ge 5.564662279097692 7.949356373235685 8.150906711657866
Ge 11.722665592647035 9.328895911437241 8.137404589106124
Ge 6.869456316471441 6.232730790662038 9.904382454068443
