18
Energy = -71.0670988 eV
Ge 9.435295023294165 5.709350141174925 3.247927977599204
Ge 10.46127435964826 7.759089066035863 4.183534872201827
Ge 10.82804989846291 5.3919549833741405 5.469597249025426
Ge 8.011883720491573 5.9020493423754 5.339101999332849
Ge 8.02641212223277 8.56783147136265 5.552159536833195
Ge 9.873375037755558 10.138665186012142 4.6692172512184875
Ge 9.698845429418682 6.7323982611977895 7.310515081650955
Ge 10.369756626920235 9.18397162104746 7.025377374658638
Ge 6.048001866533054 9.373142660555564 7.242061033536217
Ge 4.2252543898364054 7.338329826635362 6.770753415180333
Ge 8.230067193396925 9.119232126207017 8.526199114482116
Ge 4.683225212679236 8.112349584038816 9.446101110936358
Ge 6.706366743056923 6.685575362156832 7.87286899710859
Ge 2.3555730909951564 7.1110853192394705 8.647148199618558
Ge 6.0022300375185695 6.173889398171935 10.62327750225053
Ge 8.66636725796425 6.796081071007714 9.732494072620284
Ge 4.371240897347501 5.364430450922455 8.694534114661364
Ge 3.249863564760223 6.372743525049196 10.926602980100617
