19
Energy = -77.17216626 eV
Ge 10.444887073573915 10.802865831906905 5.173073297901914
Ge 9.442485677018832 11.576349453851748 7.567310926389989
Ge 11.772345550177553 10.285378100022418 7.351277641277558
Ge 9.33966330688291 8.996863482267734 3.683474534653478
Ge 7.723223129423515 10.646371762633729 5.0724198982685
Ge 7.287161170437217 10.016078484548581 7.556456767102693
Ge 9.717168051160984 8.880128426404431 8.034418094353166
Ge 11.067353243461787 8.217885939148545 5.711131546045305
Ge 8.79151303745503 6.898097174176931 9.675696581612442
Ge 8.312606132756745 8.119243458070182 5.870741656527173
Ge 5.153537272681889 8.051796860192738 8.46504859799303
Ge 6.444325161097257 7.139027993534481 10.581107714937517
Ge 7.630995717209404 4.546280726415837 9.872002665912108
Ge 7.187281353019506 6.495351030593729 7.624029724707396
Ge 5.776003185595913 4.924253717496921 11.667408546257983
Ge 4.692740888015911 5.639155878302099 7.3689193002132125
Ge 6.845455574234082 3.9263217559324968 7.413384332126589
Ge 5.041154211967518 3.781555570950505 9.316808749331143
Ge 3.9757329203859735 6.137701215162741 9.984878513116795
