18
Energy = -71.11816756 eV
Ge 4.634751852402355 8.303347805738133 11.083553626747312
Ge 3.5861301485937442 6.007368001885928 10.722570429756423
Ge 3.8517352094299593 7.255176346603772 8.561908368891674
Ge 5.391606909536603 6.789988777255324 2.948894549205846
Ge 5.042135671684608 7.6925454151579356 5.476457985969803
Ge 5.7527803279953185 10.125302961311615 4.9964019799245625
Ge 6.004347937737511 8.661751346632757 9.083235681055063
Ge 6.105311698528146 6.128636832424389 10.05327038030388
Ge 7.2040181915028985 9.050358259766368 6.759520526834351
Ge 8.95140582722206 5.638094402202813 7.706784896426946
Ge 6.377275783619172 6.416614667171954 7.399950873671763
Ge 8.95625838738954 7.703615041359801 5.435892691590921
Ge 7.196873462757783 8.46065526584997 3.649942380716535
Ge 7.060841645999342 5.553449443866791 4.223765838822909
Ge 6.826871545143208 4.154066723943368 6.349388447973235
Ge 10.945381439147155 6.4735383947835805 6.212813656818183
Ge 9.141914469988153 3.2073003004844627 6.889519977989399
Ge 9.431311087723651 4.840935624880983 4.905814674112081
