17
Energy = -67.95187473 eV
Ge 8.68837613763948 5.4746603428074465 3.468808107877918
Ge 10.307707736789508 7.109259848900752 4.7779047525606995
Ge 9.762210051628946 4.5014533212951475 5.72104558993898
Ge 7.854412323828242 8.105040044718999 4.570320976457458
Ge 7.183012038379061 3.858669032884748 4.955890790024068
Ge 6.213705875763563 6.197415096315125 3.5339131924897442
Ge 9.161892501917569 6.827861642115598 7.008306293740243
Ge 5.290899828904969 9.117645615962697 8.170380612794947
Ge 7.7335156600778925 4.612550692877531 7.550654579077366
Ge 6.411548573861577 6.235217277400752 6.035407722539404
Ge 7.5280782945647395 9.266856035542133 7.0490804438522146
Ge 8.929011212917336 8.479915722855772 9.005557352853618
Ge 4.352265775017586 6.7469660272102 7.531369538991848
Ge 6.8962454976918535 6.948335989245922 9.078354231432849
Ge 2.830465646701723 8.880849352441881 8.278807245061888
Ge 4.600014883279859 7.5834213692051975 10.24967957481851
Ge 2.5841364872713446 6.381178387433964 9.230214477908346
