17
Energy = -67.02151711 eV
Ge 12.719661175848664 9.036824715983805 8.989851896820472
Ge 12.574578138397287 6.403262413619888 8.937679880860308
Ge 10.843416071181828 7.8872715957347825 10.306152363091677
Ge 6.863540153256891 6.585877613158322 9.911663313320753
Ge 10.999238020518249 7.919770085177691 7.425494940438133
Ge 6.870837765793073 9.397759382451929 10.056169210713719
Ge 4.578102698485666 8.089905219744383 9.932797644491021
Ge 10.232634072611202 5.6433392757295415 8.779928443884065
Ge 8.752510487990625 8.109896642038285 8.817041153851342
Ge 7.395217663447834 5.74222222144308 7.392597584824007
Ge 5.197557124937464 7.502950729044485 7.610562955817956
Ge 7.6243971742086405 7.804567581643164 5.85629358459577
Ge 7.532003973331411 10.094960736826978 7.276033274368074
Ge 5.0327140552146865 10.215601500634614 8.10690653755928
Ge 5.285400770881363 6.354602375781699 5.397780949330647
Ge 6.363959266215956 8.02278860461565 3.719462432798412
Ge 5.013906642906095 9.239139369880103 5.55471964873976
