16
Energy = -63.44164614 eV
Ge 8.383385210984656 7.218077645071907 5.506396969783494
Ge 8.668873972847244 9.58194905198842 6.553449549271703
Ge 7.52043127387357 9.381924224162145 9.258971500032368
Ge 6.572780250265437 8.180141760643936 7.210467101025572
Ge 3.8991623995797395 4.528067740639496 6.528580539087965
Ge 5.882317102887671 5.8936684418227605 4.6298077596829454
Ge 3.3541286224328215 6.567051383496123 4.84972226264891
Ge 9.567223043458574 7.961888917598836 8.258717399638691
Ge 6.427830821451373 3.87730346464591 6.158622508790746
Ge 2.2587678276912087 5.626088274264978 2.8153633056252305
Ge 7.503091543595553 6.758063698797418 9.783024177228576
Ge 9.770899901296618 5.641310364259658 9.31901338797999
Ge 4.790736174436898 6.045977366404609 2.3915221957825783
Ge 4.0027560336063415 3.9817149849461715 3.9163745204756446
Ge 5.658453427732336 5.947403861277098 8.041464811492052
Ge 8.248539108737011 5.380060408288437 7.350413103963698
