17
Energy = -66.22270215 eV
Ge 10.454872982073864 6.595630473298026 8.72434194449265
Ge 8.591321701397309 5.55112190188182 7.202699592366316
Ge 8.22616811646939 7.56502481407183 5.435977878110631
Ge 10.554094831546095 5.478075662611289 11.054267304527045
Ge 7.113159506361409 8.91631446607355 10.25637943364595
Ge 9.268459880353188 8.879844182753942 8.814930143753653
Ge 8.356333967756282 9.905416157657662 6.575200641099295
Ge 9.012641517939745 7.558711155883666 11.233273997359232
Ge 4.980332816169597 6.920897629942269 2.5794758681548235
Ge 8.264771311656279 5.261473572670018 10.06614079636073
Ge 6.855649855099172 7.582967086028065 8.041283992344777
Ge 6.6125002370869534 8.707931547315326 3.6262180039030594
Ge 5.854420444316881 9.30161169099906 6.133441130954709
Ge 6.400168671608287 5.002900055110087 8.415626639036605
Ge 5.732384060358521 6.304007378925526 4.918106097017966
Ge 3.9239684122665115 8.33976589914919 4.4872148447937175
Ge 4.282489339730411 7.191585928165267 6.890986564395494
