14
Energy = -56.75159448 eV
Ge 5.619764357066755 4.927866644156824 4.968061191825151
Ge 9.53532559384816 8.137746658293485 8.314426979079155
Ge 7.214632392884313 6.942277373391655 4.108851218596769
Ge 4.8674629445563795 8.132601109879491 7.7700587766575016
Ge 4.662149610580216 7.349515788985268 5.136735126068135
Ge 4.411902730771411 5.470820371148731 7.218471457326729
Ge 8.192559604362954 7.358366295618106 10.38264024474045
Ge 6.83881684173236 4.115207794239313 7.249893846621076
Ge 6.766978540167767 6.4197009748815 8.447895493756752
Ge 8.55184124961631 10.249427438712305 7.193446615918496
Ge 7.11625858556476 9.284996482973444 9.081397130763678
Ge 8.228165401216112 4.4885150269913705 4.8914189565977395
Ge 7.025142059508688 8.394760509037557 6.257154485559385
Ge 8.618042911937403 6.321115168922677 6.575264560074842
