15
Energy = -58.36594475 eV
Ge 5.340086643100682 9.947421285333002 7.902768409980095
Ge 7.449460005013167 8.952588768353856 5.899035878979391
Ge 12.61073102972742 9.89758024722702 11.396222130976309
Ge 5.143063500887763 7.639358066577722 6.544369165549806
Ge 10.797032234177392 8.755410938132684 10.264298234204526
Ge 9.823231202784491 8.6814968705299 7.742317619018752
Ge 9.15424415692995 6.180306853087118 8.366695179088783
Ge 10.492380740400794 11.107130440402672 11.671954078635652
Ge 8.988267247697657 4.532280505740972 6.4528105985558435
Ge 7.193392789140311 6.18569652356743 6.035481596341301
Ge 9.75021831407992 6.958506679312675 5.757018942148351
Ge 7.789624170842282 10.50399194376299 8.276853222849807
Ge 6.874707525854462 7.592485768908899 8.563525339082792
Ge 6.139651228477988 9.216800876860567 10.374492555235927
Ge 8.561839565810134 9.898809386403832 10.628165447673169
