15
Energy = -60.77855702 eV
Ge 7.537810368456955 6.767851033839816 3.407599687693711
Ge 4.9114399863978955 7.598831646489112 3.5031615180112667
Ge 5.584683574456959 5.063831909967479 4.128673653760071
Ge 7.626768690330062 5.863645323314478 5.8255431425977475
Ge 6.943966059288662 8.533902617950327 5.226019851983835
Ge 4.455229766247716 9.034316256259913 5.810999825507062
Ge 3.6761558861441683 6.466638146252521 5.61485538123152
Ge 7.934810010759008 4.162511620478865 7.996469308485476
Ge 5.598414441111702 7.348527068885 7.4041542751709715
Ge 5.4101655818647325 4.670713659091884 6.89304436358145
Ge 8.649020416330403 6.164230790037199 9.658839023263578
Ge 9.829056001425876 5.884325446717962 7.181310305216139
Ge 6.732239578793725 8.145705541746937 9.583952350429634
Ge 8.340610984450434 7.992314380912622 7.539771131627205
Ge 6.023037292114349 5.556063196228985 9.479014819613282
