13
Energy = -51.69707858 eV
Ge 4.209659132493886 6.7065715544395355 8.399172824615704
Ge 6.360365315844337 7.6087315973864795 9.536498572904806
Ge 6.388872906498535 8.111636140638023 6.917143960226458
Ge 4.987909676159004 8.275331068383654 4.692282094366195
Ge 5.859522885169733 4.999701045997716 9.744128755908799
Ge 5.048340332902746 5.865424927741353 5.717149940543978
Ge 7.6759466043363425 8.476503655443384 4.528208757126702
Ge 4.384093590266172 4.210226729952196 7.689390253413254
Ge 8.944709533457898 6.905208843023524 6.469590285262726
Ge 6.3910871053358775 6.329412758138774 3.3963037406147767
Ge 7.525897578066254 4.539048865226336 5.228513418352685
Ge 7.035267866996036 5.534449290433757 7.588949705538808
Ge 8.998722818155912 6.247999183593459 3.964666998469587
