17
Energy = -67.13041566 eV
Ge 8.486410489440258 5.632512867917685 9.922005542250293
Ge 7.170179329794734 7.1582816715126505 8.230030617830117
Ge 6.185802908692983 4.758131885246118 9.251345050442511
Ge 8.383797065511676 4.561218832468499 7.620480599546432
Ge 5.513519430187749 7.891454416374189 5.063282921031255
Ge 3.5741263275876904 8.459736735236026 3.481763229490674
Ge 7.700034162870104 6.535106147148604 5.699139023643529
Ge 3.110595489092904 7.793310510491683 6.171054403124348
Ge 5.1476182793117315 6.057211025870835 6.960740186256887
Ge 5.534290715506877 6.752482139836479 2.579550896250495
Ge 6.986340693782006 3.7347155922741457 5.3800218916196485
Ge 7.503975990176301 5.242943381337784 3.30038207241559
Ge 6.297220511931546 2.70866299911152 7.6112736791612035
Ge 3.0130309407657387 5.929481640298185 4.4272179164750165
Ge 3.2605792451063778 5.694896066326215 1.90846779598339
Ge 4.308212831161483 3.8825966411910056 6.053295255626854
Ge 4.887063996110722 4.166424625690814 3.407977826179093
