19
Energy = -76.31852827 eV
Ge 8.045756053402421 8.416216807933838 4.484179834809581
Ge 5.860434787076656 7.175165183329689 3.4638097661658405
Ge 8.293637679505597 5.934634533751796 3.525895171444673
Ge 9.636141558555792 6.6300555827423695 5.827869651879603
Ge 3.6991161168538538 8.020295951930489 4.943698350234171
Ge 3.9740213137420524 5.446322996223122 4.316202301515914
Ge 5.816300762644107 9.399258677898526 5.841905846104227
Ge 6.423119367040459 4.1146738308039685 4.178511350823916
Ge 8.99894256095088 4.051538132540622 5.253554273358542
Ge 7.2267730123016065 7.175646363336686 6.830755378455314
Ge 8.867319381098696 4.934532249803535 7.90851804271141
Ge 6.157196119944912 8.81600193385549 8.669270149411231
Ge 7.039740394962651 3.0801140435379915 6.831294667721901
Ge 7.374930949193019 6.691685026869428 9.580888916963081
Ge 5.594266782673245 5.321654434358534 6.578434937745211
Ge 3.729601737101463 8.643762451494759 7.516620780131269
Ge 3.0659858338090684 6.103376285178676 6.823469631966068
Ge 6.410558294413849 4.286272624634714 9.059024517323339
Ge 4.618482013175183 6.50922385153655 9.120818935187438
