11
Energy = -43.40908594 eV
Ge 6.872099429635612 8.827077607530251 8.508353374569298
Ge 5.980362451253099 7.903509389519703 5.649197165956324
Ge 7.82953664152933 5.8163950035733425 8.600544326715612
Ge 5.324172388180106 6.164842556543037 7.746078011287786
Ge 4.970763383133547 5.5888010425675745 5.169375805384872
Ge 9.02646756186033 7.470161563867864 6.682780418474841
Ge 9.512075609627543 4.946609241530266 6.727543103330473
Ge 9.04416407140868 7.959134296927312 9.289446618740076
Ge 7.287674600285254 5.223556781301651 5.797861870840991
Ge 7.777188308647859 9.630456099330118 6.17921492239862
Ge 4.534347966547083 8.595079012359754 7.757518547689283
