13
Energy = -50.60635702 eV
Ge 9.620085615146484 8.173836525313837 9.76496309811108
Ge 10.602632434648493 6.855699358692044 7.480956651296102
Ge 9.122349167652118 9.182337636833239 7.467583972265471
Ge 8.837761823153247 5.638406666738923 8.872187664171083
Ge 7.104880689027803 7.84445790085441 9.087480150950567
Ge 10.006415771757071 8.036723226279763 5.179767408790762
Ge 8.323476618013707 10.125722507500846 5.247809771055596
Ge 6.584286971252668 5.4015751659507645 7.820439356460547
Ge 7.870972351958931 6.905715486469335 6.011561089145691
Ge 4.236727504108329 4.704160568182761 7.621119940241967
Ge 6.433670736447462 8.988638603909177 6.610630627429426
Ge 5.058318318876228 9.33749927516625 8.794408246373415
Ge 4.398808356839162 6.9338450314963005 8.427223301315069
