18
Energy = -70.43144298 eV
Ge 10.475475712254093 7.409911269120008 6.921949297294354
Ge 10.379527072796405 9.851987312776927 7.688161280739642
Ge 9.43300416893599 6.070491066018788 9.037794805397997
Ge 10.231729647211008 6.028071269083683 4.738166522066382
Ge 8.164282280734971 7.3805698848885015 5.018465531435755
Ge 8.854696875710024 5.077416857112627 6.696173724314844
Ge 8.309023837258751 9.636083628275037 6.157780067882229
Ge 6.424994376999811 4.0882132725173195 6.030807744881676
Ge 8.35999765261708 8.442916686008527 8.553355365083608
Ge 6.752241529400292 5.57003819082931 8.51208500235316
Ge 5.817258268759598 6.599811503957696 5.731429961891311
Ge 5.013644675967305 7.627658722592916 8.517624609133517
Ge 4.118516987637739 4.979617571414741 7.437464343358636
Ge 6.249217840166583 9.957640511435214 7.768011870109036
Ge 5.573247502913503 3.2844320328282994 8.443622685065346
Ge 3.5754385730503215 7.146818480857176 4.495047736313133
Ge 4.528233320219956 8.891101865624528 6.155158807329566
Ge 2.689985745311376 7.04726313135544 7.103594010536463
