19
Energy = -75.58087706 eV
Ge 8.899198220980344 6.223044758581016 2.7649636979769263
Ge 6.836896499889082 7.610026722028953 3.2634040740638253
Ge 9.340183181709962 8.427254344708949 4.134953240366647
Ge 7.33028261909681 9.855620450837113 4.950872845185894
Ge 8.021581953672689 5.611530078322211 5.08031484549391
Ge 4.964716982102658 8.966998450873378 4.221744599850889
Ge 5.735091133755303 6.967809122520567 5.658556980755184
Ge 6.287614650995337 4.01000137713813 6.262206387241837
Ge 3.8384085626829245 5.40595564650759 6.474947649562864
Ge 9.317925338385196 6.091322901143049 7.261876981622508
Ge 9.259867566072204 8.60117490412716 6.664696530649619
Ge 6.960898473216993 7.597999891449608 7.701667732019086
Ge 2.9459039708557895 6.206129452792896 8.717258372557856
Ge 7.370532134362231 4.808935311250081 8.396091524982728
Ge 7.468761170430483 10.18734432008631 7.530925264674986
Ge 4.0517084836888655 2.851248501264597 6.5375529635588485
Ge 5.362454959423759 6.621575382911428 9.507488465175832
Ge 4.3545293460489445 4.046714397735147 8.85381776067653
Ge 6.2534658008490505 4.509335033940447 10.616681131802949
