14
Energy = -56.23337728 eV
Ge 9.262961424466639 5.072149796470529 6.962584845203604
Ge 10.479144651975007 6.6690330583894415 8.875709217693865
Ge 8.43147104802799 5.108321075057661 9.426552151997363
Ge 6.616801051579158 4.848880073531288 7.542909585197099
Ge 9.1207702828562 8.065268621572725 7.185983568086403
Ge 7.432471879288202 6.73867811991608 5.72344878439541
Ge 6.1444143671975455 6.1911454633593515 9.970749325435342
Ge 8.306459251528162 7.908464208800724 9.86528132679677
Ge 7.4248819275173386 10.180259396355444 5.900035330522176
Ge 9.738714182564982 10.573156949725341 6.8566344765359934
Ge 5.479130168750299 8.504261617301738 5.537335958410015
Ge 6.321949561983176 7.7236475839073835 7.948330140869188
Ge 5.506466296859305 10.320921225189664 7.694908301767345
Ge 7.878540328826133 10.304977955248981 8.608381335419011
