16
Energy = -62.97376679 eV
Ge 10.17751232736357 5.262172919427611 5.874134376844065
Ge 9.900993943174909 7.357503319747867 7.520894115604634
Ge 7.740135678442085 4.027279091734402 5.943226842114864
Ge 7.834856592171353 5.223340696682952 3.7683847215696047
Ge 8.655022272355268 5.3972036075938155 8.229448238765602
Ge 7.043200896415275 3.443397961023117 8.288522305664513
Ge 8.0815821349022 6.910606268819022 5.646274506068542
Ge 5.1598876762453685 5.945912961032827 3.184336264370655
Ge 4.489625485194295 5.068259540837917 5.456042526506205
Ge 5.4250875182927585 5.454356464697963 7.805053785588264
Ge 6.31263725952128 7.756786484151906 7.36567019778739
Ge 5.148150104734867 8.00849046044893 4.618521861789602
Ge 2.063976097350337 5.322515673098888 6.450501480330324
Ge 2.7526493210239718 6.884731444383122 4.493599662056605
Ge 4.441313121079026 9.448732591639503 6.524802266406576
Ge 3.2963316170962993 7.314104202759567 7.2528556175717
