17
Energy = -68.38344387 eV
Ge 10.37586882323277 6.433391076423383 3.735833074393834
Ge 7.940011246137109 7.512184896002742 3.9250776244091483
Ge 10.381818499566538 8.512497783967026 5.167844884351188
Ge 9.367700768819855 6.122196545150694 6.030632290623874
Ge 6.228896708941985 7.527678015749583 8.172020835266968
Ge 9.966396749438958 8.017769413040174 7.74119850715064
Ge 4.40142925899698 5.810925923711141 4.764083074537183
Ge 6.534540658746201 4.953439311328197 8.647485917570146
Ge 4.336454183191359 7.949276296096225 6.362954109482006
Ge 7.996162800708557 9.00117511975804 6.075139844411852
Ge 6.626900963136601 6.205370360195538 6.031951952912265
Ge 3.976588007902422 6.726178631152752 9.079229504645365
Ge 2.638123978566996 6.082957463813271 6.910103848940591
Ge 7.871315454095908 9.48545783002825 8.509775301693974
Ge 3.284805662162836 3.6783114090836193 5.9603917427605095
Ge 4.098708115377469 4.167049998061831 8.455821374551915
Ge 5.88759052745265 3.7471982847504184 6.362020271830107
