13
Energy = -50.95387646 eV
Ge 8.0417733167544 8.415109144322214 3.927093176327954
Ge 5.835880742415935 4.706395607894036 5.216135531219958
Ge 7.4276726506979225 9.591026875671732 6.1741219637612526
Ge 8.177609250162295 5.782019479731129 4.447144754881462
Ge 9.192411903841638 7.596155666104971 6.2603263902973
Ge 5.984331999805724 7.45870149585022 5.21031751958543
Ge 7.937450912298094 5.011538441436641 6.936224243355951
Ge 4.929577482391881 8.693762361003857 7.280934868591316
Ge 4.0610554138272414 3.783334849876197 6.727540086897006
Ge 7.03555655514448 7.56558051159244 8.107331654856107
Ge 3.792961034738617 6.36582679451828 6.6797187935669005
Ge 7.543324926859732 5.461466504975652 9.440724828210698
Ge 5.2943461768400955 4.9915360617815026 8.49098139844702
