15
Energy = -59.27123781 eV
Ge 6.204365910549892 4.017596864618575 3.214147464000199
Ge 7.665563221865734 6.011434336998807 4.243589007892981
Ge 6.91539904869925 8.5146804266203 3.583033133527452
Ge 5.538596825076974 5.034310522456438 5.543551689501915
Ge 4.623123922656305 8.679959416843802 4.819943166010002
Ge 3.601706890179265 6.591006472690092 5.876865508054753
Ge 7.299621921467667 8.250985626488179 6.014437605590184
Ge 5.671072330398465 2.4229986318031584 5.213599408788498
Ge 7.943385386742677 5.616048795246326 6.974382527771323
Ge 3.1351121586147244 6.838418498362276 8.37469612812288
Ge 6.618331159172937 3.2449762708510557 7.4433962447656326
Ge 7.0315898057599595 7.878131218315056 8.52967510690147
Ge 8.207262097380752 3.43706525801727 5.092476085097347
Ge 4.786179528582515 8.53259351671339 7.454034640835141
Ge 5.490261916844063 5.661366267967053 8.353744407132469
