12
Energy = -47.6022222 eV
Ge 6.150907520674871 7.675955302830286 8.030382426718967
Ge 4.597469410951801 6.436849977956977 4.244816880137862
Ge 8.93667999396836 5.9287484213486 4.8211847549716875
Ge 5.975800992366891 4.966537341825043 8.218356775433666
Ge 5.048052495055151 4.174902573170131 5.763971978662266
Ge 7.699479668016658 3.977011583966534 6.275125280733406
Ge 6.687604831185373 4.9016261116154585 3.7544133427085282
Ge 8.395495332330638 6.3015189021760145 7.499227998016949
Ge 2.6931215283502676 5.104540561772725 5.3449309183321745
Ge 3.9923325989334657 6.493874200316008 7.066287942308535
Ge 7.039540877551347 7.453680946044819 5.430435791455276
Ge 4.909785314239451 8.710250111414839 5.655487865047478
