14
Energy = -54.96839227 eV
Ge 8.00500744467857 6.787348816454897 5.360272579685032
Ge 7.956633084240025 3.9911595676489138 7.025539786868094
Ge 8.477219499434918 6.378564785589951 7.8287387395574
Ge 7.209146542814988 4.57984580754954 4.330778070145564
Ge 6.749559203616705 9.04901533077813 5.229652364757028
Ge 4.899927785108226 9.284328595505524 3.359188220444709
Ge 5.9522399877393966 2.8589154403975754 8.23665286905754
Ge 6.471101386803986 7.015585247578606 3.19556127193229
Ge 4.393955878737721 7.434690909731829 4.7861791598163785
Ge 6.222368544030041 5.196213920519028 8.979019130615235
Ge 5.435510145966213 4.5127376191661535 6.246389680984978
Ge 5.9439909530616095 7.678443961090166 7.3301405466192815
Ge 7.094735954424643 7.5409425068441145 9.613712724839827
Ge 3.8087463579388916 6.252943781684374 7.035256790496062
