17
Energy = -66.76953679 eV
Ge 9.165406302034206 8.750880433539384 3.666252182497239
Ge 9.726696309795178 7.280627416985454 5.586325278681888
Ge 7.675835844888496 9.089103321320657 5.691404634495619
Ge 7.462466793852153 6.82307488826248 3.667017463939935
Ge 10.675119676653607 5.150473119162451 6.47417846703823
Ge 5.6773856380623915 6.998977909383213 5.544593358194947
Ge 8.518927330739672 4.724804280246798 4.85418301367883
Ge 7.028661249393693 7.583937427421323 7.737375836601846
Ge 8.366846061969621 5.435864421680653 7.475431436268568
Ge 5.688927714375972 8.658328199952106 9.660921445177502
Ge 4.151925429486955 4.729962741267472 5.6594133841065135
Ge 3.1522958461734647 7.305896071965021 5.5005608892561835
Ge 6.563190411808296 3.4971115518296187 6.104122832349333
Ge 4.160154817896811 8.01105756756082 7.7780347413331326
Ge 5.603655146273965 5.006892249790306 7.905057932541188
Ge 2.7592254375561436 5.7081779004865485 7.800398875917076
Ge 4.495559272137069 6.2126216467966895 9.82013546277798
