16
Energy = -62.18988228 eV
Ge 8.758115864561695 3.4809771684196176 5.332323422933452
Ge 9.10804353039027 4.077360992202398 7.842059211850261
Ge 7.164565914502238 5.272543700313849 6.05391660021289
Ge 6.753019024506184 4.635373747661776 8.70362213992616
Ge 10.01938483432787 5.685955587836977 5.842413807579417
Ge 7.9884741562052355 7.710332474702784 6.017229335875486
Ge 8.789087093062928 6.751750176683594 8.515448927785767
Ge 10.422626658931451 7.974497569527436 6.721396303669193
Ge 4.747815409367101 5.026044103184692 7.058846608655094
Ge 5.8814139756679715 11.30055414200063 4.959048695359601
Ge 6.625586541690313 8.403509241119789 8.265343727209737
Ge 4.2136985974917485 7.547904358464971 7.126060279457859
Ge 5.7494391160783955 8.839445598870327 5.5664369397288205
Ge 6.042003436344108 11.089694082507634 7.317745200709818
Ge 6.908271047501246 10.5774073113441 9.508022892122076
Ge 5.1172107916265315 6.532924549488178 9.400077450783424
