10
Energy = -39.0492342 eV
Ge 8.27390089297598 5.330529407781816 5.559672729395884
Ge 7.860185303958228 7.311082299491121 3.9311801630003833
Ge 6.657064003530914 7.517321636844507 6.098294859387141
Ge 9.346456531789626 8.14586460195283 5.919059584646355
Ge 7.676673402791218 9.156600706240265 8.199678794218432
Ge 4.942660189842428 8.494376363503639 7.649556252011818
Ge 8.72841875260882 6.515817071517321 7.746112076838573
Ge 8.186472561687665 7.01537717494425 10.118253196529682
Ge 6.063931784661359 5.971914356420752 8.390890105780654
Ge 5.8744237847634375 8.15130358991317 9.997489446800628
