25
Energy = -99.50205733 eV
Ge 6.824492189686658 4.47604159442453 1.3682542749979456
Ge 5.2167269509419985 3.1902493082061136 3.183820146839973
Ge 4.568674907462063 8.101735995445205 3.7469169949301833
Ge 3.136152647284445 4.791792657900125 3.6694955660814137
Ge 5.670744495155469 5.864427362529746 3.213093438162545
Ge 8.487888824461928 5.290851190910629 3.141891343488066
Ge 8.347412358461742 8.372264008136177 5.7589975374436175
Ge 2.1697907506292453 7.075794231584652 4.275407090519019
Ge 2.8842848628606035 2.309767737363168 4.142330624971631
Ge 5.72222773200725 8.052133259509258 6.097676798108557
Ge 10.006782730545332 6.9397755475924425 4.3585348496214555
Ge 9.583009668637208 4.065982631743294 5.140268607174115
Ge 6.845093598621356 4.1820897945091 4.966683313103967
Ge 3.8161299418779473 6.238362262831211 6.00461846942933
Ge 3.8445118364819466 3.413171661504799 6.192941403923315
Ge 4.608649579931963 9.191235889544268 8.187948180094322
Ge 9.509115703760205 6.0800052956166715 6.8490874645188216
Ge 6.717451159126243 7.7896048698349345 8.87757686192692
Ge 6.9955299193531175 5.911588828001654 6.910819630281659
Ge 3.704484026693645 4.9142620262466465 8.455393169220162
Ge 9.2111087569549 8.3146621364121 8.186017691687509
Ge 6.152968994477716 3.2372190996690238 7.2989553509933645
Ge 2.684118920162844 7.432443538457791 8.043522289847205
Ge 4.492420495169229 7.119125816890035 10.048024296730466
Ge 6.237623535647125 5.082807841528354 9.319119192296053
