29
Energy = -115.24036614 eV
Ge 11.666766208771774 6.673619855497271 9.694882003604814
Ge 10.12318304294713 11.155209323085314 9.46582948389636
Ge 10.373328980689287 4.31318814415156 10.262560380926963
Ge 9.904131527442553 8.555225332148073 10.099868981263647
Ge 9.912554546663612 6.55093344192745 11.765907846012807
Ge 7.672113713148354 11.943752285601102 10.26870520272828
Ge 9.528480106365983 3.6162369375054713 5.805782990974344
Ge 9.968859545477606 5.2002863357181734 7.858806137692136
Ge 10.365984363042296 7.748382885280743 7.524065561694749
Ge 8.144415612555639 10.593837638322652 8.008578075153011
Ge 7.505310057289219 7.307111700611424 10.80454437137105
Ge 7.841554254482885 8.0309070473854 8.178467892089937
Ge 7.835681068849049 4.695405475058117 9.836015318732322
Ge 7.472756064236026 3.787551319106671 7.4176654163309275
Ge 8.022833416917356 5.974471451547414 5.577911697844412
Ge 6.5801599019907435 9.702150718509467 10.127722319292973
Ge 5.74905365020198 7.842680455785215 6.412610343251834
Ge 4.150332813034515 9.958250804343862 9.500288168363674
Ge 5.711710184770247 11.939775013452516 8.276778197776935
Ge 5.8199086541739335 6.121869868692011 8.632629161468476
Ge 8.816126451061795 7.762887870771439 3.8747446955252234
Ge 7.33621706849524 5.8527007354347 2.8518470793217388
Ge 5.343420309676407 4.894322182089474 6.260821061445229
Ge 3.730693049106183 7.718689332363054 8.172688332460622
Ge 6.989751487173821 3.8143334929012185 4.557985441158205
Ge 6.514226351112813 10.386243787035188 6.010733529468137
Ge 7.39768541939804 9.994285907689031 3.6174940758867553
Ge 4.107842355470271 10.11750297974352 6.8389212415437175
Ge 6.046858914618728 7.843590232578773 3.8068224028055653
