29
Energy = -116.27714055 eV
Ge 4.145126647229647 4.538007760520883 3.5017964494516067
Ge 6.741287100517834 5.957848681592482 5.8231834793054675
Ge 3.249278958875866 7.564838344664433 7.287912354844019
Ge 6.50443844446487 4.534351073191 0.9927576927226337
Ge 3.5958100989209267 8.35527087694171 1.215532190988234
Ge 8.312664657578443 3.879661492502404 5.5983282837185655
Ge 2.9543335243996167 2.087074123870581 3.053690697596371
Ge 3.7188528141546375 5.761620766700301 9.113939682424073
Ge 6.023710357670165 7.010540827236895 8.317791565888763
Ge 5.440556050524319 2.50035558551707 2.249677036025659
Ge 6.598412055503745 8.347577536852747 4.806304168518939
Ge 3.8296333849542 1.844566004122609 5.662874153007191
Ge 4.3958309231474955 5.207290205541481 6.500598579746157
Ge 3.2218851691715233 1.3243799643144045 8.125938318602524
Ge 5.94468075635993 3.0747391393674275 4.87045721369523
Ge 5.185002600747456 0.5569763844463153 3.8333748263914313
Ge 8.263574298520163 8.255940200511539 2.8299615465108174
Ge 6.277481196887472 4.645690587058173 9.725769725214398
Ge 2.5590378148328634 6.348468098836979 5.0394753307671545
Ge 1.822691801384705 3.7328115178952945 5.025664525383465
Ge 7.175594397174224 5.911365746955735 3.1021859605908206
Ge 4.419728570051005 5.903525928674787 1.3710435481603542
Ge 5.1182806357778645 2.8992031699742498 8.176555674485563
Ge 8.24215895719482 5.401351340431382 7.9842897253954215
Ge 3.7077110144553336 8.232018225438262 3.734535037867028
Ge 2.380635282037806 3.7588300865336337 7.657187118551042
Ge 4.500131747665198 9.388780296116593 5.794914334394867
Ge 5.9947108893600625 8.182008195629757 1.8785043653956535
Ge 7.623032058082958 2.808339698502002 7.935900021575565
