26
Energy = -106.30639932 eV
Ge 7.024518225479 4.049772365940314 5.884370705147581
Ge 4.981424342675553 3.1567666392030236 4.527757673362479
Ge 3.8846287954892884 1.174118550310776 5.884717846320579
Ge 5.829865951526931 0.7965096764470037 3.873815490999737
Ge 7.822682452602687 0.49176379241668244 5.863661317033005
Ge 5.844394408536121 0.7852721430844986 7.8778401817738075
Ge 4.989731956123287 3.153222877879609 7.248430744162315
Ge 5.629590624543421 12.081673124841778 5.873938233890574
Ge 7.865254715650461 2.39892490643416 7.652262986731422
Ge 7.849233317620301 2.416331088753156 4.094143066076937
Ge 3.394625722351021 4.919073072553762 3.547135138127673
Ge 3.461776741055698 4.948250378561046 8.2765340447732
Ge 2.878288944527597 5.755893928165494 5.915144429785396
Ge 4.988777717669332 6.815362299990021 4.156005934688642
Ge 5.027611729554287 6.852567834239387 7.602994999294799
Ge 6.811876250663586 6.524298683294996 5.865146707384113
Ge 3.106591246806082 8.265361271102089 5.885339328081681
Ge 3.811697572064054 8.983938935358804 3.5267921492238705
Ge 3.882872992373577 9.050350618723302 8.200062485903393
Ge 7.806233392248917 8.822038014114971 5.806666002542919
Ge 5.898394590282746 10.136360182629504 7.089165140506198
Ge 5.862789562492112 10.096552690432018 4.532101330971366
Ge 9.710460769674276 10.641801137815913 5.750044737014055
Ge 7.422548419707004 12.081673124841776 5.7565592979271205
Ge 8.195808610501413 10.390588731995237 3.6012189562634638
Ge 8.25551648660485 10.464639966707173 7.9453466108353465
