24
Energy = -95.90471444 eV
Ge 10.860743175410219 5.349121764593086 5.68196414301236
Ge 10.071314555370764 4.856751755001514 7.998676731128478
Ge 9.435023137138346 3.2055364211309896 5.868869304253529
Ge 8.97525792449946 2.4608843549126305 8.404991947105072
Ge 6.726877973533495 3.080104746386305 6.641965909433994
Ge 8.327065647657973 5.996811068981139 6.060358572941675
Ge 7.3823149045486165 8.531012298502597 9.124246810977256
Ge 7.254739181313046 3.9561592866936484 4.378293654958451
Ge 9.044988136940825 10.304908377222546 9.172968648504078
Ge 6.443263081042314 2.8003941932159084 9.071726318750105
Ge 7.529955437202397 5.055623662939897 8.472164851173662
Ge 8.908905164221066 11.494897708797614 6.925605894876299
Ge 6.09364218869412 6.538684880468853 10.021671888865388
Ge 8.632221104985174 8.92549179852025 6.799295843891518
Ge 6.641697125470696 10.813009086062324 7.938034305163816
Ge 5.034751422447382 6.971514131926677 7.6983517113887725
Ge 5.531812474861651 5.745596418053896 5.430728720493211
Ge 3.091176564652926 5.438735079986481 6.464702661171317
Ge 5.888932677717481 7.885926040299311 3.8451642866458666
Ge 6.0113251110176416 8.874219025880523 6.265570013926183
Ge 2.746743512659046 8.009219146935365 6.99188746141469
Ge 3.2082024037264474 7.0352204232438345 4.489332358263415
Ge 3.8904799323615857 9.65245756664706 5.027419960493598
Ge 3.7676187727650863 8.664570439189271 2.6302185978608734
