20
Energy = -79.4775363 eV
Ge 5.430288509866125 6.658732899955323 1.9011639192035201
Ge 5.760560484315567 8.313739009544037 3.8850377429594505
Ge 6.739984650636596 10.573010434592351 4.538480331800587
Ge 4.91784704017079 2.5024504382873647 4.351882336836761
Ge 7.129662981087631 6.306458112575651 4.937538051058234
Ge 5.730264208647821 4.706540034999282 3.5100188088856945
Ge 3.5082597792653547 6.357517398150359 3.6624068998474786
Ge 6.653750234130437 10.070646259651655 7.136588667909876
Ge 3.799689996089306 4.510965932683321 5.682256035284625
Ge 6.269499138643672 2.792025058462054 6.47392793686803
Ge 7.421881976999145 4.881488091039079 7.302149990666579
Ge 8.404856205965308 8.874880307453289 5.329848319466401
Ge 9.349154563437388 6.649153182722908 6.171365498738598
Ge 7.793887193882224 7.905090265657857 7.939470090763753
Ge 4.7877118385976996 7.008553590044162 5.914249716387185
Ge 6.029624990856395 2.0989332873680184 8.963632436484327
Ge 4.91629754966472 4.318755790908774 8.389198644403672
Ge 4.979741734367575 8.330918373000479 8.058897531806643
Ge 6.086209043234549 6.329492422583808 9.450942308410328
Ge 7.567101673574725 4.08692290375377 9.677218525651595
