27
Energy = -107.89351717 eV
Ge 9.737198009663775 10.074654384063876 7.988949752621348
Ge 11.984565903843405 8.982590635472658 8.479197658310703
Ge 10.419265024358223 7.372767685661061 7.097578088222928
Ge 10.158984611731261 8.070652868981028 9.917178958938214
Ge 8.843903131923035 6.5223795904793445 4.086651104032726
Ge 4.877124624879631 9.534700522444892 3.8991533194881556
Ge 5.793214031217531 8.060585888004324 8.129394126360058
Ge 9.489789333756223 8.852512083259063 3.188216348035581
Ge 6.554684709352753 5.807168070850757 2.9202863919539324
Ge 5.471821290301438 8.94093727659919 10.535037174083286
Ge 3.1289739406197516 5.366258870584619 9.945876571808842
Ge 6.958771021484229 8.363636902150297 2.917120836224838
Ge 7.877838606531486 9.068589644148199 9.665410499521261
Ge 7.161621787545313 6.519914573686051 6.009916569843452
Ge 7.147248733926409 2.8329733936572463 8.495186474692172
Ge 8.84248249032391 8.970731846130075 5.642700750152639
Ge 8.19373851871167 6.693905459781829 8.406214324616883
Ge 7.6069619953231715 4.915698288031548 10.107527598063959
Ge 5.027601823631996 3.836435889881888 9.296367455033597
Ge 6.055716879332841 4.287304081787303 6.669007844828285
Ge 5.484617431255902 6.324084670462388 10.456201054394151
Ge 4.163286718961599 6.036726516764442 7.65789536850402
Ge 4.941343666295831 7.1406796864764575 4.776439585094656
Ge 6.362261757176055 9.332234629620753 5.937290019004368
Ge 5.751213466196766 3.532944802165311 4.226291163295414
Ge 3.9259320793397787 5.308089604460636 3.2465303159931027
Ge 3.4904727904835156 4.40089418767212 5.620761845896738
