27
Energy = -107.66852548 eV
Ge 9.562485055512813 1.2176937332448956 6.824019746158803
Ge 7.721078521668853 2.488655527230091 5.576457042868371
Ge 8.765066757566053 3.315078983823966 8.061004167521933
Ge 8.645515618400255 6.747350609803505 6.996963602608055
Ge 9.702810286671411 8.262634471954778 5.086099774224723
Ge 7.95125410048756 9.318629199163192 6.550913863319656
Ge 7.236424828636706 0.7598155439754409 7.745040279092679
Ge 6.185975360237492 3.091637824979282 7.999321329573464
Ge 6.810357481101259 5.0924864610016 6.274837575734957
Ge 6.734016337385716 7.8213620152752155 8.506503071222802
Ge 7.3542072009066395 8.186645809483858 4.023666107841132
Ge 6.106610032117748 10.917949750231784 7.253532240687511
Ge 5.729854116388554 6.72694286200965 2.4730164638557928
Ge 5.698723803393342 10.016257263503718 4.8442072934476705
Ge 5.004183451860338 1.6310292669121231 5.914212180759317
Ge 5.660487320926875 4.256751295921976 1.7961383192988911
Ge 3.247792232956241 4.858646369421635 2.645388148744242
Ge 5.170087231106897 5.382129760631861 8.439390423653254
Ge 4.9813912402039175 7.256212012618085 5.096262895142012
Ge 3.3798863423871666 7.482683391409998 2.8851023473540702
Ge 3.4071187602752 3.1420776999472437 7.581952190001956
Ge 3.1848177237550317 3.6380420564958698 4.988600799284676
Ge 3.4787207818296078 5.734442808122241 6.533084096888327
Ge 5.6742966077863235 3.92016350094713 4.307874270406595
Ge 4.660044746516972 8.763464633471628 7.3143789192617055
Ge 3.1721706198884045 9.273032032339385 4.693277434240052
Ge 2.2153043748052426 8.056452358328938 6.903205216559558
