21
Energy = -83.79856782 eV
Ge 5.109062850086007 10.683979725599144 7.7865002921766
Ge 2.709819814747861 9.729059263808473 7.664026222442089
Ge 6.874376692141788 9.34072381866154 9.15999764417786
Ge 4.291106232936996 8.86654979026166 9.761952554033305
Ge 7.281635694912634 8.827313872509421 6.619904025795381
Ge 5.78230992094019 7.134486891070116 8.123478984586649
Ge 4.838939122319327 8.497074879290672 5.9543823046857565
Ge 8.31121528011922 4.660376078257141 7.07190510166865
Ge 3.214814254359939 7.283939540793286 7.610315685516653
Ge 6.148147240902345 4.637714136461872 8.446854503606524
Ge 2.5633012783968963 5.189230574730562 6.186390741833887
Ge 5.0927855391886405 4.5470797719526095 6.122292427970855
Ge 6.6707857772486525 6.165904233905979 4.663247785717354
Ge 10.85469849288618 4.953678207098807 6.858576860375136
Ge 9.27095642317739 6.4554419325950105 5.206936905283901
Ge 3.9598289366423933 6.489722038658035 4.494503657612295
Ge 5.542300773153791 5.738440712928835 2.418839907051209
Ge 9.730796862138114 2.558469740112181 6.308905098447776
Ge 10.763216525253249 4.2236896340658845 4.337052120731225
Ge 5.8091752108735335 3.569036794992335 3.8280735419190317
Ge 8.23061312445403 3.8324934136971325 4.545704842290923
