24
Energy = -94.50873018 eV
Ge 9.995605298526945 10.065042630050977 3.277225024209942
Ge 8.209255045617356 9.783129862102923 5.353814566663624
Ge 10.87008608510129 10.093939767273351 5.722777479354938
Ge 7.952842464426132 8.481234217327598 3.1244614894129294
Ge 3.39697107302763 13.054813554541708 9.223498055205205
Ge 5.330367638266016 11.959313536913005 8.22118012983298
Ge 8.400072724545865 6.0560670762752205 4.051829430449295
Ge 10.171196718803264 7.8049683153931095 4.710568022026095
Ge 5.650511959817952 9.584822640647523 8.9162068716651
Ge 9.225827251994872 8.299729327109723 7.32907750738571
Ge 3.706928240937353 10.754835130040277 9.985828917491126
Ge 10.085300591714313 7.8179043699703294 10.624939172914615
Ge 6.817816383044335 7.4484100086695255 7.96561640735894
Ge 9.888669879694824 9.941719423883846 9.178337908825533
Ge 7.760774402902011 9.215146735846233 10.43954270314376
Ge 7.522203861497468 6.374803818888117 10.223578773670283
Ge 9.685686250134621 5.972284398558895 8.741756581477054
Ge 8.124058180495314 7.603259523192276 12.392536265889257
Ge 5.782805333666697 5.597503836230589 6.520139495146498
Ge 8.372652546168824 5.204508196424681 6.4229269668474345
Ge 5.492349790573104 5.019564015372001 9.207165000852862
Ge 9.653791450655289 3.523808529840306 7.883804680480336
Ge 6.833971965307113 3.3133490363481894 7.604245136931878
Ge 7.983389440171043 3.822943104456237 9.956124105709623
