28
Energy = -112.34772652 eV
Ge 10.10835107264869 3.1955570095889345 6.970934342136132
Ge 9.798213340149218 7.416325733422873 6.443013793858634
Ge 7.99303505574465 8.587001118957282 8.168674793013011
Ge 9.185838403967049 4.790272981013159 5.1719716175595805
Ge 7.853886594333185 2.1040890074372562 6.314288164985406
Ge 7.906104286423206 5.807310031545644 7.2963943499565795
Ge 8.247834562534628 3.611426258420818 8.68605621715269
Ge 8.91460026486754 9.906564399210934 5.944685652159837
Ge 8.785212240835039 5.674385549566771 2.7586971252703525
Ge 6.370449315087892 10.065005795275264 6.566241191691589
Ge 8.411238393792047 7.746620747926842 4.201177391575084
Ge 5.94035092891779 2.8252052428662626 7.84247572138628
Ge 6.607884902670537 4.273860547986619 5.440449531001498
Ge 4.0836124784837695 3.9703701129079647 6.306123356774463
Ge 7.057530449008936 9.90786298468768 3.939237237607811
Ge 2.8256977173645694 1.6965762970853469 5.727102272900326
Ge 5.807188823738647 7.39049664802545 7.281515480989015
Ge 1.3463459683363543 3.4552000444698137 7.087034381241004
Ge 6.275242166791797 5.411308806525888 3.1891442239527232
Ge 5.739758648298202 7.81102489670681 4.771626804815284
Ge 2.6321165798596375 6.0013919867385015 6.928749582858812
Ge 3.862901428233361 3.027630547324995 3.7712206344289516
Ge 3.8487965954260206 9.187094010349652 6.304977740421631
Ge 4.319918024692896 6.984993749941239 2.75016964091506
Ge 3.607433541310237 7.719257922756404 8.490274410762533
Ge 0.5674917709644935 5.635993672680022 5.5908428576963916
Ge 1.1069331980574977 3.351449859456515 4.3156801578246835
Ge 2.932580397259539 5.427111217149213 4.249935322405473
