27
Energy = -107.2579249 eV
Ge 11.284009172326758 7.696534151641949 10.927382947990813
Ge 11.624442073672313 10.121267215146773 10.798473622237474
Ge 9.132606665222857 9.663024464699436 11.038792937303166
Ge 8.787109973229432 7.06957676273247 11.127038412831315
Ge 6.207401239590969 3.669718062475582 11.064669036501021
Ge 6.264506403953426 6.252078605026065 11.003041489220788
Ge 5.718082039883595 4.66047549735823 8.750653221558325
Ge 9.763701471416837 4.582561461825607 8.369198643989899
Ge 11.781774703825858 7.076522932099684 5.5411274012986675
Ge 8.54788127281662 4.525531820592153 10.709046865121852
Ge 11.639721313516272 6.3598177895655885 8.026065762997133
Ge 6.27167649462605 7.172033106393245 8.465772057814961
Ge 7.676637463962112 5.1328469855117556 6.9814082585206
Ge 12.525539559317021 8.723990846611368 8.640036865929725
Ge 9.170196299518285 12.764178254786584 8.045628415336509
Ge 8.847397679364724 7.181095904964024 8.512958416634104
Ge 10.419944550543267 8.761835165900575 7.138027377455111
Ge 8.155589271537188 10.513162885141776 8.671788415051285
Ge 7.146766357559525 9.731598270961612 6.262300605499385
Ge 9.30029981883879 6.937066888271066 5.515787154252972
Ge 6.804634348031559 12.788049887007514 7.282445663890505
Ge 6.763406856980713 7.233801122486034 5.294603216894465
Ge 9.342926397711478 10.977631449144713 6.160701175349362
Ge 4.772171593057692 8.54842587418117 6.819639414516551
Ge 5.394828824591854 10.635473086350123 8.466549355719401
Ge 5.064863207485 11.106075943857665 5.697088320052335
Ge 4.369204109064281 12.881892969785106 7.459246877422943
