24
Energy = -93.29493828 eV
Ge 11.738554821348805 8.575272067014343 13.224682453729798
Ge 10.095789987089058 9.769750564550673 11.834989557361167
Ge 11.376512620699373 7.030238966966436 11.321142962555271
Ge 9.14381433180783 7.310637526692275 12.605943761854945
Ge 12.32839171781741 6.806338037039439 9.010985719019441
Ge 11.07133534867369 8.064954566916771 6.252883807507862
Ge 9.847238922958969 6.691226113779113 8.3228360902763
Ge 6.119890926994396 11.347106933742598 10.943576804205929
Ge 4.62400947639018 12.784258777435044 9.572837721171135
Ge 8.521081010363224 10.917655467726048 9.94884399675628
Ge 11.288209162270082 9.306260060161915 9.301203319048827
Ge 8.457391993667878 7.35869136379538 5.902146381651266
Ge 8.737178820471025 8.143983458898568 10.176275237140972
Ge 6.239021070664219 11.584487279017273 8.18231160594053
Ge 8.120395912451915 11.705765428452898 6.294337892128145
Ge 8.05787205947222 5.1373028651040915 7.209159828298088
Ge 9.479490794681011 9.258679514263692 4.505202454438036
Ge 6.3354890413020435 9.106510030243292 9.604569042681813
Ge 5.554083395123218 4.9390545848510845 7.332748154684397
Ge 9.450441342930173 9.815098765810166 7.354983192736621
Ge 6.912621392301375 10.175126329086336 4.613550954642386
Ge 4.58435243260501 3.3834623605322856 5.731150858369742
Ge 6.843447550783128 9.203318625296914 6.961296805821792
Ge 7.0013389184531984 3.5639477963402677 5.536646657292344
