29
Energy = -116.88319486 eV
Ge 4.154014548473513 4.374870359049141 3.963726402781973
Ge 3.8652951910666844 7.157919031991593 1.6748186463162213
Ge 5.970023060587316 5.985542521165751 2.925302088657891
Ge 5.582359062778492 5.185463274717853 6.011060692005306
Ge 2.732903046242399 8.501965785940477 3.6319014064731996
Ge 2.082980363932637 5.875086018531611 2.932593510823964
Ge 8.00738867033953 5.027448978058373 4.872320425043221
Ge 6.550944238724661 5.906131969545339 12.110942638986185
Ge 6.863950966453152 9.715100859831617 4.518213990126924
Ge 0.7882618263477116 7.209869187196436 4.757436827672469
Ge 5.771268680737165 3.3745563987762885 10.620123028573813
Ge 7.528599607671465 10.743630822922816 6.892513720266957
Ge 9.600163814747496 10.377260512005945 5.2769711034779965
Ge 9.24142904346307 5.505382703478661 11.45022220564406
Ge 7.0184906083126 8.176967536468807 6.752354544669913
Ge 3.0658465896066525 6.33901506632714 5.515905632334285
Ge 9.514100420501826 9.086580134338941 7.728037364348252
Ge 7.861050109998689 7.470248942795765 10.415907642013174
Ge 10.872802720855084 8.08115568410519 5.56872451185315
Ge 8.668544694809189 7.96405906584391 4.065962788213252
Ge 5.1316814023814485 7.784841484808141 4.43395677388036
Ge 4.768774901787786 7.26796926593643 7.599712795045634
Ge 9.082036989420033 6.549037177916507 6.652116854182721
Ge 8.464909031822689 5.428897833233158 8.847155097341668
Ge 5.944998104412655 5.879601460465178 9.448581555503846
Ge 8.491053346298685 5.9713127359180005 2.5146190570278346
Ge 7.740574728993046 3.5312343172688827 12.35791431640661
Ge 6.62344075806172 3.6181738572735815 8.190448434133925
Ge 8.488565096852046 2.9048699761520327 9.891530272741859
