21
Energy = -82.88625722 eV
Ge 5.10263866235919 4.113339032547406 12.11293388057639
Ge 2.78710915238253 4.69870668189058 11.26957627943352
Ge 4.626814847656041 7.6790350866772465 0.7005222165080243
Ge 4.241043818142383 10.253783868345858 1.364150036495198
Ge 4.303267821565149 3.435670055709161 9.629514893037307
Ge 4.544625277443056 6.27089588862492 10.211969967071116
Ge 5.594158246042098 9.502796896548588 12.11293388057639
Ge 6.611651394373504 2.566028249819212 10.716004576135566
Ge 5.330792938093166 5.593765433280858 7.836820834354928
Ge 4.8954880108279735 8.649368696945178 3.1862406353119987
Ge 6.951653103653327 5.140954749518911 10.263718217530025
Ge 6.815166622218512 9.508335106572648 1.478566232712865
Ge 5.241752169405428 7.149303431556587 5.4180512080459104
Ge 6.810512480422335 6.9903678220906516 1.8441117838730048
Ge 7.641993349024032 3.4850739396872124 8.147806624380209
Ge 7.821923045943268 6.248066098324227 8.119570079761852
Ge 5.477723837993993 5.070854959714596 3.7877309030179056
Ge 7.687159182190068 6.546412655530634 4.777511026345704
Ge 9.197333501858386 4.877049886729799 6.383673489458546
Ge 7.906050840899493 4.971339687823392 2.7031191176505573
Ge 6.625430225749383 4.202571037548712 5.896116198743036
