26
Energy = -104.29971929 eV
Ge 10.742143958148322 4.382582103637351 6.571252089643473
Ge 11.715626217882095 4.026455741840212 9.001197563045368
Ge 12.195933324513424 6.453213082078493 7.599833165241411
Ge 10.16681750135794 4.8390091066015755 10.956588935794949
Ge 9.062837549511503 3.908162588369337 8.66556030194543
Ge 9.328124099722112 6.4129827006011215 7.073533586508473
Ge 8.455746434112175 6.395166033586347 9.74854443180807
Ge 12.4297750737945 6.267326497461524 10.30064641015083
Ge 10.598969584670192 7.785490660485882 9.407839258709375
Ge 9.196475478083595 8.204465463572978 5.241392617407384
Ge 6.654519336723799 5.7679910794477 7.713634056953775
Ge 11.02373718913437 8.821510552028672 6.89320614637745
Ge 5.910300241892175 6.649473590747049 10.112076027151941
Ge 8.278661220313763 9.523623619295336 9.733353418098243
Ge 11.146701614903773 10.323990941887448 8.980499802307499
Ge 5.60289287851455 8.162291808839594 7.7165839778533645
Ge 7.86051329053866 9.360072292900327 7.074579159966529
Ge 9.260356386785881 11.890797703090113 10.387141834172901
Ge 6.703534690332758 11.7629734035179 9.87116810943302
Ge 3.6535142367689177 8.874966298291618 6.1415318476307155
Ge 5.548092445679982 9.388392551507762 10.29876429941546
Ge 6.07110305520494 12.45102294634356 7.3571192417771005
Ge 4.231190031102813 10.417980913958383 8.381697795725044
Ge 5.8222745782821335 10.282256824777749 5.6699914683408545
Ge 8.80894482688295 11.677352114697817 7.8401352633409145
Ge 3.7034081102687497 11.700007341848858 6.3170084342249995
