23
Energy = -92.29242015 eV
Ge 11.117314274335003 9.323924758252547 10.120200217155679
Ge 12.439733096477188 7.40133720537048 10.972329201493327
Ge 11.773150831914931 5.135566145228341 9.852396846969622
Ge 11.681420472244975 11.47499983060609 8.811090157253645
Ge 9.804250806669522 5.734037780292404 11.295759412450014
Ge 9.135261477355542 11.029656759353777 8.917981200693129
Ge 9.03931385748326 8.351945764430488 8.891904506407206
Ge 11.765273560695343 7.398109844297806 8.258799514864261
Ge 10.974554475982933 9.741716035254637 7.087732385481967
Ge 9.521871162043135 5.746328144238513 8.548713763889221
Ge 8.490209219530398 9.989505306421485 6.643122677580644
Ge 7.424436419962906 4.49896279528191 9.156625488790201
Ge 6.028042917822457 5.926676647602015 7.547282335583653
Ge 6.669709126085982 8.15767636423435 6.514745106327763
Ge 7.700669008976653 6.803553432958043 10.457501450246843
Ge 4.697103498947202 9.80475661952671 6.319979661159004
Ge 5.798517159584009 8.312688052520516 4.084984213667696
Ge 3.6441516014152247 5.611693251619746 6.809285046162329
Ge 6.0677598383862055 5.77652520477342 4.899232216041907
Ge 4.521271753915875 8.020150798944973 8.34446664081224
Ge 2.6210496695909025 8.0165123994289 6.556853866679133
Ge 3.2347408465516274 9.083376585264327 4.186441976168545
Ge 3.677607399257423 6.520682081372222 4.332405156630694
