27
Energy = -106.99876312 eV
Ge 11.35390731444134 8.80849122018566 9.24701339803511
Ge 7.544839646368539 4.382183124522485 10.982568138085517
Ge 10.737526548968734 7.579744710066792 4.632103423151272
Ge 5.954572140186699 2.459585418918393 9.936798666256658
Ge 11.742773200856856 8.84380890347797 6.539856929914011
Ge 10.20629098889681 10.102560118171326 4.708107143541055
Ge 8.539442069453402 4.469350009697611 6.439403319446697
Ge 10.153306408261463 11.230157285741397 8.582058658786725
Ge 11.637455704203843 11.429073376299604 6.434658877950336
Ge 7.1032284398334635 4.179087080890754 8.533745101370162
Ge 8.900577232832454 8.754476956128636 8.484393675829672
Ge 8.020365212384363 7.480178588285054 3.9119333919556025
Ge 6.443102530742821 2.672556491303864 12.313067653210892
Ge 6.708962510665576 5.221690381064848 4.7195036130734715
Ge 8.440161846059219 6.9854891475584 6.498440146293497
Ge 5.867282533522896 5.886340932244212 7.135455007668209
Ge 7.9683119880648405 9.673833068016624 5.863471263115609
Ge 7.038299186135398 8.7913863162162 10.347395758016077
Ge 9.471941506349067 8.16110863019218 11.25077101091022
Ge 10.854783884954085 10.646811382717805 11.153637502751023
Ge 9.013433220868732 12.55107482067361 10.609961077890276
Ge 7.505052331609123 11.021148861970788 8.629942339051357
Ge 5.679364615833979 10.43963695762419 6.731202425341594
Ge 5.832412996083832 7.995540762886041 5.348083356898215
Ge 5.397371792341042 8.234271409226903 8.129878923740069
Ge 8.510149926403127 10.439161048480823 12.284774012349752
Ge 6.488925224844344 11.395914037006628 10.929871736849176
