28
Energy = -111.37453897 eV
Ge 4.765154693970422 5.941517622249406 7.794748513047272
Ge 6.2998056830335125 11.560397033903843 6.324640104537468
Ge 6.7792676266136995 8.942415738561971 7.067758593131075
Ge 10.825963812637552 7.467964116124924 9.376181897961297
Ge 6.625927091377995 3.865285105656864 7.763753153176141
Ge 9.77132908672513 6.309641709627603 7.138362986730973
Ge 8.812644508502276 11.24488805778518 4.915674468368029
Ge 6.304677528871901 5.234072053269439 10.138484582802896
Ge 5.819938738285282 7.826380583612538 9.416815563605102
Ge 7.031630817743665 7.159931975175065 4.273622885164215
Ge 10.791170925865 7.275514527728923 13.467185592521794
Ge 7.847121408573486 10.924264551558295 9.182870117987205
Ge 9.195076023413721 8.908178843205791 7.916352528041323
Ge 8.487564130914174 8.374627170764931 13.116720943891053
Ge 10.798055719350288 9.013452255276853 11.643280422892484
Ge 6.462960530093741 9.681806709497486 4.551665735158652
Ge 12.005914634028013 9.411974081783287 7.6942043369867665
Ge 9.590053443388689 6.184855507914877 11.360615842519731
Ge 8.174865946295998 8.182158170676145 10.497413360363314
Ge 10.440091158149094 11.230019444104801 6.986752184501682
Ge 5.386296428351057 10.329926640711363 8.8336131961443
Ge 8.740947408734982 4.833627994072893 9.13773412612042
Ge 8.485088777434283 12.739867385055703 7.429999995024633
Ge 7.197683193812628 6.227739534476635 6.678714296755365
Ge 8.798051846981084 10.576365038181697 11.645663572969916
Ge 10.565125804066826 8.505503284192152 5.683363703412822
Ge 4.494466241253389 3.7455443835024944 9.140072781933595
Ge 8.941139784299587 8.792223258166258 3.7222271208709947
