26
Energy = -103.89917033 eV
Ge 4.4607319819038995 5.436781253723395 5.123389278141669
Ge 5.0611281887051085 3.577957036902694 3.26021893043924
Ge 5.044799816256522 6.560605814202405 1.831025618045421
Ge 4.57050009220748 2.528991917586129 6.541419447374063
Ge 5.542978215299308 7.702173336202046 4.347589884013247
Ge 7.588721620819332 3.6186518814350244 2.8138116396707
Ge 0.6732961517590657 3.238422313147922 5.040275885016524
Ge 6.346192462181608 1.1631766635255707 2.712372590834328
Ge 7.625323028754974 6.697503463400902 5.583963227979028
Ge 2.1815735745822518 2.6058250342711635 3.014015191202526
Ge 4.913793873167999 7.487667378252351 6.888086776308525
Ge 4.112122784635869 1.394504285378241 4.305462164935867
Ge 2.285075761688212 6.56568860950037 2.160158462909533
Ge 7.5296348137689835 6.339607224195756 2.9522918525502946
Ge 1.6460801687804592 7.858058429553095 4.3151501624514195
Ge 3.778073114800498 8.740012880205546 2.779288596811649
Ge 2.011864181614052 5.2051109766903885 4.40315959596587
Ge 2.2315167558296793 5.147221299213422 8.907003902911978
Ge 6.981001989683404 4.203055673150513 5.3340785305215235
Ge 8.393114849530125 1.8387148782039826 4.514178908643914
Ge 2.2259178645096176 3.415162102797592 7.089994331352951
Ge 7.036695142505986 2.196975594542598 7.028368781503991
Ge 4.6424915985170925 5.040378391448369 7.82309501904583
Ge 3.474825140631859 4.405763249832429 1.3019628500692244
Ge 2.3619690661404658 6.617729856785867 6.843989217323288
Ge 6.443368335957093 0.23904882995765608 5.216419061538299
