25
Energy = -99.70631794 eV
Ge 9.663093081051711 6.347999687379325 9.630461172499327
Ge 10.106928409216184 7.286565249953836 7.136637909004403
Ge 9.587688228683438 9.584155914643997 6.458807103321838
Ge 5.6372872997969115 9.036533585347545 8.371774126708642
Ge 8.662203280232232 8.890432006454532 8.85909477596009
Ge 6.986026861837239 6.755272359906554 9.072293905946282
Ge 7.374716523156971 8.240986001918762 6.345141011778115
Ge 10.019886265276856 4.740545854970707 7.324238684041607
Ge 7.921029751873702 4.34539472493415 8.937036705206957
Ge 7.680535443964776 5.6706357066800965 6.630236314515947
Ge 4.481211000791812 7.168379327342364 6.769069298605618
Ge 4.550152911913299 6.925589006311051 9.597914783454323
Ge 3.660696105840605 2.5075485434206746 2.9568640392402266
Ge 4.576370427571809 4.578981213439599 1.7814000902798557
Ge 4.9893223973240115 6.919515269001973 1.2546956820253148
Ge 2.0385825506191595 6.542296874376658 4.292450495253837
Ge 4.756004856127289 6.816139762223406 3.8675216369049483
Ge 3.4241256596624434 4.405893970914039 4.627271868604817
Ge 6.980138381888075 5.635457704583865 2.513100975615673
Ge 6.459618758536372 2.914293021618784 2.7487934573808896
Ge 5.332262400361549 2.3487763465553795 5.0977539584728815
Ge 6.147525684578157 4.752214822763447 4.8521534522002785
Ge 2.0096097478419757 7.838261432811063 6.494756889978407
Ge 2.411133730331899 5.311802096148629 6.927787577968245
Ge 4.927359673283621 4.819838948062894 7.836253516794609
