24
Energy = -95.99125998 eV
Ge 11.822687286280399 7.975361582650287 7.084743886204405
Ge 11.543600533004994 6.601803503801263 4.975532000455805
Ge 10.967685467032725 10.349759177323085 6.257686789561848
Ge 8.67663045268087 10.614006598491242 5.031550944235151
Ge 9.75383837584981 8.361578280868656 4.493820414151556
Ge 6.9552387600215715 7.317321000652983 4.563724255588301
Ge 10.634424812049895 9.497820203134575 8.747903098107523
Ge 4.4578245801261485 7.9572214733581035 4.1333847700406245
Ge 9.4279734636139 6.318483680425108 6.375820825876678
Ge 6.090995602605662 9.442193246895611 5.948519433926328
Ge 8.61284773491227 8.992394609741247 7.036741974846382
Ge 7.52571153753216 4.818510620332489 5.216535872676727
Ge 9.220808214431912 7.146889537268865 8.794074855032344
Ge 3.7660057502288167 6.9868523992761435 6.464086139156357
Ge 5.765879389691435 7.885772012337163 7.899489750527217
Ge 6.039427320532572 5.364214468572796 7.181133364182157
Ge 4.931054701175146 5.398344538440814 4.445518272679452
Ge 7.033386540569102 8.057541917184466 10.122601405913155
Ge 6.821830135064003 5.0194303243862315 9.78102868725274
Ge 4.490679191173104 6.539638883460136 10.157425301246466
Ge 3.578186315954894 4.309347821122798 6.685581736450606
Ge 2.48623309409513 5.874989732488718 8.709489680967359
Ge 6.227399132782285 6.395378115150155 11.920592830326092
Ge 4.402242978071706 4.028747125451196 9.12953688629545
