27
Energy = -107.51837929 eV
Ge 9.675289127644541 4.906952885533506 8.65890684550242
Ge 9.19268970145627 8.90238799751094 2.3873952350527805
Ge 10.116111988362722 10.253777483153769 4.593233145873189
Ge 11.118797666215334 3.5036974022629854 7.1285260082645
Ge 7.303459874816166 7.1289046248184995 3.5415004022073395
Ge 8.206188177779275 11.32319890132398 3.1438482716748752
Ge 6.583530435459757 7.225582981415914 8.780571082067151
Ge 8.342727650974012 6.206001677821838 6.725250870532195
Ge 5.5596451417204324 8.515080992261375 11.059367739604935
Ge 8.764548999423027 3.674126529956612 6.172778948138839
Ge 9.241433199952233 2.15945932706767 8.39922276659324
Ge 9.592408205575913 7.660927779463346 4.804416272734107
Ge 6.5248689437379745 9.390583637988673 2.4043488139073044
Ge 5.732386708635708 6.874035053902966 5.931332473318116
Ge 4.243462903608859 8.91607892237028 8.911763696768507
Ge 7.360474198342508 3.779752107000621 8.40620862870665
Ge 7.5816532293150765 9.435553775047838 4.8440142677563705
Ge 6.931622804035595 9.749821907339369 9.341966044563515
Ge 3.1857310483250614 6.455042098831954 5.602352022683277
Ge 4.159277937524659 6.147561272749573 8.287857596511909
Ge 5.9653036871761325 9.476393368948521 7.071168793735916
Ge 4.797604937132557 3.7071770512529194 8.741216142377905
Ge 5.337787025382344 4.232868880421205 6.093549924582503
Ge 3.3052682570911256 4.166461983579966 4.3342628641782674
Ge 1.7045402410821573 6.396479494160146 7.710159482254792
Ge 3.8645857675851376 2.2270604891592503 6.838732475114748
Ge 2.124540753575527 4.078447486994051 6.561775642835088
