28
Energy = -114.77079853 eV
Ge 7.1785961437305685 3.768609953183636 5.703692033234729
Ge 4.530176907653994 0.43822366405436824 5.68715429626508
Ge 8.2239924845928 2.3263127797199763 3.8782667175327226
Ge 5.343993610174603 2.5220685278004367 7.092749352186233
Ge 8.501333666065918 0.3545684457453374 5.553966635222085
Ge 8.329201086867828 2.2140738785420577 7.37176114428142
Ge 6.556452108312933 12.024352782337553 5.550782536872312
Ge 6.4389652151608905 0.4405395327493032 3.6053674459534886
Ge 6.572530953931773 0.29653299219708024 7.630973757198763
Ge 5.2439844934041595 2.6143038191622074 4.376497660435871
Ge 3.5557417472880486 4.0101993751825225 8.189565280797233
Ge 2.878224198146703 4.945181547395476 5.9003825757235
Ge 3.3837429076479957 4.164260969930673 3.5115800978490235
Ge 4.728009241864947 6.25842750530725 4.037187269650593
Ge 6.485579526302304 6.146795402095745 5.809140326771948
Ge 4.860091800683546 6.13963608593981 7.7056977917594836
Ge 3.5172805716419795 8.201160410812683 8.3445190662832
Ge 2.8569514734343096 7.485906215869609 5.981197222741976
Ge 3.345620334973022 8.350830995399043 3.625828782721967
Ge 6.8302819433089 11.936529113041612 7.41519590860605
Ge 8.85685779156455 10.608242260553324 5.861544877551566
Ge 6.729145985815085 12.024352782337553 4.540159051318779
Ge 5.26150324259627 9.754937069770671 4.5881146799816515
Ge 4.535195574001955 11.809008896971859 6.051794744758708
Ge 5.358083811862243 9.670996867850967 7.333943146696212
Ge 7.857208037667142 9.608260192042152 8.163746541732179
Ge 7.29261165793351 8.481489569016812 5.853610593672888
Ge 7.694619287969564 9.745939897829857 3.5815562667963095
