28
Energy = -112.06527667 eV
Ge 9.20859746729445 3.548621681433451 6.377567690053197
Ge 7.750919420218106 4.3104140006880645 4.269001554009652
Ge 9.831730727487605 5.979790090362973 7.3278238523548245
Ge 8.676660688476344 4.3790005222447945 9.039272103267463
Ge 7.839585322513711 6.783648555103614 3.288792508486183
Ge 7.859007389118967 1.3511583587604314 6.111008423824714
Ge 6.850339616221614 2.783513920495554 7.982866626338461
Ge 6.563310317762272 2.2675647923412177 2.955890310346363
Ge 7.758839495677408 6.9952359310901375 8.863525344812475
Ge 7.758361139094867 6.928978498731259 5.950616060766826
Ge 5.374978126068544 6.398185222099325 3.0175524262247695
Ge 5.8829303215344515 3.084797894815825 5.488986970236443
Ge 7.221806249578516 9.23159965704624 7.299498715609809
Ge 7.0682724445527345 4.560120466853933 1.6501178904715996
Ge 5.004701087845878 10.503601418762985 7.892236184253374
Ge 5.023067208011318 8.555296820817125 5.94199846135565
Ge 3.831821302387262 2.350751798846887 3.965439823131751
Ge 4.5278616011712245 3.9498432881146464 2.0067395736257847
Ge 6.011910514111486 4.946570354310993 9.373614615019754
Ge 5.697044643453571 5.818795531562625 6.97601634032942
Ge 5.145927604368267 8.03204179632621 8.90102684179236
Ge 4.1424750273624245 4.995594440247673 4.758039462126013
Ge 1.8815840585862311 4.371918186148678 3.32047943314264
Ge 2.6447539623288345 8.510732647475097 4.899378290837377
Ge 2.81318880402875 6.828946051652836 2.6587085329794835
Ge 2.6443836925706985 9.589014730121946 7.284648438091316
Ge 3.090889095041481 6.966444931258042 7.290282884659283
Ge 1.6664664074650977 6.108678486763062 5.21979028611396
