25
Energy = -100.87010744 eV
Ge 3.520450741639281 6.797747912363349 0.10879667884930862
Ge 3.4615410720762307 4.179766558138413 11.554265677481878
Ge 5.8527607863483855 5.347974403753236 0.2700638230191926
Ge 2.612275984305734 7.447284942731521 2.519491458156485
Ge 1.9825844830105035 4.954849773633839 1.7231318183244835
Ge 5.458873474102794 7.769464149890947 1.576069466900337
Ge 4.488984916368196 3.555816288013705 1.9663577824243945
Ge 7.632354883314141 4.103037142386577 4.472877471010358
Ge 6.072940805759387 5.458314947242989 2.8782974773534824
Ge 5.871168876121441 2.290479101206042 3.90376269026319
Ge 2.0912121886675448 6.758550894103513 5.0755096406116476
Ge 3.4390512364751338 4.889596695235912 3.926462227992826
Ge 4.742687394073252 7.272555629021037 4.188796882205811
Ge 7.2660414083625176 5.7250977870268525 6.550468880192447
Ge 3.598715508431443 7.892289342321532 6.90081233353699
Ge 7.860519188950824 2.9805388353340034 7.347722928451896
Ge 6.119366881328995 8.100304103666955 6.154616244632091
Ge 5.36204952159583 3.626924767238995 6.0947173392729495
Ge 6.3449842092209225 6.05649814509108 9.500185412654242
Ge 5.571679598190366 1.9400073839274818 8.10823727989989
Ge 7.154936702101703 3.34841091678462 9.889061212836175
Ge 8.703025351017276 5.202684552062388 8.62032680525963
Ge 4.63026471436461 5.693984652203657 7.5280304395032935
Ge 4.4660679475474305 3.901271397916798 9.431378123886589
Ge 5.638769394931169 4.649856947010116 11.554265677481878
