23
Energy = -91.39259981 eV
Ge 9.042119164970138 5.985355784648779 5.954968247732126
Ge 9.528674717655438 6.355884845564893 11.72702434206639
Ge 10.707135437001943 6.761438245681521 9.52958552879054
Ge 8.710510266238762 5.028857336799807 3.727147539688882
Ge 10.08342672472289 4.148205776500911 10.430987990210651
Ge 8.803271719823769 7.6494660221238355 7.949512990624322
Ge 8.005822204936953 5.893227770014072 9.715017675009175
Ge 6.897730547247565 7.020171599913737 3.7058833134284686
Ge 6.303147206363099 9.375344914406309 4.9586222081920255
Ge 7.827528415748792 3.3177121973755765 5.679581122387311
Ge 9.771213390629686 4.796626149941846 8.059748282665153
Ge 5.951636452094556 8.835066798268787 7.5922361222130395
Ge 5.424255071493398 2.378537672485863 4.968029566484091
Ge 5.4523751126442495 6.821267801610388 6.0190877323568985
Ge 4.102108616642919 10.295176068300576 6.429588301063959
Ge 3.4142309989799533 3.780625020479485 5.98735140086682
Ge 5.795065547491054 4.364641271812731 6.851685120070278
Ge 3.3576355494644545 7.861318435220506 7.397488657693273
Ge 5.8562283390090055 4.571470725234429 3.9618435332887763
Ge 4.3316290721059465 7.7542069035704735 3.5474025233402307
Ge 4.147569983339289 10.269351921260967 3.7464192470377657
Ge 2.9638085023380967 6.404474223045636 5.240690838869547
Ge 2.124799527406884 9.005972805327227 5.212265432667029
