29
Energy = -115.45071547 eV
Ge 10.746880571896378 5.277968349762826 8.173214606697297
Ge 10.443959766094558 8.401164042606162 11.303008808453907
Ge 9.307296923603834 6.936857267929712 9.526051802224911
Ge 9.830475429449525 5.554309903877349 3.5129605215875204
Ge 9.785736407711717 6.240481815270553 6.006510242310263
Ge 9.157171269570442 10.611418122238812 11.229232565031479
Ge 9.485668046499516 9.441925251135343 8.914622506253664
Ge 9.108454002718162 3.5934938314240217 7.113802473346249
Ge 8.614198346965548 7.647727898999272 2.5643580044724303
Ge 8.142207980031264 4.311556232297252 4.945005479241417
Ge 5.25600410400376 1.8620381805164719 6.489558266660967
Ge 6.693851455791674 3.4977582919810986 7.7700607203285506
Ge 7.745061045039796 7.640192104139222 6.404786976946543
Ge 6.713384772867881 7.121707999999688 8.666226403528032
Ge 5.560549246195053 4.957436633061194 9.489342000587355
Ge 8.168001428649735 9.483766138944823 4.432061951579853
Ge 7.659751253400213 8.448315661821523 10.948768148041577
Ge 5.578994674006473 3.8201418074000335 4.651155147402438
Ge 5.695318541007309 6.205713031372216 5.572920469186048
Ge 6.880082887167598 10.200124166071124 6.701522455894414
Ge 4.0522455991891055 3.910490417546918 7.186225041779162
Ge 6.341285328182289 7.649095379404246 3.572001561867652
Ge 3.053256407789785 5.607850598667378 8.681666182559555
Ge 7.208890867642647 10.89322917674423 9.259135577380976
Ge 5.543173213360465 10.183059594389361 4.097072290551511
Ge 4.194616878188194 7.3881862234825695 7.1639078467815756
Ge 3.848909873914723 8.06287244975228 4.417882007187016
Ge 5.112021732142189 9.23407662876638 8.861575231915573
Ge 4.155046916795494 10.025882315208506 6.433171054360838
