29
Energy = -114.81291718 eV
Ge 12.262662910898394 10.83282298859543 3.52582574649465
Ge 11.266905407149897 8.583349324625022 4.212259606126854
Ge 9.720075449440264 10.914932123142647 3.28773350367653
Ge 10.809255668137194 8.55604313522919 7.185227290221726
Ge 10.901642344348183 10.968747210871436 5.740368693191742
Ge 9.795971396956128 3.8895365090861787 7.036236014053193
Ge 9.444930188472766 4.792628276812002 4.32660188655511
Ge 8.275488033652444 2.6642316800681467 5.319519141043546
Ge 8.693591854506904 10.428472177990491 7.173093037016507
Ge 8.139970523132568 8.141403700833672 8.258455615581415
Ge 8.369674409369917 6.772146287730223 10.39303147160619
Ge 8.83893759505577 9.199777007497499 4.902818497166675
Ge 6.7949109379718005 4.794810567048265 4.693715874259639
Ge 8.073255645979211 5.1685358501213505 8.396910373802905
Ge 9.622067462783408 6.400964803695971 6.397359742022043
Ge 7.10615622206162 7.24683975123495 5.9712434076015555
Ge 5.76923278190468 2.857241951698265 6.3795302439535115
Ge 5.6275471776525405 5.254536583428218 7.502910011044459
Ge 4.725536117391401 3.255305444467235 3.9548213619996537
Ge 4.506394117006664 7.219790575155225 5.913526605160051
Ge 4.723340213521484 5.871509435790214 3.532314785584832
Ge 3.572986666842246 4.7121354214504985 5.827154928129404
Ge 5.845976798499543 6.369859991679114 10.235382734215007
Ge 3.2162338250998834 7.339853534466166 8.247093955708257
Ge 4.329764996866182 8.381763013622091 10.503854830032003
Ge 3.8257101963654305 5.011628527852922 9.579795788540228
Ge 2.240453568967493 9.436459862611207 9.221172191220786
Ge 2.317741771611066 8.902472688879149 11.859799850494365
Ge 1.8468932218018088 6.869973339952127 10.42795359086245
