20
Energy = -79.89740978 eV
Ge 9.220015757533087 5.063869318644945 6.014560131246301
Ge 8.96991797156924 3.7254701467491134 8.27628763249482
Ge 9.724266429859167 6.2668619305315945 8.612188535876435
Ge 10.599129318538019 7.258931550853306 6.455903715941985
Ge 7.066135845122711 4.3016595294697595 3.7767379092157487
Ge 6.464223990189901 6.291774442432083 2.0156947136909067
Ge 6.933857944831889 5.2170375550365655 7.471856343216191
Ge 6.417034617204984 6.634310263798667 4.6411755746008545
Ge 8.091561031297879 7.580400299580429 6.480317052764026
Ge 7.687819536162487 5.401926181201959 10.007364185400574
Ge 6.894068187577161 7.629661997433554 8.814496630009812
Ge 4.5545616877851955 4.66707523476409 2.679279540604105
Ge 3.1923563475430976 5.959530616342002 4.566180640639118
Ge 5.190664025823931 4.276196741615289 5.632652281499705
Ge 4.361563233997316 7.577079063752771 2.8522719739759625
Ge 4.666768284993691 8.386338771424732 5.404989679543348
Ge 4.628514760369811 6.918068806088832 7.624634849748732
Ge 1.037275595652417 5.590831785520587 5.7972798280759825
Ge 3.093974894250165 4.831622180509893 7.245750304013716
Ge 2.3084416738082147 7.583529638369678 6.801595116751794
