29
Energy = -115.92892775 eV
Ge 7.483624662079553 13.874100889531528 5.736655310495524
Ge 9.306981255329532 13.51884006247514 3.9371235807906158
Ge 6.6244083778217515 7.585327613476331 8.946007721017688
Ge 9.005777509092468 6.616060927146461 8.133458384280239
Ge 9.525566664136747 8.211559409102378 6.091088436906521
Ge 5.357333973577239 12.88200407236879 4.695614426053404
Ge 8.850552132013357 7.145590307220521 10.755139122857209
Ge 7.914596317059065 11.479950763985563 4.394593950255718
Ge 6.510956361840261 6.024619561520742 11.151254683066092
Ge 4.844444117756527 5.273422036377108 9.14013633455921
Ge 6.9444752708529665 13.569122788910635 2.864417260199227
Ge 10.584299462920212 5.125963120222297 9.634253542235502
Ge 10.968898974859494 6.746488358654039 4.544507425194016
Ge 8.59270037089374 4.376539269816995 10.997765989077006
Ge 6.712032605694508 3.4172006265953883 9.539631720818964
Ge 6.450633666540762 11.164047898063062 6.598369747650765
Ge 9.43060045770352 4.929052835457314 5.341643559989286
Ge 5.660986528353261 10.161905660835282 3.948839671580137
Ge 8.984727313396283 3.9172911893770856 7.770404298395168
Ge 3.984001249088799 11.09146755370554 5.7414990858317845
Ge 6.826075728567852 5.324107963070551 7.318701280387303
Ge 8.53414370399318 7.23850607503631 3.66360806013368
Ge 5.512903234973479 5.3380238582468955 13.377787671490916
Ge 5.668223822475182 1.6313603760208495 11.107185823444457
Ge 6.9367473712096395 3.214786769764274 12.69774955221658
Ge 6.934858235568842 8.326220176236527 5.399869168791572
Ge 8.149308906566649 4.687978940511168 3.2227256493751546
Ge 6.395712887913496 5.842966483825929 4.771953546499451
Ge 4.513326452976425 3.873359908353354 11.498986626647126
