25
Energy = -99.4051649 eV
Ge 6.932217081154901 5.584245093571944 2.149557389338637
Ge 5.15496260344628 7.859821997749072 2.1718565053929644
Ge 9.094653983031113 6.214031803747192 3.417380425870569
Ge 3.6969251917643993 8.066564058803603 4.3713617456846245
Ge 3.263558346020319 3.6073454439330366 4.495001480324313
Ge 4.112595539207322 5.614249897981707 3.0027357395046934
Ge 7.719170885537882 8.36575081342267 2.530797920881449
Ge 5.935622378078555 3.495430894002828 3.821357824783078
Ge 9.288736417780763 5.895812908439567 6.109013011441514
Ge 2.1396008571662053 6.067437493594386 4.943777060415945
Ge 6.465049639635967 8.14855964651824 4.750401421320284
Ge 5.207943872406304 2.060439853055095 6.230074832574094
Ge 6.8853585042280665 5.673715360031369 4.966897281171361
Ge 7.804324821182545 7.502672277989515 7.468773538760677
Ge 3.720182051404215 4.024005100284402 7.041302957520779
Ge 2.6068311804316227 7.344569802679901 7.228102657220906
Ge 6.972696832776397 9.781065413795599 6.733131241841338
Ge 7.77569819232983 3.28180591395939 5.779812462453422
Ge 5.254759883297564 6.026487114277377 7.405545345199243
Ge 4.731828257070435 8.633170264765788 6.90889416050051
Ge 9.048059479167465 3.9346890431456663 8.06032772731647
Ge 2.9279853301184056 5.43632916574858 9.031000391746577
Ge 6.590622559889635 3.0020435424544236 8.232685936822667
Ge 5.205188233721593 4.639074482043796 9.895734137388297
Ge 7.407377646251893 5.682632381104348 9.196426571624944
