25
Energy = -99.63822347 eV
Ge 6.832273754175913 4.657141936851226 2.0756622681989088
Ge 6.641066864494972 7.16271380317524 2.3818440008342536
Ge 8.459935779964779 5.599760184980171 3.8283832554604422
Ge 5.13934243907624 3.3787067940952564 3.634652753704781
Ge 2.645476125939953 3.9320251405199875 4.155384594729077
Ge 8.776442356423878 8.180733219998869 3.4236775210877552
Ge 4.217921932996413 9.775533094384986 5.252903798825223
Ge 4.3887787372114015 8.091611267959951 3.2016596769002574
Ge 4.196929122162622 5.837218673827972 4.38418632573417
Ge 6.689688549248102 8.75753973008813 4.802347728039284
Ge 6.366939139924912 4.574331805169228 5.437675998761393
Ge 2.696173535325154 5.208800708474737 6.648733537888474
Ge 8.944135604583614 4.555675444548179 6.296299407717097
Ge 3.854427415540748 7.597436541652046 6.6127186368845265
Ge 8.675670341693722 6.490466409514636 8.146792604226748
Ge 6.447191251559249 7.094969304790796 6.790972650250379
Ge 6.348446635486571 10.454384326650246 6.746598191022289
Ge 4.969199724493829 4.537169712062762 7.7104890948331395
Ge 6.789619870743588 2.5789293390681842 7.2056298613873
Ge 8.67444758941481 3.5590006660696987 8.76447681041501
Ge 7.472446829431661 9.054157474295982 8.54437228273683
Ge 4.951667629690878 8.48628662027231 8.776253622778173
Ge 6.035249378050182 6.18425731466217 9.4065933732462
Ge 8.10070263127552 5.4198393662094695 10.552039887695546
Ge 6.200601112516669 3.346085472102116 9.734426468067397
