21
Energy = -83.88539955 eV
Ge 9.370550029063994 3.8051024918497403 3.1075245820709205
Ge 9.856591500664894 4.445561027808983 5.589174213533761
Ge 9.380865298001465 1.8765937935227976 5.006531306196904
Ge 8.482827828807917 6.103277706111328 4.0436661613406795
Ge 8.036892652308929 6.664537498149335 7.674789752870267
Ge 7.178791065141859 3.594990397728642 4.391569697621016
Ge 9.487329866145856 4.5375269464979535 8.080669616662428
Ge 7.920340647264111 2.7923883845686457 6.979649839154634
Ge 5.845759925594263 5.353784582466056 8.328707926889528
Ge 7.44758009371313 8.93348160588617 5.97945318641088
Ge 6.682681456748052 7.4948641986129925 9.977654194807663
Ge 5.531192794605142 3.482986119540308 6.409398364933587
Ge 6.368425097274242 6.1422641932406945 5.705371367773806
Ge 8.439824982852977 9.058243062065587 8.488434400750318
Ge 4.820684273883547 8.088539225945166 6.212863673468323
Ge 4.318330969287457 7.394429580264635 8.671675195369229
Ge 5.888993580947937 9.475863030747579 8.234005740419803
Ge 5.372229701352673 10.92671472478579 5.701652772759138
Ge 2.280115595414213 9.029578724467104 7.87252831461389
Ge 3.8798893878206124 11.108894842232116 7.841774893188403
Ge 3.0711679666574874 9.84756023319696 5.491741951504676
