29
Energy = -115.43951198 eV
Ge 12.283779576611405 10.420130762587076 8.738054332838686
Ge 11.067072803274689 11.106048346883478 10.823266616583002
Ge 10.82972498476259 8.520173472976007 10.107365340056733
Ge 8.69910347164967 10.34464993071586 10.775389099503052
Ge 10.738500674795358 6.245094557333904 3.8439041458884873
Ge 9.785551132089896 10.37198808121018 8.294255459065868
Ge 8.229452501131327 5.608556835845322 4.861464763806821
Ge 8.698011109369135 7.930390419887653 11.88423836358086
Ge 9.98992695735373 7.664688496570387 6.161192731341139
Ge 7.561213756353866 8.322430949513743 5.374007232901827
Ge 8.305071763749336 8.105561805439795 9.087606356981446
Ge 8.50573034588017 5.670435153739522 10.6160882402713
Ge 8.50524549781737 6.141795622698607 2.3544727196345008
Ge 10.090060415336394 4.996243131174608 6.480847841622875
Ge 9.538562627436342 8.4745265325251 3.3750210131271494
Ge 6.422816440520697 4.59668891931796 11.933615418660018
Ge 6.073376275821892 7.218129521317944 11.516653190109736
Ge 5.537795981272423 9.023166941089512 6.945797017349747
Ge 8.124928526364766 5.7862792988539775 7.968354507824102
Ge 6.110022098114314 9.394153361105417 9.508099924330189
Ge 5.939904556506079 6.277677536575189 6.545734266263914
Ge 6.8952250755867786 8.232831215154121 2.6886748600397574
Ge 4.021602166477978 5.601194024159589 10.994214911463597
Ge 3.7522703648555322 9.696093673112305 5.233880477240716
Ge 6.002918131772926 4.557013197135268 9.413846282842037
Ge 4.354386931038711 7.462458262658823 9.180513348677195
Ge 6.094111842215415 10.25125416167346 4.338314957377317
Ge 4.969565253869251 7.62115500203925 4.3903269246728165
Ge 3.9616176830004632 5.2118001310906195 7.995257804844542
