25
Energy = -99.55727673 eV
Ge 8.870868301843204 6.86327851844145 2.7432770649414446
Ge 7.0982647031072075 5.088520978097723 2.161497694138318
Ge 6.03722626453221 7.617934774058454 2.7573302668907633
Ge 3.5709656020958 7.7464179667998785 3.770179385831933
Ge 5.0383615680035385 5.380494813453909 3.8605868809786834
Ge 5.69877162757468 3.0703033396816393 2.7439836839665905
Ge 6.275282326378325 5.643995624230074 6.182295049379637
Ge 9.147052304797587 5.286262656173877 4.69802333466165
Ge 4.356154317643329 8.588203713114645 6.122216847089236
Ge 7.544815965582376 7.572782685495083 5.014543118231423
Ge 2.510204027495084 5.399274046673095 4.224780149620136
Ge 10.048914642198453 6.064449520694379 7.005650537777887
Ge 7.4016256437049 3.4652520546616743 4.649943150776269
Ge 6.427727641814004 3.0755023687658705 7.162773737998968
Ge 3.6969168258567615 6.136498997571812 6.45645118673295
Ge 6.719227195199456 9.53241619031411 6.826038292342416
Ge 5.380755027612164 8.637156322135285 8.987600713504799
Ge 4.078117946785657 4.084060044099472 8.122072893581832
Ge 7.626269625607202 7.372360424330204 8.165480554675096
Ge 9.318306827694075 8.705069494544182 6.74537455273097
Ge 6.013627682848827 4.128198978600285 9.840505509516468
Ge 8.109533244894681 4.792829220338605 8.172537758462378
Ge 2.948498576000934 8.029986207760949 8.329312108492928
Ge 4.248795944727158 6.199969192863658 9.827017550441353
Ge 6.888750082057288 6.573815783155275 10.485561893291136
