23
Energy = -91.47367145 eV
Ge 2.800866521197797 6.61542846458537 6.197946356625159
Ge 4.8858297765645124 5.479063557964444 7.02594244745003
Ge 5.0374370388773935 7.391561173027191 4.856326149904852
Ge 3.6287586930695745 8.289500877074907 7.896361561591924
Ge 6.604902109043991 5.672577134778329 8.96616730939591
Ge 6.8439410944432 7.354475702245897 6.705399514827502
Ge 7.638550425345869 5.111867213294339 4.4601842592941745
Ge 7.4295485024129695 8.213180687869988 9.12287575333975
Ge 5.822981441721105 3.439447345284943 5.757235654868536
Ge 10.500711693296289 3.659320697158158 7.36339313266222
Ge 7.9541723670023226 3.875299098409677 7.331465920974755
Ge 4.833314406545806 4.816054782934679 3.6509560862078705
Ge 9.83504180304027 5.512573702938645 5.737743924051977
Ge 9.975793561102392 8.157349820188626 9.10093603826408
Ge 7.18357428613517 3.8611333590501737 2.348401104661123
Ge 9.480158075033923 5.761256292231347 8.463523879198101
Ge 6.702383673099106 6.718011996261574 2.716369364693122
Ge 9.322425733359754 7.9939938533840245 6.560496424279693
Ge 5.385801372221747 5.09306518728651 1.1556313982382123
Ge 4.8606696785971355 8.303304163259853 10.075277584925963
Ge 5.725603781518519 9.764096541842909 7.557272070180417
Ge 6.103655386577533 10.56549929966739 10.065092175777714
Ge 3.68614493342691 10.623059891217853 9.090974642147957
