27
Energy = -108.16087171 eV
Ge 9.591547298295334 6.1136548557717 6.758147867439782
Ge 8.085648055056412 8.070928447378689 1.2009774274781913
Ge 4.8469362294742515 4.70304516858628 5.286705853104988
Ge 6.77744272464487 3.5864410851718795 7.094028969852411
Ge 3.237131883915635 7.408846093705934 6.955561326984569
Ge 6.9513469262054475 8.052605308832591 3.38598657852451
Ge 7.037496561530695 3.455451787817824 9.969211299125826
Ge 1.2838390049857047 5.606594565088122 3.017764297636702
Ge 2.199459319145171 5.409519329136302 5.762292073871259
Ge 4.0650287980052475 9.071011240151037 5.223211041243537
Ge 5.350999060796441 6.03475443543369 7.521352765787835
Ge 4.664185859535722 3.9369122234583873 9.029691060163444
Ge 3.417722534391434 6.900883238528276 3.9615794395083466
Ge 1.8235267657061092 2.830919926816308 3.08703372090812
Ge 3.2157937239059144 4.406158177251595 1.535282134127825
Ge 3.376668417531152 1.92055458415877 8.062697438598027
Ge 8.967051460932893 8.408886503060502 5.5765407091403665
Ge 4.545164972335276 2.7718127370747125 3.3272315570507396
Ge 6.390107586264746 8.025147971464449 5.898922660091633
Ge 7.793770306240659 5.582351991188302 2.146017430696484
Ge 9.68552746735874 7.589870029393158 3.1896997494257775
Ge 8.39227341206208 5.826359113558847 4.637269234192248
Ge 5.916560865059243 1.6136048028734529 8.43188140400909
Ge 2.9897272014641434 2.844699243839971 5.562340894916328
Ge 5.248938785472036 5.419482401168564 2.8261629701597157
Ge 0.34352486726584797 3.9262582564986936 4.944537151807492
Ge 7.710645516980354 5.570759399179221 8.465627737072824
