27
Energy = -107.46823679 eV
Ge 6.685370964122118 5.019598203548542 8.71377866972705
Ge 5.40719116621872 7.250552855127061 7.223027241975668
Ge 7.96347758555082 6.471884453729005 7.079932836308891
Ge 8.11279626225866 5.945255382275792 4.607157899207978
Ge 11.447270587514476 5.7851550467218145 10.846700626590708
Ge 8.991708272895876 8.363731662428657 4.649415525836063
Ge 8.578836914076053 11.300218912705988 5.409262508575977
Ge 7.896923628007692 9.234373045454598 7.0040721280578015
Ge 7.556895655818013 12.41663756323323 7.409567666388551
Ge 7.03462043890592 5.593634521739724 11.212773252255618
Ge 11.105399947668838 8.26694460982642 11.070722775913021
Ge 5.545584532276435 6.01198549831824 4.985022204035334
Ge 10.437749426853328 8.75075522648888 7.155517038966333
Ge 4.0812908061118165 5.941094229208758 9.198708339565439
Ge 4.713780933721762 4.634889754052435 7.071181171566105
Ge 11.374520678093294 11.189905126245053 5.626896949675087
Ge 9.416407481418974 6.414517531088475 12.40926002751588
Ge 11.597929660441451 8.63627883451256 4.8671654186826325
Ge 7.068867121874124 9.929045323798313 11.386559785164764
Ge 10.050336654538667 10.40976187740944 3.42999928047923
Ge 5.748198738755866 7.790416973182412 10.866376586415491
Ge 4.2797338486676235 8.761231808162957 8.960666488599072
Ge 9.844501620394304 11.182883697302794 7.892151596420266
Ge 9.257415345070129 9.033589602750222 12.699127176265968
Ge 10.083120645790572 6.839310362405529 8.816436753633129
Ge 6.486034418573879 10.38706227660803 8.75579836426596
Ge 8.408319324868417 7.898023633224972 10.387881998825065
