23
Energy = -91.87178929 eV
Ge 12.466065747772237 9.217508927303266 7.3020004733678405
Ge 11.082127296434523 7.644355585030994 5.768470715574143
Ge 10.767841427060423 11.209090618101689 8.069188872107466
Ge 10.626797285236837 7.9803587186944736 8.552327010565152
Ge 9.534434473652594 6.057802182550705 7.175839946169225
Ge 9.481218891329261 9.505248592231759 6.307082129743028
Ge 4.801625657107447 8.770027952638214 8.590564908396455
Ge 9.32280084809037 3.74844752573691 8.055435423897949
Ge 8.862135593279609 9.926083299131433 9.204049101913927
Ge 8.554130206111932 11.811207548944875 6.919282749938085
Ge 7.389692600473585 7.207410414771243 6.645801049777543
Ge 6.903348469419051 3.3649161482716554 7.276589633606487
Ge 7.344552926979407 4.637083325303366 9.676799621216409
Ge 6.947374276647998 9.803300246827591 7.520935411056488
Ge 6.222309727936247 7.483740558300469 4.312646994111324
Ge 5.770160815885852 6.409246609998469 8.509829045690907
Ge 4.463484699667446 3.0176038609768585 6.526916133467304
Ge 4.9179302431961744 3.789428634070057 9.072850488787369
Ge 5.6194980531738 5.381585510392534 5.935165099782872
Ge 2.821602498204542 8.286138190625081 7.006322694474367
Ge 3.6764891844508045 6.7966598961852425 4.877880339859237
Ge 3.4689804495965926 5.5875950143319235 7.419487478838623
Ge 4.839517056843371 9.196066077941408 5.763884943055871
