23
Energy = -91.545058 eV
Ge 8.36432185477925 2.095047638713412 2.7879455747943305
Ge 6.627655849285416 3.7487885890284325 2.1913917194081316
Ge 4.154308863118499 2.8375623451813436 3.4499378165982524
Ge 6.450287539792872 2.134101966542761 4.585541951908852
Ge 2.665955021964474 2.045209176551112 5.649200179706156
Ge 4.9314978072278866 5.662453949353497 2.1655259154004023
Ge 8.544872247855086 4.046680603860142 4.472614206406603
Ge 6.9956603302741005 6.1732446545548365 4.00343192451604
Ge 2.5311998488751923 4.823474354685542 2.7025755830309905
Ge 4.987241705142057 0.8684149936589861 6.3926341499640404
Ge 6.80690829056047 2.7612656461041305 7.205496434792063
Ge 5.6181477302869505 4.594819069234818 5.51192945558059
Ge 7.309528243433739 6.391953911831904 6.760031903313404
Ge 4.038770877624978 2.862771196333623 7.73669358407693
Ge 2.7675837041678037 7.309748936624591 3.559945483309265
Ge 5.301962746235776 8.13482339654094 2.990321080426313
Ge 6.5223544118642645 8.55346678196998 5.38018809319098
Ge 3.0918372971169634 4.574773920814879 5.276568234556577
Ge 5.570382712695371 4.966609749008937 8.275971507143591
Ge 2.616668435292162 6.7087407733819795 6.6062303487325345
Ge 3.965760543991008 8.83595434717737 5.438818037610965
Ge 4.964908349965927 7.493777138283356 7.6463131412488
Ge 1.3795937353394219 8.553485164227473 5.242413550944811
