20
Energy = -80.0059064 eV
Ge 6.895727948429277 6.580467139883465 3.265736989307529
Ge 5.541722648428327 3.887804731611528 4.282076217199868
Ge 7.530238864688738 9.17820904396774 3.7500383633013143
Ge 9.051530884384265 7.163878547251777 4.794786900772797
Ge 4.969042542117358 6.414737830394893 5.305522923343841
Ge 4.9684062296566065 8.417187797251993 3.643809435109696
Ge 7.307012803082563 3.6901368272119557 6.280221541247247
Ge 3.3206563583575197 4.412926165580331 5.818612361361573
Ge 7.292309061669222 6.301565234325207 6.433186996786326
Ge 5.4414124326907425 8.279610891005749 7.31625797382732
Ge 5.620828675755543 10.14069962651201 5.490909704779802
Ge 7.923722610597764 9.132129267094403 6.41881446833915
Ge 5.021015531211981 2.2805440237259615 6.336165842725499
Ge 3.752372387368614 6.195840229718175 7.927367070366459
Ge 9.84781153584212 7.195414551797222 7.482636410809466
Ge 7.243950687652746 7.744220325933615 9.157824289125369
Ge 9.232413209540251 9.345947895694042 8.614347282643752
Ge 6.598154831301867 2.635197851952046 8.520746428485893
Ge 4.035194927087704 3.6577363915975756 8.371734616369539
Ge 6.313176568592832 5.252446365946663 8.695904922553725
