25
Energy = -99.88902128 eV
Ge 6.278092671793598 6.9877917717136855 1.848945358429675
Ge 7.856466483281843 8.835977662844074 3.09591283498468
Ge 4.349451412921895 5.614540698495258 5.656047170033015
Ge 5.199874186846853 7.711469520216108 4.101624329870656
Ge 9.663013612255192 7.730422669111995 4.7542091535074595
Ge 4.031452678266947 8.219932163066561 6.597150511668856
Ge 6.091747874823784 4.973937361030637 3.4336332285129916
Ge 7.149385007692738 8.588590898039385 5.609647305173825
Ge 0.9098508033280347 7.013632959452271 8.506301098854674
Ge 8.389970387275401 4.8347887105037595 4.919721609763755
Ge 1.7584247192082154 9.208970154223138 7.393889201778155
Ge 2.9950118313093053 5.48753703917203 7.959894377901101
Ge 3.8500895067874614 10.226238990820656 8.62646520098521
Ge 3.0689600182994634 7.95832996089982 9.466614851403524
Ge 6.226896993327043 8.99215127132824 8.046136509790431
Ge 8.70470084451189 6.240274491731894 2.746061900669033
Ge 9.692411805178017 6.286206433509265 8.869456764120882
Ge 5.413571856641863 6.4957947052307805 8.315614843228538
Ge 7.562585576170557 2.5201955425010816 7.77426743910553
Ge 8.139977521776977 6.617411562383052 6.910791436423837
Ge 6.430813210145235 4.567733475741175 6.680606906956959
Ge 9.634372147527241 2.8492085737714468 5.935080792065166
Ge 10.670004218143138 5.372067288564677 6.472871782497697
Ge 7.534215310055714 4.714752372221191 9.279066605811096
Ge 9.896742465554128 3.6280901642370025 8.464379014891197
