26
Energy = -104.06332754 eV
Ge 5.1231416339605165 3.983719855734302 7.187169007119751
Ge 2.397153901906907 7.875397718659169 5.207021294631009
Ge 9.13410320776498 3.2863722572204375 2.442645962419696
Ge 2.6585167625699033 1.740497865032669 4.2055299148969745
Ge 6.4640862941828106 9.561591830692349 6.336518750250428
Ge 6.665333814738958 7.063575103250807 6.958152521708849
Ge 3.6497896391534455 4.82793276669513 0.9740961779241175
Ge 5.190034098124796 5.258764197795691 3.0001292041067034
Ge 2.9179753005803875 5.718210050439764 6.483908707894973
Ge 2.537820985756377 7.121602231997156 8.626568228144519
Ge 6.766834064849933 1.2412592999902323 5.300621571415294
Ge 5.005521428555932 7.261687408172509 4.969790049359478
Ge 6.87000180673524 2.617043602092465 3.136078515324143
Ge 2.3429932620758493 5.8826485786604525 3.0556068073183362
Ge 7.2457073040291435 4.7569080006471145 5.864160337815823
Ge 4.413505502457715 1.6302537717134207 6.436553972611939
Ge 1.6844033363055055 3.417087769071788 2.1176899720286895
Ge 4.958692921695907 6.168583318937831 8.700218009916485
Ge 1.3753414948342426 4.060449759593809 4.75910611330692
Ge 7.815526493611 5.380905130367873 3.428840241913223
Ge 4.081898716473565 3.8496744547589614 4.794920019185416
Ge 7.944970302403991 2.6544201946000814 7.26893966316589
Ge 4.205615574129659 9.790030168669114 4.995543513938239
Ge 4.215548999120729 8.650783671081419 7.457772827873587
Ge 9.015118773685122 2.8175013963651483 5.013562866722805
Ge 4.36791695007794 2.596425809076682 2.2617688043583932
