21
Energy = -82.49019592 eV
Ge 8.529001269035387 7.241607219677261 3.846225644720287
Ge 5.89908390606851 7.389456318523983 3.14869500693575
Ge 6.686855161602845 11.880403638696523 6.457991977517869
Ge 7.672455301060189 6.893553462035781 1.589211712898572
Ge 6.794360991356955 11.548741701076821 8.92757085271094
Ge 6.639464248143819 7.435839207920078 5.539298901406815
Ge 8.999093859650777 10.83698473558928 7.347267820144712
Ge 6.404277460194211 10.484211068759196 11.191229198287779
Ge 6.480798137929468 9.430979931812738 7.073521350692591
Ge 9.094932095948963 10.910183893838541 10.098334666191217
Ge 10.752148449054761 4.721314558554352 7.0188490899875395
Ge 8.662758270811118 8.533649766396067 8.539825511952388
Ge 9.865757530253195 6.283802173730125 8.924195298147264
Ge 8.341144528375862 5.27525744352752 6.712121896851696
Ge 6.114917354140975 8.51738770955587 9.47718744563657
Ge 5.694450550083454 5.517984744390702 6.980737045353787
Ge 8.325175837392596 8.6404027193768 11.128849096540462
Ge 9.125980752570921 3.1737477166944665 8.334198892144894
Ge 6.613501989311064 3.271144104376316 8.047800360437902
Ge 5.166479898087923 6.088739885588772 9.523244403185725
Ge 7.559571134700985 5.319259315106868 9.4215666482583
