23
Energy = -91.06952853 eV
Ge 12.76282710706413 7.995750527070641 6.84207081134907
Ge 11.199436265274514 6.435226637640932 7.877126353334655
Ge 11.013784155320153 7.102242594187652 5.109833903895687
Ge 10.400690233583042 9.082188384642892 7.024872149644411
Ge 8.105111718844856 5.674713951872237 3.8374117758905073
Ge 8.874726920248817 7.880203061819618 8.805178909225262
Ge 7.550813023044967 8.1504500897297 3.5538817454329266
Ge 9.680871111561228 4.837643130694343 5.836360401548411
Ge 5.535255028883913 6.358925190318857 3.903925914437197
Ge 8.448069295149185 7.300716069345607 6.070824472609165
Ge 6.085315159517381 8.624463665682116 5.914710248754966
Ge 6.904119982145156 9.669784509872311 8.469330409705695
Ge 5.123154252121529 8.830182444749985 3.4993257804768167
Ge 8.467970184561892 5.485240390353108 8.078171648482181
Ge 5.807309110892815 5.198987703098496 8.913813464017093
Ge 7.548478650811317 11.039055390186359 10.536089670510764
Ge 5.331144221923814 9.849961866866675 10.766982476363939
Ge 5.1024066626129425 6.3100241174989815 6.568857004758181
Ge 5.633469889854859 7.710696984541463 9.587450537408023
Ge 7.800197768555543 8.530382535331007 11.114828784892051
Ge 3.3523856207936316 6.84593329455736 8.498888705720226
Ge 3.4540340604929005 4.607268146612171 9.83212488989737
Ge 3.7238360523703316 4.400024836312018 7.3251127698541385
