27
Energy = -107.09205132 eV
Ge 6.724996679737863 11.177665685598402 6.708983995016834
Ge 5.153080353172146 3.113513907338098 9.427945265435913
Ge 7.8511104329957675 8.154299826815357 7.291539482981266
Ge 9.376649241685865 4.428194475287088 8.644366001384919
Ge 5.38684516145169 4.779767818736893 11.256497009554062
Ge 9.921098563196512 6.1524977880883736 6.757419104237032
Ge 7.881676622761169 9.158842347441384 4.848093495710914
Ge 9.240013122398816 3.7137844844616157 5.85572020536048
Ge 5.456552369052917 9.071304735528592 6.249099346842029
Ge 7.066356858127422 5.377753266021045 9.43798113838049
Ge 5.422329715172847 1.7857913452004508 7.174700885553688
Ge 3.3227739351243875 3.5759303271472147 7.350165790382521
Ge 7.134162693828859 3.599228066328952 7.421462534275937
Ge 4.0057552934469305 5.593624442852045 9.103838565654476
Ge 7.661100555330278 5.795778202632622 5.561980233553884
Ge 6.202629017139858 11.04677385144257 4.252364148376665
Ge 5.8529917308847805 6.353520214291831 7.332268309399277
Ge 7.1696327415694805 3.6027892579809815 3.969350172414289
Ge 5.37417149140358 8.47962806840386 3.6237092727383624
Ge 4.779750232946415 2.910018487807333 4.707112881738912
Ge 7.2540570675744505 6.721064975574346 3.233212939789922
Ge 3.1432426985635247 8.157309637719884 5.552711447712851
Ge 4.005977620070394 5.5529766626552775 5.70888930676656
Ge 7.02706860042132 4.677439055654088 1.6218609064509575
Ge 2.9706869993518215 8.759287100493719 3.0048945724238787
Ge 4.9583330657917495 5.000691692142668 3.0826466962201042
Ge 2.7635634059158334 6.209738760921347 3.5103223555072516
