21
Energy = -83.44056904 eV
Ge 7.298737483318768 0.7363413956483166 4.560157037807482
Ge 5.743959161950596 2.556540195565984 5.263182922978093
Ge 9.333559357340043 2.1538327716023677 3.3213357529761747
Ge 3.5606880828026877 3.678029022003056 4.494163605496719
Ge 4.882388729208309 4.5158622753362145 7.113282769610665
Ge 5.702890368207353 4.445642439851323 3.2926646297725486
Ge 6.925537526916778 2.372457017414294 2.552658090221105
Ge 2.625733727059143 5.828836859030945 7.91243456204871
Ge 3.288894054214623 6.026372361299764 5.513141887392872
Ge 7.9927669261073975 3.6768128655000765 4.753013081926267
Ge 4.401365891057019 7.611358216607123 8.067545874583628
Ge 4.457738461348695 7.847545634175319 4.030646628113873
Ge 6.828250972644536 6.8220057371363865 3.454449172373551
Ge 5.783091373585511 7.755117835168397 10.179845686552015
Ge 6.243031354386168 6.4977801194541405 5.916949243414806
Ge 5.422552527876648 9.044039627992829 6.0413287680328205
Ge 7.213318418370659 6.434286875911094 8.437895773522268
Ge 5.154055526482069 10.128477453641997 8.637518253971344
Ge 7.169229689431845 10.614282317241262 6.873001349690013
Ge 8.359278025743922 8.154730984484942 6.627580758967596
Ge 7.677232939652235 9.14807790507331 9.028023959194815
