28
Energy = -111.85653068 eV
Ge 3.2981819182472534 7.828545469802708 6.987678681489995
Ge 8.523033355792496 2.859870127127331 5.884414904461793
Ge 3.9448997232138385 6.995180261353003 1.1009514730872643
Ge 1.9184863418737619 5.46085697413922 7.143073759899994
Ge 6.318941775850685 7.913723431854483 0.46468494172881963
Ge 1.9942510323496128 7.1316373672534406 4.743147048718243
Ge 3.9768728231621204 6.0186027358137055 3.6067852234220843
Ge 5.544596333859956 8.174496415782151 3.080540835207462
Ge 6.108198607590364 4.22927769322898 2.902366648077025
Ge 4.427636043080097 3.413759689647008 5.505558824155712
Ge 2.175240309259253 3.7332945095979553 4.330595940003369
Ge 6.392021951142538 6.184246906232667 4.761634356927855
Ge 3.6391892464289914 9.11875365646911 4.75858434951633
Ge 8.572063060660987 4.607938821910053 3.7500320605217303
Ge 0.27874051314975296 5.24988082901704 5.268727544768376
Ge 2.727862711708849 3.7719792144959228 8.943732388986197
Ge 6.480485236031296 1.2276057947207641 5.808094736430905
Ge 6.09320701340252 5.317825065134811 0.36192697270038976
Ge 3.8827008063378154 4.3431832847539535 1.5087750623194522
Ge 7.699869901694328 2.008484417293794 3.4564014354316828
Ge 4.840882715901329 1.9408434626479802 7.8989705052577595
Ge 7.759105327909718 6.7783287115751 2.313736698765388
Ge 4.573564038038214 5.756407549713093 7.540303000849417
Ge 5.363910764529179 4.1348052251532454 9.425642493301616
Ge 2.4101488579227657 2.097974450437385 6.929574158031364
Ge 5.015214764643964 1.714592778451683 3.640269730969505
Ge 2.484765486737845 1.1430578736666464 4.550637450017968
Ge 6.503240744421924 4.003409959999171 7.005063600051744
