27
Energy = -108.00241582 eV
Ge 7.104884272283982 9.055957497549173 3.307568210560822
Ge 8.751610108921692 6.9288044444227985 2.888403334947662
Ge 6.265739169362119 6.905930930706462 1.8489368864522129
Ge 6.531025712701156 8.549236297807509 5.840101701347487
Ge 9.10216387143816 8.464308396260249 5.0186163893193525
Ge 3.089563377518923 8.889949865293307 5.010405841793056
Ge 4.967833735656145 7.298011113762241 3.985088328733346
Ge 8.919228592869494 5.37310472372967 5.04378975822973
Ge 2.7189923326144543 7.655402251880751 7.377589683444517
Ge 6.479971808479822 5.990922423432602 5.913592717118801
Ge 6.5782922017022925 4.818222353970467 3.5104809109954798
Ge 9.224801730167012 6.037713452697067 7.515107276766894
Ge 1.0353226327064977 7.40757765122246 5.531794921098285
Ge 8.128731467094513 2.780066507026562 4.701875946124552
Ge 3.0848558732456803 5.871384105517782 5.194173440409553
Ge 8.644593745050168 8.59317414655797 7.731056018916697
Ge 8.494458220669392 2.833720043051087 7.229027683762795
Ge 4.631953965383787 9.636840810505918 7.189596300600113
Ge 10.008749604189688 4.011280881518104 8.894293390044716
Ge 3.8442671548018987 3.0719977707102184 7.27058504266283
Ge 4.521153585678398 5.5511132276860895 7.478560536696609
Ge 5.5421567410310795 3.1880383213392243 5.257743268289609
Ge 6.92102268999151 6.642231133116257 8.944870132244851
Ge 6.502908023479174 9.075578181299212 9.359824033161468
Ge 7.548129783983628 4.29977153814295 9.606237161743758
Ge 6.188615915162164 2.7243665248129076 8.160116099208487
Ge 4.33672505332631 7.473903503904738 9.39966985940274
