24
Energy = -95.52337319 eV
Ge 11.83175510964115 8.293498804352032 5.024893472777463
Ge 10.517473170309895 6.801855436646166 6.670934539495099
Ge 9.655351232094477 7.491569118308226 3.9930184320338107
Ge 9.733124307192796 9.403601545832831 6.00120135418638
Ge 8.052614675487014 7.59390200427701 6.157900534333924
Ge 8.92642596665955 5.229440408791112 5.232065417153983
Ge 6.426721657691901 7.883911358559221 8.075334977945547
Ge 6.324578519794211 10.40062048195049 8.60612097163305
Ge 6.765118087895457 4.369007334484196 7.307068346077653
Ge 7.212706702215084 1.7395362184331467 7.634182579783024
Ge 6.651099184806026 5.744125827189283 9.434611064959551
Ge 6.315419271635772 5.421845862979952 4.750115494484726
Ge 8.041083535224706 11.27992719598505 6.74744677602411
Ge 6.0553015572384705 2.4778714881925783 5.301687772128104
Ge 5.196527181666454 7.840582046621133 5.36409688106842
Ge 4.666672448218185 2.6111625206160745 8.065686144067746
Ge 4.159606704030512 11.324584167250475 7.238465246987165
Ge 4.273638690079244 5.150291619958712 8.594484298064813
Ge 3.4359096589941145 2.127854443271514 5.675379569509556
Ge 3.969545278728491 8.626543747698692 7.582846024311839
Ge 6.028788024319122 10.355556329286724 5.686756198423285
Ge 5.151651984488412 0.41096050837504305 6.783125476421039
Ge 4.161486722271489 4.667384960498766 6.04243673674958
Ge 3.5197628349002468 9.83057650872737 5.133023216081916
