20
Energy = -79.49264848 eV
Ge 4.472017248786868 5.911223852687119 2.476105043419587
Ge 5.304133477954356 3.411337998638265 3.2146981937849084
Ge 8.332228769576307 7.685019435408905 3.632665626665026
Ge 9.31105469931249 5.254158034938589 4.427293534249268
Ge 7.085489466454616 5.448176489451767 2.85143332921923
Ge 5.183028512463691 4.031644960839253 6.049704300399187
Ge 4.363528933274461 6.837816976370032 4.875101629355075
Ge 6.627807253866052 7.892601884584507 5.560213902861559
Ge 7.588632459718575 5.159922860748676 6.781732069347596
Ge 3.1334174793672815 4.439544214333676 4.356093209456834
Ge 7.465626561962785 3.3819369931075394 4.745277738339093
Ge 6.210484596367442 9.506362823142362 7.574204513289925
Ge 2.732174781867089 5.3084559249154415 6.808966769792027
Ge 9.210091643757236 7.232313392812394 6.190673552120536
Ge 2.4879267218903913 7.782103746848295 6.436197497623888
Ge 3.848769003275182 3.4342622585885967 8.162899635973687
Ge 4.532674230773857 7.6301422149524285 7.935870521988511
Ge 7.672836750253505 7.5937658999850735 8.300058699271299
Ge 7.767365654121223 5.248556504473722 9.342190622079421
Ge 5.273692272134032 5.4136340503504545 8.88160012794044
