29
Energy = -116.04848413 eV
Ge 9.234337711204878 2.530030132166179 5.8300876221749585
Ge 9.114901895384095 0.3631121978358832 7.204120394213168
Ge 7.2916457695389685 0.795193147440548 5.437252828041243
Ge 10.662341524001482 4.613463023356076 6.00972894752727
Ge 7.392613732251946 2.0442128671993167 8.112334047185302
Ge 6.632270942998496 3.1634015538026476 5.952222004148631
Ge 8.975417196020281 4.277545576305713 7.992128235091556
Ge 11.049393182580449 9.941157331132883 5.0017444474766
Ge 6.975642414569618 5.946648607890573 7.312330727827234
Ge 8.699848548504095 5.931591283533312 5.0837607328948735
Ge 11.15191683250888 9.72198628260859 7.605044398117887
Ge 9.84056800894433 11.326250071655963 8.973320907924078
Ge 8.93569371438846 8.461922755224274 4.4522514457866995
Ge 8.399134457600615 8.109904362642418 7.035841946207038
Ge 6.456537618218763 9.108963704410304 3.8712726949304055
Ge 6.18604619446023 5.352025245403941 4.688220818568286
Ge 9.64078046482298 8.297592870643728 9.247869469793038
Ge 7.509385185618987 10.314037734695564 5.885363300142452
Ge 5.726017056384462 7.386204723558908 9.16223907997107
Ge 9.68103690309156 11.649256235035617 6.4379944244829845
Ge 5.620713504905422 7.72329572944729 5.918756673711425
Ge 5.875601171463009 9.953496493707338 7.857053841515512
Ge 7.290343101838328 9.331982630281056 9.943811774275236
Ge 3.6509182374809575 11.103672971374806 8.098444796541274
Ge 5.47520475105149 11.227096864692534 10.296712386138006
Ge 3.4062932949588456 7.097864518581692 9.983233930966694
Ge 3.5789847344706938 8.41072273193327 7.6180617234551224
Ge 5.338520839330499 8.67250106301041 11.623494920468191
Ge 3.324839377636056 9.697041157221749 10.276987299885784
