20
Energy = -80.15367324 eV
Ge 4.28886055747628 2.4348448825746747 2.0683092365621136
Ge 2.8285069240274052 1.7207015322597172 4.123367490511508
Ge 5.586554776635493 4.657158565109126 2.5748376646949267
Ge 7.204412529706114 6.4878983512026 2.357709567518496
Ge 3.9615977188324245 9.122953891389916 5.121154462683951
Ge 5.301705404817509 1.1083725049435984 4.196651372148657
Ge 5.615441125447392 7.3683792028770725 4.2400608695653235
Ge 2.669788245299654 7.082754025637636 3.9333225180594904
Ge 8.269787518523625 4.4263478064813295 3.726633614299893
Ge 6.895952493320907 2.189151062841046 2.4701775750572947
Ge 4.327003704188491 5.151620208602327 4.799219724298383
Ge 3.8208818018502746 2.9124004736385958 6.228649291510058
Ge 6.277672217390188 3.345333526860909 5.199339252068693
Ge 6.149168108970571 6.347350821778607 6.519999457733926
Ge 1.9737446776325256 5.243118730338125 5.8733780063269565
Ge 8.036324518271572 4.630022927347685 6.519658950137422
Ge 5.778068342131196 3.8377500700276577 7.922491996054175
Ge 2.324060855669192 7.758061276384037 6.591773966698753
Ge 4.8289045508239905 8.292270450298705 7.592662879832652
Ge 3.839604421239951 5.86155018166058 7.918642596491514
