29
Energy = -115.8224485 eV
Ge 10.492224446892228 4.882091565231666 4.459529965136992
Ge 11.054557082350744 7.0347698450875 2.5974965329884894
Ge 10.400835984929396 7.268923643220318 5.31839681201764
Ge 9.720719179546508 5.103120007109296 9.176343931302217
Ge 8.852748668475614 4.95284369131322 6.642673514863484
Ge 8.365724177104347 6.11479303571529 3.5810335211380235
Ge 9.523863419216461 7.462723522051868 7.802600111564462
Ge 10.81758013957164 9.464620970239917 3.702492202830607
Ge 6.615245605468123 3.4571617262552086 7.043459082765368
Ge 7.59894608830768 3.6237481796254998 9.620094817710282
Ge 6.494632285526724 5.802821762438788 5.557734389837718
Ge 7.084817865047691 5.684137359300015 11.081758111988941
Ge 8.956937350830852 7.463793231717789 10.944749311251485
Ge 11.182495895234288 7.120113028226548 9.740322914538202
Ge 9.025420948295379 8.400535298757855 1.915983541877403
Ge 6.194273706544178 5.75281236615682 8.483957035291121
Ge 8.245975912327793 8.589812466960176 4.695708091646059
Ge 4.386143447561215 4.850475824324181 6.756983210178764
Ge 8.498352683748115 10.56519064335991 3.129122450877903
Ge 7.074397931792871 7.836027945750494 7.060880041355138
Ge 5.208113404623801 7.39116291750609 10.655071673799052
Ge 7.186828552836011 9.091949482031973 10.062949195993077
Ge 6.566959666288309 11.311887202691002 8.638087966215451
Ge 3.610572742993723 6.93308649255521 8.659195570519058
Ge 5.166996210723316 9.007929070563733 8.281758241048664
Ge 6.777464557134248 11.279925011264783 11.49309606112652
Ge 5.180960587282042 9.387186334850014 12.304435358147408
Ge 5.478959532336421 13.089471109399762 10.198958357659745
Ge 4.2895996810243995 10.894532954602168 10.369089869957712
