25
Energy = -100.06826674 eV
Ge 2.5905362741081985 6.924225085395665 2.7227141918258084
Ge 6.333487863523961 6.873856466783388 2.387054720968813
Ge 8.659865549167558 7.958043534478935 3.2140613792496073
Ge 8.554136025671374 5.367985912477015 2.664344164322406
Ge 0.8327507333652081 5.716020752849555 4.397117119120797
Ge 1.485875837884747 8.252221634397447 4.789624092940956
Ge 6.391969957600249 9.037293656390469 3.9736883329028228
Ge 6.496535739002525 5.095675487437698 4.320722268716869
Ge 9.067908306703755 5.877601034928262 5.195191223327931
Ge 4.983640366875922 3.111653231276796 5.063436962596633
Ge 4.148675770863657 7.4762821678313784 4.761136259200876
Ge 3.323077262074081 4.964758756929737 4.432632236093539
Ge 8.06162137298492 3.582270283427054 6.877186000133779
Ge 6.676737386566946 6.223739149128891 6.572244584769447
Ge 2.401152155512333 6.394682107521237 6.421318716893135
Ge 5.727754150075934 8.709541281008597 6.646336587661724
Ge 8.280906535657454 8.403686909234324 5.9432948473441485
Ge 6.515055730834134 2.4467319609627793 8.603577060446199
Ge 4.748141179557525 4.132741352212063 7.457455055879151
Ge 10.440722780484885 4.551593687869232 7.103272615741655
Ge 2.9219171616540462 5.384533802287533 8.674571667538936
Ge 5.053779094497985 6.835260236259954 8.696420233692233
Ge 8.842301925198612 6.249596326830367 8.353084270593454
Ge 6.706580611554595 4.9287022157676 9.49291380003767
Ge 8.925090832435792 3.671523570170903 9.40682221185919
