26
Energy = -104.52006497 eV
Ge 7.698013669140351 7.249111365181739 8.080497396043675
Ge 6.131616883550761 2.369748040325712 7.892598810955596
Ge 8.090827017982724 1.1368112060238704 6.365630871064549
Ge 5.759313981572373 1.1632879633932227 5.23395395989885
Ge 8.31944449529586 9.93733539914681 9.2661265037082
Ge 9.679690104788369 9.309376697339266 7.205856973905806
Ge 4.21090159347155 3.081432998801178 6.272607885558296
Ge 5.750208957815729 8.97198081809014 8.525818265402856
Ge 10.175264604402441 6.945256497234438 8.19372679942964
Ge 8.208223965394803 3.7220817790651486 6.6156707166490545
Ge 5.978349959594324 4.99137378893984 7.332828826264187
Ge 6.735688061616746 11.17321385932268 7.634832513903286
Ge 5.279857680022025 3.1352105570915825 3.619298513243463
Ge 10.649481276523554 4.53580910952015 7.265206351308963
Ge 7.852556852949842 2.5452476514734177 4.053487639460907
Ge 4.415985796421458 5.408440870695925 5.113819281191873
Ge 5.342141882910655 9.3602293093799 5.905299143686774
Ge 3.787042838274362 7.679598919130224 7.271760898062344
Ge 6.970965918278909 4.991284013604921 4.682408170387532
Ge 9.787373216975302 5.959726454378452 5.476208381070563
Ge 4.690408030725383 12.067057161387398 6.550569414091698
Ge 7.911706723997973 8.306587623208536 5.713391556274497
Ge 8.448615870583788 6.889608367352111 3.6416180746274196
Ge 4.333707754466134 11.346619915612804 9.264646724444127
Ge 3.3291810760573344 8.9435192035161 9.561437231486824
Ge 2.8786424112775 10.251544668509643 7.189464766979051
