28
Energy = -112.30393736 eV
Ge 9.550647942719895 6.41187603895634 8.460443265776592
Ge 9.844646587505778 5.2519734433513054 6.039117636970151
Ge 8.35730406484129 3.8437725177808915 7.836633026149205
Ge 7.292508856695297 1.5778360519631718 7.093522465477377
Ge 7.654902369587108 5.255361605054252 9.881915099504088
Ge 11.242906383050313 8.32992392894416 7.726177224447814
Ge 5.836327116080332 2.8039073749240373 8.930277027310987
Ge 6.606019381297622 2.268157741707385 4.66236302775426
Ge 7.30122199677397 4.745808026859431 5.299213658266412
Ge 3.7693196112825267 4.097187462019074 7.7688425960574214
Ge 4.637468101863531 1.6758350655977554 6.720515830077164
Ge 9.069504052185067 9.308623268263524 8.52946608347355
Ge 6.824287787642157 7.611438217918588 8.486033675586613
Ge 6.057484167750671 5.313064780543346 7.528813030521272
Ge 8.473483053642463 7.543332706339098 6.217874909008222
Ge 4.63523427828294 3.8556008087924116 5.256188986727319
Ge 10.024466167527807 9.621884299215882 5.842015953136181
Ge 2.216537384562169 5.518880414711762 5.440229463515728
Ge 4.4719148633106744 7.526121521095565 6.0758066448810375
Ge 6.166881112945791 6.878120236668854 4.11307542322253
Ge 3.2942877198107676 4.582786313125107 3.2418756897039303
Ge 7.535301894915495 10.129622417349598 6.5076327577452195
Ge 5.089663090379079 9.806392121606779 7.372246778347467
Ge 4.922859444917305 6.212812376107734 1.970005994200294
Ge 6.038132794754516 9.440052597156393 4.475106043407517
Ge 1.9597683998929774 8.199724152664663 5.469639702763513
Ge 3.25915833622475 7.332402820015431 3.468929576615693
Ge 3.702794830778848 10.21064450618169 5.23562644293469
