20
Energy = -79.64509362 eV
Ge 10.637184120612332 7.052803887688835 4.3199792002988495
Ge 10.42089528059117 7.596516990260273 6.852832786253159
Ge 8.110349601849078 8.404511298349243 5.6752772344118805
Ge 10.784884389793959 8.306466626916848 9.15376280138475
Ge 8.97922020294156 8.77184873981425 3.282376653546385
Ge 8.182096886100318 6.335513503805533 3.2253638075609756
Ge 8.392445462231285 8.938552495004833 8.264974742068361
Ge 9.779389789506517 4.590547001656962 4.215272753167529
Ge 9.070066053395333 6.233895383113956 8.87852652392306
Ge 8.64939531839063 5.553537499557956 6.317284771509725
Ge 3.9014099131000872 3.603297875200966 6.923490528024303
Ge 6.44249978137242 6.484923954391143 5.194900002494376
Ge 6.543330844939199 7.1673857988420195 9.053234851939967
Ge 5.232007546747473 8.064434883677817 6.972195339364691
Ge 5.869399802135422 5.317351708075035 7.466775987651675
Ge 2.191541306758402 4.621626945942198 5.2629030598320625
Ge 3.240780591806462 6.394632258177477 6.873216848553078
Ge 1.795504081093586 4.559880254308003 8.09382416768631
Ge 0.7866455401937741 6.691259068184825 6.557724640893565
Ge 10.784884389793955 4.192570683314613 6.413406469151631
