26
Energy = -103.04302426 eV
Ge 4.938978334770006 12.140508070675825 3.8239924593455665
Ge 5.427519585482949 10.140503477173503 5.220191762031545
Ge 7.989892233692763 10.581961742751993 6.646072528319218
Ge 7.460155681642389 11.82481554435086 4.302978480049151
Ge 9.915102883829753 9.156273847742343 5.363564487970622
Ge 6.041980359865669 10.108836681591626 2.5245968505144782
Ge 10.64878086036452 6.620410633577068 5.897976051685549
Ge 6.479133352229543 8.133942772432018 10.207076503976438
Ge 9.209911431132168 8.067105712056629 9.571596698319848
Ge 7.706119336251895 9.147584987110463 4.090284444256188
Ge 8.476661833096479 7.718718794473589 7.077012883985385
Ge 10.547417430053738 6.190070530983909 8.402356889154769
Ge 8.423713075263883 7.335338243443672 12.164649583726717
Ge 10.146748733242864 3.66466361005744 9.160717808708254
Ge 5.924600261283312 8.944381335336942 7.548208970779192
Ge 4.1864218136083275 7.5688705691199 6.160111161248262
Ge 6.552054275964383 6.713966759430965 5.6991746404243
Ge 8.543574442087596 5.402394380338545 10.430999319062348
Ge 6.021520740358909 8.216799878997971 12.654049204891567
Ge 9.555092672881706 4.2492428138159495 6.506126798749133
Ge 6.162318357361016 5.726515747883006 9.23981297276889
Ge 4.741489359294641 5.172423554088464 7.2755563800806335
Ge 7.062181420388134 4.1741757970190205 5.772601064967933
Ge 6.03896393377427 5.800953995039408 11.832724949624447
Ge 7.630494374558131 3.6776981655985965 8.404526447582441
Ge 5.565827179213885 2.664100746450735 7.181350608438834
