24
Energy = -95.29855853 eV
Ge 11.519675090233122 6.796185297459576 7.155898635833105
Ge 9.617020398081033 9.634655445615454 3.7071902047016776
Ge 9.734738712347715 5.086087280511965 6.031615214712331
Ge 11.571655868763877 11.171497481014793 4.0091252573269545
Ge 9.940160843434187 8.615472047009218 8.159788989186064
Ge 9.774049890749419 7.6792752805965065 5.4078208088959565
Ge 9.54343050479751 11.853024255392635 5.226759401726493
Ge 7.444301449864669 6.399353869215752 5.2306241651341745
Ge 7.392278208972004 10.461497266946498 4.715273097297459
Ge 7.529593974634252 6.919659462359049 12.137212403251308
Ge 9.787742281047567 5.430889370713499 8.722511110312423
Ge 7.388032618963617 5.075062440815514 7.529632503122097
Ge 7.383115238557794 11.462511402507339 9.441046731430358
Ge 7.708801429212481 8.706979848692193 6.665120403969905
Ge 5.987907094114871 9.304092376881755 9.440207860859255
Ge 8.92271909744111 10.931781429083216 7.468361392446717
Ge 8.629394472189308 9.521253845233295 10.566088179669226
Ge 7.109241921113609 4.8537168578980925 10.85535215004437
Ge 7.845911556157226 7.180731196191573 9.306802263637904
Ge 5.5738932111979365 7.455041412617268 7.665957668644811
Ge 5.099312221135577 5.209250703551083 9.183370946141606
Ge 8.258585507333963 9.086391048615384 13.100989410877222
Ge 5.049896364717974 6.758960161439263 11.285955157351776
Ge 5.850054200473709 9.139607428132857 12.047678410349414
