25
Energy = -100.0645473 eV
Ge 3.7830061665728794 8.788841583650203 4.112223463399981
Ge 7.6733822522888495 7.503381934315052 1.8952771373379584
Ge 4.193120413590152 4.234649639773841 3.3273239756123414
Ge 6.193707850589165 9.112157126205178 3.2673199479307917
Ge 3.1646756241769904 6.320058373112107 4.520730666910519
Ge 8.242615630585851 2.530365938142327 5.076749443413532
Ge 6.085800739466107 3.949211327328521 5.268449395242375
Ge 6.488291179329734 10.11071919855348 5.722595902299711
Ge 6.4444500479195055 6.155834634891981 3.6007071041978604
Ge 8.178871416880007 8.295985135347 6.4042143801792
Ge 9.081507036557143 7.4084279735243275 4.110541217729757
Ge 3.755110363711449 2.593761131348918 5.586964546032612
Ge 1.7282747106614282 3.9655758342740977 4.588603399627409
Ge 8.627164406302274 5.174344082299852 5.197604223300356
Ge 2.2147227562826255 3.8581016201426896 7.255629301465814
Ge 1.2856453274848227 6.148259964905146 6.267005802666629
Ge 9.700330019742676 3.996424743143652 7.327071754826973
Ge 5.691657946078287 7.56860795925112 5.603471200323269
Ge 7.539521080454426 2.5159372589567393 7.573334668360619
Ge 4.022088198256351 9.522923877701356 6.56759799494007
Ge 4.839089697019178 4.340675423276128 7.515008302958702
Ge 3.759147556505708 6.7224331515668805 7.154550947478376
Ge 7.49043415240073 5.938601132169536 7.435637919549699
Ge 5.895217551268122 3.003601375247866 9.440925770184574
Ge 8.134034494744231 4.452986199741028 9.392328152900086
