22
Energy = -87.57023018 eV
Ge 8.20961931404945 6.291047047621551 9.988068676278658
Ge 8.04689531339803 6.984726080571868 12.37924299040322
Ge 7.867824721766641 8.278642496377028 0.6172016922100726
Ge 8.288309833802494 8.40555262767568 5.9416692045422215
Ge 8.356543836553874 9.006974898620166 3.0978215520854095
Ge 6.196927187400888 4.247405429613245 9.626919729418132
Ge 6.243685568568377 8.193899093539876 10.919137447838468
Ge 7.665825541082086 8.597433942736705 8.725436018504217
Ge 9.992052358337245 7.424811294618746 1.9826897395235625
Ge 7.549460770258427 6.130596975427031 2.1510315957801454
Ge 6.039044175434579 5.5093194563080585 11.811032864342597
Ge 9.188941864091792 6.402248705374645 4.34316670209477
Ge 6.466015605734548 9.76397709490802 4.634614482218307
Ge 5.269573052903969 7.767357898045604 8.208768983548854
Ge 5.752530517938501 8.36912317876861 2.281517659618632
Ge 7.537877953280287 5.945822886775041 7.338497187941115
Ge 6.1297055936358165 3.5313043844384127 7.059797488623631
Ge 6.439367016490439 7.060148966403347 4.498708014236339
Ge 4.146603689975874 6.385656470417555 10.189717887851309
Ge 4.961755391745176 5.949313905843078 6.401912417998644
Ge 3.8339481407703544 4.169182685685506 8.750043028963594
Ge 3.6484714098969655 3.756367774709485 6.307732744739262
