27
Energy = -107.57987895 eV
Ge 7.0502474594928515 7.330985232345231 8.772171890543177
Ge 2.627437416262569 8.490357173456182 4.209040024847433
Ge 4.70855986813068 2.6450264654201905 4.820156259957708
Ge 8.195074779799096 6.68061009199215 6.30700031844105
Ge 4.956261976605319 4.445690637380969 7.6880988105331385
Ge 4.049277789263186 8.218091914616169 6.282743265786917
Ge 3.6790028471034253 6.973404802130273 8.549264976028557
Ge 7.291133537271879 3.73016199318584 6.757797642673773
Ge 7.990935736904724 9.218482547460704 7.2671712202343794
Ge 5.709037842471361 6.236929503838532 5.538919461165833
Ge 7.7980960731495195 8.862560686619013 4.533380855299686
Ge 5.848754102294486 10.025773307484126 6.150530836260525
Ge 5.904771191399818 1.5734640781076545 7.153312443371033
Ge 8.943831299839246 5.113813743501721 8.23413013823459
Ge 5.113390659921684 8.944809076694686 3.471384842648728
Ge 5.339416785363806 5.484948534022238 9.930626996170362
Ge 3.019374990476974 6.040242712279142 4.822252289878089
Ge 6.448039879861872 6.954828865676869 2.613621164990996
Ge 7.089448397549943 1.4356666395406446 4.814385835930863
Ge 3.2804860706251544 2.516506944694747 6.959680543908038
Ge 2.433688771875595 5.060101195032258 7.121498971132825
Ge 7.903289153679204 5.7888048693099865 10.495846950176052
Ge 7.601466531008566 4.128149577503104 4.189816191394428
Ge 4.86843382696706 5.023971740778706 3.312016941883199
Ge 8.874800792953948 6.468282552077652 3.8290828093023674
Ge 6.049007192699747 2.645322848864516 2.6267117792914654
Ge 6.5433449429972175 11.026850491235654 3.874967955033377
