21
Energy = -83.29021422 eV
Ge 6.660002616382688 8.329850857677249 6.151755459803313
Ge 9.026579564900505 7.55933951774702 5.244900016185532
Ge 7.2150564017109255 7.417418396597329 3.5168534551115163
Ge 6.230616573387621 6.77703968521193 8.208970083784443
Ge 8.724163011347407 5.256063454671411 4.2287036301919105
Ge 4.612973325835005 7.9847613320574915 4.406973331000752
Ge 7.4092955150926105 5.457615905681694 1.8569727829281537
Ge 5.2467577142510065 5.8506527139460385 5.804306183087747
Ge 7.400427870550189 4.595541783409059 7.19271742886893
Ge 7.978877410329662 3.0598972188965043 3.0909119528458224
Ge 3.5263833454203883 6.431302978329032 7.931899676956396
Ge 5.257741809630541 4.336365511052684 8.998228760725938
Ge 2.293425268580195 7.3040692843956565 5.6955147328444555
Ge 3.8106155192237092 5.787604074287054 3.2829608018736516
Ge 6.310657512165964 3.4741317921868715 5.026214804359161
Ge 5.441977469708831 3.8133176564871576 2.3225801036194356
Ge 1.2997043823513685 5.210138858056506 7.088376361669249
Ge 5.84073613836288 2.4021104781666343 7.3805133665639815
Ge 3.5628491199681354 3.9780180468115613 6.838459494117624
Ge 3.636889568099154 3.153745434890014 4.380763139528105
Ge 1.7012218676251776 5.007716109595634 4.411265259744326
