26
Energy = -103.37330474 eV
Ge 4.431601914269926 8.019365231038512 6.2093932686045
Ge 3.0222792826123395 9.909601507559394 5.012484617701934
Ge 2.226983551527444 8.944215180058697 7.465757502188154
Ge 8.257346345604375 8.581832576678323 4.616862162320724
Ge 4.041453832318366 7.905260231790993 3.5901073621150164
Ge 6.541392260195939 7.574081870298212 2.8407280324530464
Ge 6.80926714736157 7.321136524580678 6.328096302278217
Ge 3.4284823783396887 6.598015062487169 8.179691797714026
Ge 1.2095078462341113 8.128687013434996 4.765798381887697
Ge 6.023789389518599 6.438829041442224 8.670167095800043
Ge 2.5917662778749113 5.895551827277845 3.017509868570132
Ge 6.144319814229685 5.648923277897086 4.494348544892132
Ge 8.987334948087028 6.096970708911607 4.582045570445464
Ge 0.9277255953887111 6.474754400149062 7.219698653258876
Ge 10.593265540992286 4.085496307916129 4.5048048985882705
Ge 7.756432108340031 3.8613305090097554 5.674502352947735
Ge 0.6266825533911182 5.657341482085297 4.708618583574057
Ge 12.115196368263874 4.505971832175117 6.582884997859179
Ge 5.769352255652786 4.07029052440674 7.547661604523642
Ge 3.2058104274274153 5.6454540789183625 5.6692637235317775
Ge 9.942257489321028 5.7938598753321475 6.993665018636616
Ge 9.175391303626832 1.9568294922602445 4.802025456163025
Ge 4.691949526001987 3.586394065843782 5.223212317306638
Ge 10.32947081848651 2.7362236158859203 7.04286334783552
Ge 6.613243729962638 3.995383218733229 9.907800365107324
Ge 8.520674982670483 4.099462520506602 8.255298954193588
