27
Energy = -107.31102276 eV
Ge 10.384986364353828 4.836221615255752 4.313183035888766
Ge 7.337804405079645 3.3627191710221886 7.662019531969816
Ge 11.945221922125532 6.582793890267155 5.765251318368064
Ge 9.67883960049829 3.5715791302015596 8.610130302950104
Ge 12.186323939043987 6.258260803297983 3.3164135495927423
Ge 7.850065550458177 4.747937717245537 9.947526677945717
Ge 10.067782189972208 5.309243171519181 6.837382995440529
Ge 6.8399616520368625 5.290216386338049 5.964751758907536
Ge 5.180669350859359 5.472243960402038 8.597894830999733
Ge 5.738560007919866 3.266567324514654 9.726486966514571
Ge 9.952506090536179 7.673117849145229 4.045285327686576
Ge 7.916960144858581 6.034383208890731 3.603686944678083
Ge 8.548095696809817 7.2523054085493674 6.28601522237567
Ge 7.12142664593722 7.092199267372744 9.229040945522465
Ge 8.142488654982184 9.115915900781019 8.083081057688723
Ge 3.545005501669716 7.685914257923017 8.562035604990712
Ge 4.281915008172795 4.994193965176375 6.167255597523256
Ge 6.386438239935865 8.246655011891173 3.5749421124195195
Ge 3.9002956642491835 8.325370250157693 3.2499933982499405
Ge 5.691623728913844 9.267275672168552 7.5031025341774535
Ge 2.358962770256529 6.93296407056155 6.425060276326843
Ge 4.8849591180302046 7.514025871477939 5.615131451548147
Ge 6.554304912918261 9.167938920997091 10.76286540874132
Ge 4.808223218321405 7.295779630103281 10.874336086559067
Ge 5.13523810748672 10.193728653406685 5.0545746140183265
Ge 4.293508650671162 9.829726618407141 9.620965637558847
Ge 2.6300789595730323 9.31901903847344 5.213377750262677
