21
Energy = -83.54628851 eV
Ge 12.826892885980469 7.143552535191866 7.344441324580588
Ge 12.007054897744828 7.609290040052238 9.717371543663331
Ge 10.40219708764991 6.559381278246367 7.696210154620563
Ge 9.235042441287776 7.05538117528263 10.119115343221846
Ge 10.78206453369734 8.458832888953669 11.7325094186292
Ge 8.322152356845713 8.745469116436174 8.36277753020112
Ge 8.911547633865863 5.485223105737503 5.890541797363121
Ge 9.103032861333768 8.525902925805566 5.8248784306117125
Ge 6.6562530034461105 6.856979566962644 5.783832337447746
Ge 4.657944748837333 4.96140181919621 6.636931364582751
Ge 7.061706117415806 4.978532526026723 7.641721548787648
Ge 8.25201131423944 11.448602416264805 9.10995875527685
Ge 10.323132855355196 9.905035361213022 9.72023188075935
Ge 5.342875245152676 5.306829679587422 9.488194602519888
Ge 11.26914992049486 9.19435752324736 7.276277254537316
Ge 7.676159645468285 10.703876509602427 6.628628810922284
Ge 3.4426745113908055 6.671399560565686 8.233426920601051
Ge 5.993115251191817 7.553415828507468 8.30527588798424
Ge 5.9541205037538125 10.237496187044735 8.796684220018285
Ge 4.5268284102777505 8.139364362714318 6.2197983465139055
Ge 5.160547781119648 10.78266492283705 6.471874036143122
