26
Energy = -104.12115892 eV
Ge 10.121488012192271 8.48914190289915 9.79973567791234
Ge 9.469794079539266 6.106915843086134 10.948033684213799
Ge 7.590107875655503 8.546889450001025 10.51898266061828
Ge 10.901072530480988 8.791997788761464 7.298806903175471
Ge 8.898442575219848 10.259226067395902 6.498831181417301
Ge 8.396624631010564 4.304316090888577 9.12773465875532
Ge 12.115545064433649 6.532817828774377 6.767953775727063
Ge 10.184897114023851 6.535108539178989 5.123414819315062
Ge 6.861327487964745 5.985848591638324 10.546176996039986
Ge 8.101610617508708 8.301682457277744 7.993085979651299
Ge 10.175818603314877 6.162948658555594 8.355421814341705
Ge 7.915020009192356 5.896036527314881 6.902106926720268
Ge 8.438416094795906 8.310943117795059 4.96538411773814
Ge 4.561032915807669 7.467764786075472 8.347029326515871
Ge 5.604242005187602 9.90194428313751 8.755952555135398
Ge 5.862205074990515 5.069705285767177 8.367900454752947
Ge 8.175214676072667 4.531553067265084 4.287116508076222
Ge 4.8009688118665235 9.26496041615453 6.2966691967722435
Ge 7.5451307637932805 6.8417427158711845 2.8787890942391954
Ge 9.853763257670646 5.665395929515354 2.7584385262795372
Ge 6.061212359291256 7.065908806977281 5.355331119190984
Ge 3.7683783469438463 8.881321482377775 10.447735118733652
Ge 5.7528885803046075 5.2041448648409965 3.643017536507203
Ge 2.016458605461436 7.46068780610431 9.051838541431247
Ge 2.5855459533973915 7.764888781092499 6.5164079819295795
Ge 2.8106988296272784 9.89528137212597 8.135286169751046
