27
Energy = -108.17190778 eV
Ge 8.127832296713718 9.712007035726 6.526787001087256
Ge 8.06965214094901 2.066507552155265 7.984125467956841
Ge 7.064097639234805 11.710254547027256 4.941796208067836
Ge 5.6549583249804005 1.2148750963201245 8.923579369490525
Ge 5.8034817317672385 10.89996238219587 7.138695349163405
Ge 4.54939132613752 11.214386664223325 4.656412813785855
Ge 6.741289964126549 0.03321096894870634 6.801887391297222
Ge 6.252923882511134 7.967324138297901 7.179964482375908
Ge 7.855365585550443 2.305286121666702 5.403844128652692
Ge 3.959556548829615 0.9000966009417909 6.922988816529918
Ge 6.388159918505525 9.1660706104096 4.622719366074051
Ge 5.440076878611293 1.4467249739263564 4.881298114977962
Ge 6.577336671702182 5.936127813161404 5.235513621373952
Ge 4.2424719869561045 4.973453821140765 6.121544495947414
Ge 4.19905459589013 9.022242890171453 6.021773751704913
Ge 5.769955385107034 2.9882870477531966 6.993661376885094
Ge 6.294494312094828 4.171494789072751 3.1022048177174
Ge 2.094154585525505 3.2383851331349867 6.376142195974765
Ge 4.586403468848362 2.3085269645834106 2.6383718364358466
Ge 2.014940329362568 5.618861376103922 7.408725204783921
Ge 4.177589894171102 6.160718910795856 3.303943366717134
Ge 3.050830858648967 3.884509493923011 4.040920366735611
Ge 8.633294689255173 4.837573120812328 4.226027333873449
Ge 2.751675539689391 7.0726729851224475 5.280200139301932
Ge 8.062649691220491 5.151619461770923 1.6325475454340763
Ge 0.8850498562357242 5.192071660854202 4.907195591341159
Ge 6.731570506870194 7.005221792591606 2.8851916820539576
