22
Energy = -88.38353296 eV
Ge 7.220388828308334 1.6690215789141374 7.083664942079973
Ge 6.052876023753981 3.295320335392331 8.704748730968848
Ge 8.209187507590782 3.1683628562402535 5.149061529422661
Ge 8.956585273221217 3.5557511830208077 7.853051995831394
Ge 5.429932880707104 3.1346975518510884 5.856103517052312
Ge 9.22636304060013 8.359663368403263 6.631677453368167
Ge 7.333353853485875 9.976422929784151 10.445485425669172
Ge 7.38468601278678 5.7469969662391565 8.093377496463319
Ge 4.994971338276109 5.247095663026315 7.257810174763583
Ge 9.293048140845848 5.51581258459281 6.134118780535306
Ge 6.8436508767860635 5.604229433602307 5.4172297243266785
Ge 10.202569026798512 10.753189799227478 7.062902960861789
Ge 4.674699713361274 9.168162188488779 7.3011188236995155
Ge 3.3520310667424345 7.109836437798971 6.7913772876533764
Ge 11.0942405815575 11.119512178455542 9.376163976382795
Ge 9.605062739496857 8.968671096000964 9.213469190203796
Ge 7.0798195005403075 8.29062494982166 8.492346952404938
Ge 5.187928212850076 7.70135366920975 4.8937600253113445
Ge 8.646629274843185 11.822798573583269 9.068767199972271
Ge 7.882545525092638 11.845912800884289 6.404876720992419
Ge 6.151215111029413 11.192857292527421 8.27724337945376
Ge 6.959800806147258 9.42152344002012 5.986852880020678
