22
Energy = -87.8971985 eV
Ge 6.5875851183454825 5.429592206181531 2.622410142638975
Ge 7.744123943742831 9.968423997608458 4.298384977890365
Ge 8.862580455098225 5.09592139514889 3.617913040681357
Ge 6.979322881560382 4.024594000924381 5.13298917347174
Ge 4.3778622484682375 6.6456404579452615 2.486887747515148
Ge 6.2016625583569684 8.681926728107909 2.566392101942728
Ge 9.386765274012921 5.031894098515412 8.956114759098101
Ge 4.982911765868264 10.008418679308969 4.629893584668857
Ge 8.751353047185237 8.535032294018821 6.54391262342206
Ge 4.467112664622407 4.87029463255096 4.513215883074608
Ge 7.835885069278998 7.249107868734905 4.438985036402104
Ge 6.593678213042891 10.09831860805635 6.751944074951859
Ge 8.02042782087763 5.848330304089718 6.969469252450183
Ge 7.017580043801241 5.990836842430069 11.920517740897168
Ge 7.050725836234265 4.372094475926032 9.581714756555149
Ge 5.3120618143968885 7.4913657502146425 4.8723703134916585
Ge 5.389020633775898 3.9760143034557816 11.471436287212704
Ge 6.325502900801703 7.839946866187193 7.932728938615543
Ge 8.093997756273287 7.158005946519046 9.79819798599734
Ge 4.498621877101355 4.306600778586508 8.964261495855778
Ge 5.2806350250510965 5.651445651658248 6.87346625730799
Ge 5.192713700387817 6.54301341447725 10.180290779074378
