20
Energy = -79.38622648 eV
Ge 8.205243341100953 5.268595656462439 2.1116073779400764
Ge 6.602858978163074 6.6056945130595714 3.57526422615599
Ge 6.629112778934643 3.6340713376239906 3.065131862163627
Ge 4.58796661400418 5.404461707697705 4.630578626807238
Ge 5.606070071177626 10.563806058567813 5.41942819084678
Ge 7.47451286291939 2.1733032407715975 5.158795295975794
Ge 2.7070273655821966 6.650834329918997 5.933302544247845
Ge 4.160620104729433 3.128952390195812 3.646522739244234
Ge 4.898207410075263 2.75048851056097 6.062839995573843
Ge 4.541895755657692 8.388166767568906 6.002105454576231
Ge 8.555111819760823 4.655812062532087 4.685065785313972
Ge 5.67951411210558 9.783100909379918 8.035375523608058
Ge 7.068214832266746 8.013459941059397 5.723009874714304
Ge 7.880672308898067 10.212135779368081 6.61750852051028
Ge 4.396514815437281 2.959828915280576 8.507056689448985
Ge 4.406968060859532 5.352682469852496 7.455816371823574
Ge 6.942259899480575 4.885716930622236 6.677544555946012
Ge 6.943950883906618 2.5727343700102274 7.766194251325458
Ge 4.005258288534933 7.801123134424604 8.59037699707129
Ge 6.5853636069771335 7.072374885615177 8.213819027278484
