22
Energy = -87.42814329 eV
Ge 6.39104972854178 9.905787176411202 4.230152395685131
Ge 5.6198474070295905 8.153293633637174 6.7165739760727865
Ge 6.6042309542818085 7.119894817379293 4.51216054105001
Ge 8.446130194695206 10.385271319420001 5.932917128464394
Ge 4.204284952864796 6.04003129143905 5.171957704980867
Ge 5.828711159704453 10.789290183278949 6.660447448291746
Ge 4.2110936821352025 6.2889391666022965 7.797365433503427
Ge 8.660893065426931 8.645999984696907 3.905723822506732
Ge 6.69317427249713 4.522178200858367 4.363684242254074
Ge 5.271283729334373 4.067964600767088 6.573536676163531
Ge 7.461482725782859 9.466070222799203 8.363687066965198
Ge 7.961910273154338 3.817849112373243 6.538975636994398
Ge 9.870207211878025 10.637032504667577 11.555926578942305
Ge 8.32685301752217 7.717357093856062 6.450992735247519
Ge 10.108144425975144 9.935455097542794 9.039206261922331
Ge 7.036669294965341 5.336481962199965 8.709017532003225
Ge 8.173193245436783 8.817453190753202 11.003842183369773
Ge 5.968846677860784 7.539417297650972 9.52084576243592
Ge 6.466407485462926 2.854680991357456 8.455192545583177
Ge 10.921572028282956 8.369140747371143 11.247431808779533
Ge 9.617218831109552 5.760114461387721 7.39754636551675
Ge 9.692892531207894 7.3248590498995965 9.412043428724848
