24
Energy = -94.20597457 eV
Ge 11.518125253868124 7.279951213019146 5.513654195162922
Ge 11.648087723771319 7.804386767335915 8.2466017882672
Ge 10.332671468231323 3.7297486784017515 8.424576353474475
Ge 9.551536479536935 5.443176190042895 10.3044784805303
Ge 9.988260029955812 5.917301982552126 7.104757256040335
Ge 9.278709883656338 8.670195888174057 6.136571780717205
Ge 11.631934624169281 9.735079028335551 6.463865435906885
Ge 9.787730448199891 10.039916503651137 8.43904555023044
Ge 8.960403861868476 7.632806649462227 8.980132642686327
Ge 7.065967848366503 10.704431545775748 7.590726386820214
Ge 7.42616848595667 6.607713944915303 6.765810913710652
Ge 7.521206920590157 10.401526483494326 5.040316079577128
Ge 6.984886805155734 5.1020920987235385 10.8817982402264
Ge 5.443501313057249 11.779186887869376 4.5734141973266675
Ge 5.983399376470943 2.657967100113718 9.973768964475804
Ge 3.6587653022441096 10.703409062747705 3.3231382584091196
Ge 7.882302592677949 3.7190720565861084 8.768624731598175
Ge 5.541388409923539 9.156278974059527 3.873172945950863
Ge 6.44601011158521 7.316056967279443 9.274919858371845
Ge 4.507201542955223 4.587883243488764 10.707809487267534
Ge 6.04012480289788 11.580326453726558 9.623874559144586
Ge 5.598556809918467 4.910038106422335 8.260843789001623
Ge 5.648695677628491 8.62993863692599 6.458990237952474
Ge 4.969251517148278 9.49444179861145 8.792251136200223
