24
Energy = -94.25404437 eV
Ge 9.54895657887656 5.877430084124272 5.311516849243757
Ge 11.12669098967685 6.694088675758259 7.09423921399396
Ge 9.269630257246542 9.529901312119756 6.2080228331679495
Ge 11.233833848441567 9.267877480318626 7.750990179389933
Ge 8.820958360446562 3.4641679300990424 5.744366255442874
Ge 11.177882624378386 3.7825978388922974 6.443259338161853
Ge 8.101158249715072 7.923557289436365 4.690926125230304
Ge 12.051847730814805 4.834418842144581 8.51024471637459
Ge 8.934743175402218 10.960536774208 8.618387388090547
Ge 7.403802464665043 10.1370337166399 10.60202992662091
Ge 9.268700695392708 4.807129140212284 8.082644231194536
Ge 9.135531885245442 8.259473454678652 9.228477658792965
Ge 7.141793439538819 7.615046821937075 11.102629345368259
Ge 7.943023468037055 7.176002764307101 7.18549216290087
Ge 5.606325003066494 8.624152670280028 4.413187372025971
Ge 7.353896608031645 11.281673840859634 6.495398284754459
Ge 7.454599717451979 5.949697401501323 12.82703372973437
Ge 5.233012159056257 6.395867933846583 10.082983774806479
Ge 6.239972992371065 9.666631403266264 8.3947743056765
Ge 4.927720771319863 6.324620047863052 12.496855318396754
Ge 3.75741203319659 7.937162680252729 6.022217019138814
Ge 5.946534547246028 11.179695344670924 4.256050254272585
Ge 5.502550711552451 7.267093552031946 7.749378356470538
Ge 4.689547978326721 10.364351578063532 6.34023042562487
