28
Energy = -111.2910904 eV
Ge 9.08979210332797 3.837814486839388 9.298700206054543
Ge 10.002346430229222 9.944337390838523 3.095662743399513
Ge 9.40562436623229 10.858159117197408 5.506150511932746
Ge 9.846891439476503 5.173331783923585 11.421301164791917
Ge 7.953336549715962 5.605523035242009 7.565199584279558
Ge 9.793907669755182 6.656174605192549 9.057415934299085
Ge 7.8241535546933925 3.1398458837744214 11.409020842281167
Ge 8.347740070203152 12.114913363931917 3.425403497659658
Ge 8.206832522390211 7.709553132845033 2.774580494554013
Ge 7.231499777145305 9.880481458768699 4.148531230124245
Ge 8.903674792968417 9.09708207839717 7.723508883063806
Ge 7.74976845494478 10.21344285464898 1.6298358214935798
Ge 7.540915956456131 7.663038158695413 9.766978466588466
Ge 7.641523268237991 5.618597545595749 12.739794156808454
Ge 9.28630284624776 8.111232643735118 5.208689357447676
Ge 5.726662099781892 6.91262418677293 11.411676333525177
Ge 6.297530409810631 5.501294065784431 3.83149740624745
Ge 4.279731479072023 7.526686818092391 4.142102284936777
Ge 6.238800107006133 9.620389962830858 8.684381336362728
Ge 6.2788761866359755 4.7480548205973365 9.516847076450112
Ge 6.8111306243814775 3.439051023244935 13.722274943674483
Ge 4.086623980137416 5.239480253753349 2.5491634891086994
Ge 5.527651177061035 7.445235951430599 1.9847528735299902
Ge 6.674282712713676 8.698064078399241 6.285149024765825
Ge 5.248228634528892 4.313057473070095 11.825805553199642
Ge 5.0754445412355755 7.179072598736114 8.642798847301117
Ge 3.6166026286386397 5.207058103514936 5.033931443322791
Ge 5.774596708932227 6.314842773128233 6.256908813485605
