24
Energy = -95.81529946 eV
Ge 2.979058101679256 9.424790822413076 7.027239870340938
Ge 4.84860432589014 9.606815736788015 10.160001054446141
Ge 5.556097455339459 9.702893386088624 7.6086983488135145
Ge 2.0530628288092965 7.05991694269413 7.062109161534141
Ge 6.669179320667435 7.739949230407854 10.279006690127941
Ge 3.545250472353042 7.782405172401121 9.076597641257857
Ge 6.285550241488828 5.049852377695498 9.899209156700937
Ge 4.585839114215409 7.384013416122475 6.1168482161066775
Ge 3.983227337512673 5.440765963923579 8.07217844659564
Ge 7.742050824276991 4.5460524030592016 7.59709823712499
Ge 7.849084885999098 5.910467376558186 11.867256154124517
Ge 9.168451960512785 4.917958910908217 9.813249762323158
Ge 9.455527044386434 6.782665648188741 7.987841447581894
Ge 8.261483743324186 7.325825019381819 4.7843312325311
Ge 8.628745881118553 8.639028352397768 2.5701444231901207
Ge 6.601919837525432 6.849808358564956 7.748701470781179
Ge 9.673177564231816 5.37763564179355 5.642730264341718
Ge 8.188072689493577 8.971468505030595 8.46041132626404
Ge 9.355404910899257 7.676653543823058 10.5924484136357
Ge 7.263740374773579 9.607102332847711 4.779280102991374
Ge 9.83287643094371 9.698436278375864 5.050033463582549
Ge 11.22797753377303 7.69372772976638 6.331077144570872
Ge 10.69176201852544 7.675823948568014 3.5429890504779813
Ge 12.08550756458606 5.8651342055284985 4.712107064831031
