24
Energy = -95.21789971 eV
Ge 7.870557257129846 9.522746948390946 4.6479148563070805
Ge 2.535320547391796 6.802055342962365 5.404036223777082
Ge 8.53546813711763 10.700039543999315 10.979594561988451
Ge 9.178825820046825 8.386481460004804 12.173783756599423
Ge 6.34914053551085 7.214993686966879 4.404226167336846
Ge 4.790059263082297 7.115945254684109 6.412810138693209
Ge 9.261493319508778 5.139744025102084 5.533589113353031
Ge 8.491509316578725 7.501330938971052 6.3381126413418665
Ge 11.28919007994877 5.981789379281886 9.45137914790459
Ge 9.22703764411348 4.191394769582853 9.964217233567313
Ge 5.243691028226114 9.254614684446995 8.26546166374942
Ge 8.670290024052127 6.666298925965833 10.274636576038969
Ge 9.4904157997443 10.148580247384348 6.656578734594847
Ge 10.891027369945991 9.689405417126988 10.754279517448916
Ge 3.900818055654519 8.201242162381622 3.846660820035565
Ge 6.982395168105335 7.206630542109106 8.419423231457541
Ge 7.744482035632428 9.904635937349791 8.680100199046004
Ge 11.18215091135338 6.703370846236467 6.762804523423907
Ge 5.151505790023536 9.603608269780441 5.5248221476104735
Ge 10.5632155505876 4.192499435666366 7.617007735575834
Ge 7.880039683696826 4.644257040839877 7.7833204207491455
Ge 7.047404203662242 9.563621297053416 12.631733857487715
Ge 6.868843284506644 11.18892427312359 6.582837093608868
Ge 10.068536276543567 8.252667924774268 8.663918153306422
