26
Energy = -102.90124724 eV
Ge 7.753613926499988 5.700298280631086 4.314682605256013
Ge 10.840994530803336 6.52159543079201 5.517518464179791
Ge 7.643461781951647 7.849492082192519 5.840931655958352
Ge 8.755827265696555 3.476716901612793 5.86324832966698
Ge 5.263247085245908 6.911160870398831 9.598886647127967
Ge 5.378362419119606 6.958367916181347 6.818896052950094
Ge 12.303486637426605 8.720393530814613 7.0795597337043175
Ge 3.270153215802725 5.3015846421539194 6.76506485463575
Ge 3.966695907033 2.9498631569882505 5.172705085634795
Ge 9.648200616239237 7.40834925836278 7.562085805680219
Ge 10.220302905957602 9.148834249927294 5.383272588861422
Ge 6.41945961529835 4.637880367044052 9.34243276893074
Ge 10.018736344549282 4.700423563433483 3.903284318686883
Ge 6.282389507942435 9.115360753480507 8.747369314249546
Ge 4.414047552129411 10.748920237477382 9.089812485907633
Ge 12.87381768960282 7.84750184282036 4.868774318928299
Ge 10.288178955637937 9.850200576029414 7.977419767620599
Ge 6.427531603158016 3.588368670568035 4.812676232089657
Ge 7.741185916639177 5.407514439153167 7.2204120189378305
Ge 2.794070559544849 5.072314278130298 3.9714101534722492
Ge 3.4815517600986223 8.496531631949667 8.362171532025739
Ge 5.13666034245354 3.666354561938081 7.307188894162843
Ge 4.261851969906693 8.849103442942335 10.881583977972962
Ge 3.731421095618918 7.27539898029735 4.772808489940631
Ge 2.105420105351455 8.745349986239953 6.1999278203079005
Ge 1.2771569604639397 6.324514610422223 5.74170250923767
