22
Energy = -86.74807538 eV
Ge 10.027893943301962 5.9890747731977 6.6240340076625674
Ge 9.494924233836423 4.962501472672923 3.869531820977673
Ge 11.832280784532385 5.704359426050771 4.7579316290423375
Ge 8.403462436555868 4.0504955197661845 6.050837189477583
Ge 10.337285440949094 7.6884533600805165 4.257444018882216
Ge 8.342033747728875 7.217888283956535 2.742252304538451
Ge 7.856167324153202 10.382401287431698 6.68913974444002
Ge 9.824305539977763 8.664400722694099 6.614343299140102
Ge 7.328134536261231 6.28548151412256 5.038500346801115
Ge 7.315086132430228 8.9188461729016 4.601005829388499
Ge 6.054060941811299 5.278286632829942 9.12019481063033
Ge 7.358419918567662 7.718885292136733 7.372370796100304
Ge 4.6577240839398915 5.478814421390413 6.888662180194391
Ge 5.072773804411756 8.73172840776989 5.964653068986989
Ge 4.069095569413285 6.257207442662274 11.020964620437947
Ge 5.8491099114113965 4.305463303159876 4.9975969987049185
Ge 4.451962170308796 3.790776919113754 10.44872856897745
Ge 5.696034111998176 9.918417154316739 8.130746598673918
Ge 2.052509176652668 5.123383935205446 6.659892274388465
Ge 4.766627835396208 7.663225703546618 9.052454180477504
Ge 2.9518468109528 7.4764635334513825 7.191308574489743
Ge 2.7833496878311657 5.026549312181285 9.01723392165801
