29
Energy = -116.45963431 eV
Ge 7.543758529956575 12.236555290099949 8.49058344890649
Ge 6.99430688404776 12.294193047509705 5.899706703271932
Ge 9.510292959314933 11.673581766784425 6.774085784903731
Ge 7.704630743992475 9.857175934537391 7.348204668928135
Ge 5.830917754215377 9.913207320228262 5.3275996234481
Ge 5.291704068610298 10.888870187462482 7.725890212989536
Ge 8.458261681089375 10.250392445236054 4.815827074036177
Ge 6.3922216727424015 7.257415609840985 5.408476986076351
Ge 4.728373540067367 6.861766143663609 7.3723218742703445
Ge 8.26944587026615 6.742949574800621 7.421298810124376
Ge 5.7362395493117 4.566321470858734 7.797718339184972
Ge 9.61680498468621 8.303473709802061 9.212477898594935
Ge 9.337011113717839 3.8576857658107517 10.216302892501108
Ge 8.00190634982194 4.731763280616205 5.234338024356908
Ge 10.499716062350732 5.890789883901796 8.720404827828276
Ge 9.219311344828286 7.384103998071838 4.868003141662386
Ge 3.2673810047085015 5.620156637285652 5.501233445030175
Ge 5.550756629920048 4.681227872615507 4.5120068501342505
Ge 4.71904433747815 8.350397024959271 9.413361563431273
Ge 9.131720169481987 6.447116520398707 11.001907853347417
Ge 2.86340897735956 4.3722405669157745 7.76137591109644
Ge 8.341747613045397 4.084010860919742 7.8608044010659865
Ge 7.10636295624901 4.275423483861928 2.4660327370833133
Ge 7.3348498620843 6.865304602058351 2.9502402644337784
Ge 4.361112447846246 3.04025788707671 6.200900995758781
Ge 7.033621766687748 7.331708237043323 9.601713501570083
Ge 9.471407064103177 5.278378316110626 3.2313923208385775
Ge 4.387993359699395 5.642294927904387 9.964730444767973
Ge 6.861358225591628 4.725305185798446 10.346204226761422
