24
Energy = -95.96191058 eV
Ge 2.3316689704673466 7.653292221524953 6.294550216541398
Ge 4.841311289134152 4.649214456537311 4.790942420906789
Ge 7.167374459154022 4.399149794023202 3.5611107796107784
Ge 6.616695643503153 3.2800476905991856 6.4002987289862965
Ge 1.9076979674868535 5.44459725097536 7.57180238517921
Ge 8.382242812357376 3.908058297741014 6.738193378308995
Ge 5.46904532276846 5.835670593411264 2.2287226450736943
Ge 0.7452458820599683 5.757643642613539 5.1066654870531485
Ge 2.221507312504041 3.291392809714257 5.689583373379281
Ge 3.4190701437121667 4.5141140861447235 1.0983704261749545
Ge 2.882160761770342 1.1399846768683592 4.316207638988865
Ge 6.65291105214671 8.13574379675694 5.224511548906764
Ge 2.54120015965715 4.988235245459406 3.4219923683000952
Ge 8.016596462833101 1.9154963624842603 4.616444749698829
Ge 4.188800520496908 4.034964010257289 7.317009305516893
Ge 7.7676257751137525 5.79228807706036 5.808814867017704
Ge 3.990059801834129 7.168197665499568 4.246052951115217
Ge 7.092291829410659 8.286489348607615 3.302224048941857
Ge 6.585190027657775 2.147924528331503 2.1483079040172597
Ge 5.830700025995407 8.286489348607615 2.678321668671464
Ge 4.942947480506542 6.586079633680743 6.694729028567423
Ge 4.065163254354008 2.663048391086577 2.709143226233303
Ge 5.45499226099922 1.1301622839163112 4.707314743636159
Ge 8.133640862633932 6.934948386814389 3.3626425126117234
