25
Energy = -99.86798669 eV
Ge 8.727183527192649 3.130958009000334 7.381133114200086
Ge 6.6367198910558916 2.5702463933067636 4.567427834384621
Ge 10.302112817998403 5.175801099184337 6.223296213110293
Ge 9.311868797416466 3.3650494109850007 4.51821870878768
Ge 9.646252119739344 5.186333718491101 8.747262173877813
Ge 4.647816459708011 4.191200898086275 8.420787938015398
Ge 7.477445886054988 4.969929137397245 5.523842224512538
Ge 4.475010846385865 3.4277863097879875 5.901062668103158
Ge 7.046709442217264 5.031673299453457 8.09134944307382
Ge 7.98650613431738 7.384775582337236 8.518839112895579
Ge 5.409439493536355 8.2054666614664 9.080657845353048
Ge 3.1231169386590047 5.100859062781592 4.487579973640388
Ge 4.578018986327006 6.097340464399204 6.499216168161298
Ge 3.321812160511614 6.596442774078052 8.810311526828617
Ge 5.544254049787691 4.691793478844332 3.5612800322464317
Ge 8.98421001946419 7.30122238046724 5.208144055443429
Ge 4.746634141172228 10.581034091802232 9.397273102600039
Ge 6.497426738490931 7.7902674535236915 6.41924050130314
Ge 8.635276668805464 5.440860166714253 2.863727282892267
Ge 8.855651526392961 7.89219190089988 2.751837087295975
Ge 2.219627897136658 7.183680226426992 6.330236980232541
Ge 3.0873959376899474 9.344787740120529 7.82227894319112
Ge 5.501393220268503 10.152796988884155 6.867704801718257
Ge 6.498934288230224 7.190167854034747 3.7460449686769577
Ge 3.729820915664594 9.167521588378365 5.2593307367803135
