25
Energy = -99.74085672 eV
Ge 7.758494620593305 7.730024832219518 3.084373923672381
Ge 8.743560233601183 9.396442457944808 4.984867207315705
Ge 8.781838786560924 5.2933109364726425 3.6475900428556303
Ge 2.134074120394797 6.564586018171846 4.350813227100438
Ge 6.078475739365826 9.452999897238268 4.605076536180661
Ge 5.22664972327553 6.522264785341302 7.528646287887785
Ge 9.403873306661005 8.088085703617276 7.303297144929493
Ge 6.9216858700973045 8.45941070622567 6.820626025287326
Ge 6.075524754480975 5.535802564512123 2.845020100858693
Ge 3.472630040410291 8.240457174295905 6.03307689369439
Ge 4.603109948557961 7.5151918710530135 3.3276147994051417
Ge 10.166308355043855 7.047316192654467 4.829608459065611
Ge 6.546450856265231 2.085484064601134 7.112432003168704
Ge 7.171124931553148 3.0857508244145864 9.629629447034587
Ge 6.723946376364239 3.998304376752624 5.378300957557858
Ge 2.341473206106933 4.29481829402941 5.759754523415814
Ge 5.164462105542883 3.9617141949746597 8.292261769269562
Ge 2.77310731181043 4.989729476553564 8.403849617423072
Ge 8.714210147900763 3.6765198766026144 7.64179890737515
Ge 7.331342407326882 5.703010594170804 9.029840407534566
Ge 7.352477929852593 3.303237168886445 3.0141162885798103
Ge 1.3694017559081686 6.670494040105065 6.897769786502656
Ge 4.543954699044102 5.520867115895121 5.256332250577394
Ge 8.129760728941246 5.985348713070646 6.329079189942781
Ge 3.2307734940947697 7.637539569951149 8.652935653118107
