25
Energy = -100.12338909 eV
Ge 9.07114795209785 2.623287174276632 2.64302047258163
Ge 6.360273936091105 3.0504710620483424 2.993271701091547
Ge 6.46686092635015 7.9632985308138835 2.7587292344724985
Ge 8.955555328315873 7.259514677434498 3.061845591481127
Ge 5.057634460839669 6.47544132675843 4.135792145016106
Ge 8.320311785097498 4.827108514578448 3.3662038483263226
Ge 7.564653343145382 0.9286029455918026 3.772180374677656
Ge 7.823352451384633 8.160313994808494 5.222569767081082
Ge 3.0273323183039005 7.817588460304936 5.374710744201075
Ge 3.005211283416239 5.049699406095295 4.716751959970077
Ge 5.313027670338001 9.321318804139185 4.638848549805258
Ge 8.293660483368738 2.9368335767852054 5.2361525377297236
Ge 5.982166263522828 4.338931659842485 5.327368309815531
Ge 7.060815619039012 10.119563000247597 6.618408082601983
Ge 6.975957728465422 6.2838350412744 6.754207582403213
Ge 4.030972218354212 3.588947238196309 6.856651961163068
Ge 4.845014448215736 7.779796569973598 7.24786841680747
Ge 2.524661762919353 5.812598378804761 7.19803024079173
Ge 8.295852599069203 8.540205025135878 8.689945982767766
Ge 5.661674688318743 9.544193693588186 9.016514508200634
Ge 5.019136805643338 5.38099011517798 8.399414680552287
Ge 8.021692761914684 5.8952251344971724 9.076980780278982
Ge 4.182783719514977 7.550692073470171 9.987844722224073
Ge 6.836941348557696 7.879243623889969 10.74482665021342
Ge 5.883245486078548 5.4522373606293275 10.741798544108724
