26
Energy = -104.02616507 eV
Ge 7.521168214800858 2.576037076513779 7.8252405013661654
Ge 8.279111908615047 4.71707309224513 9.086752956713804
Ge 4.766918169458437 2.6563915537965483 7.480664570876382
Ge 6.1696714118506275 6.030218381280145 10.032679644714914
Ge 6.001475158552412 3.3154524763980238 9.967478988450567
Ge 8.979036968042866 4.791299544746552 4.921136998675345
Ge 6.231044373155586 4.862192676977142 7.465574616133959
Ge 9.94587479866266 5.501850419282043 2.6390849962463316
Ge 2.810063235007383 4.212029494515951 6.250226351196104
Ge 8.709080474227665 9.564175049900067 9.13438115787487
Ge 10.33378324673487 7.291289716533889 4.4026986147759715
Ge 7.016987940546285 11.45592985452525 10.016484330869712
Ge 3.944425258089398 4.940571215095846 8.798781654667321
Ge 8.535729083486917 12.170521127523209 8.092666943404668
Ge 7.851520264490218 6.809855995116945 3.1109010153636323
Ge 8.455124455221387 7.138537972109347 6.13857638321172
Ge 6.371104349653064 5.595986232290556 4.981200949746748
Ge 4.888433690597607 3.464410311183926 4.70444144738026
Ge 6.928539886691698 7.821185105171617 8.199425575448716
Ge 8.740985285935103 10.192066411492162 6.577257393747191
Ge 2.8656868960064226 6.761716260168192 6.984473217786763
Ge 3.8248369806481812 5.978342836965044 4.5336121702751555
Ge 5.144393693314628 7.6837621125153435 6.214290946125652
Ge 8.354552736085008 9.295075705199311 4.2222658249906395
Ge 6.333981969061418 10.519512344925952 7.796043715918415
Ge 5.962539057181016 9.937337356208154 5.277304451296806
