27
Energy = -107.34799991 eV
Ge 10.14179892533919 5.916196870087239 6.049383133868114
Ge 9.632119044011453 4.708991651228335 3.8147877420045644
Ge 8.668158441636931 3.082792934281144 5.667362562322297
Ge 9.696336559105717 8.456616801665994 6.186455373060331
Ge 12.063170049726109 9.59742596521222 6.835944377381556
Ge 9.394228451550806 10.808039048157172 7.183243966388032
Ge 7.296802701810699 5.303400485978411 4.657090267699383
Ge 11.91107895740137 7.121196926396532 7.562030524037393
Ge 10.116068009287194 8.380258737788422 8.824004989594487
Ge 11.18722728462423 10.775620600405857 9.131972785976563
Ge 8.654114666781336 10.72222604217576 9.971486303276341
Ge 4.571423529878028 8.55651809314812 5.1310899915210975
Ge 8.372320194613428 4.775964373250623 7.5316786408758585
Ge 6.524067662805472 3.811583145792628 8.940954161872735
Ge 6.719167898392813 11.2582762877898 8.16424160667781
Ge 7.5770630356905295 10.24208290630653 12.128540914908138
Ge 8.021775814609962 7.979520924103619 10.810095852066281
Ge 6.214299791931131 3.3243081897612035 6.372637984601584
Ge 4.8043789845225335 9.75055373474692 7.346520874825719
Ge 5.582040897924688 6.051394300783901 8.244854707510742
Ge 6.03606165661156 11.886295618614524 10.615484346811819
Ge 4.842602066759898 4.449201010188243 4.538453940651488
Ge 7.097047859245806 8.534506542716164 8.43940606455868
Ge 4.187333502017483 6.314516993087641 6.199249522348648
Ge 5.5039645127770545 7.444035227546573 10.43774663356076
Ge 6.82701695486488 7.435466835768691 6.080350509900558
Ge 4.7330390677970655 9.881074416309989 9.863568602865513
