29
Energy = -116.13251851 eV
Ge 11.269111900334156 6.498936264007515 9.113705058111654
Ge 8.70027750948436 8.771065988071735 11.834839343643274
Ge 9.412729727176703 8.398316234113102 8.46092825256918
Ge 10.88408419421758 8.75463067496337 10.467609932698204
Ge 10.456811439880566 6.554733775090446 6.607597205230056
Ge 10.652184758946177 9.129304517041698 6.313826083000234
Ge 9.158518348757722 6.494598055597777 10.599670050422581
Ge 6.508220899133859 3.4418025624222333 6.740787315435212
Ge 7.137376897573339 7.09796729173541 8.54463300037053
Ge 6.345552626295926 5.587242228014138 10.855733885772715
Ge 6.304601352038512 8.577341289596365 10.589749319573512
Ge 5.506875647335683 4.9526050652365585 8.508697687847155
Ge 3.4798464500807995 5.649831199935775 10.000696381613688
Ge 8.010674606720785 5.526857850558464 6.373109019361523
Ge 4.567479176389946 7.195546190470504 11.873035842910513
Ge 5.537306394121679 9.233579161471415 8.179550680265319
Ge 4.821872089344929 4.463861424934239 5.057615461304002
Ge 8.748423997284684 8.814417170682 4.667098413948442
Ge 4.086869550160068 6.942691734724095 7.655138085287509
Ge 7.0697697382833775 9.447037681928737 2.8024739198862276
Ge 8.819932798011632 7.223376096978798 2.6763008398481336
Ge 2.95964863016797 6.2066252449661174 5.431161811835772
Ge 6.755952265863684 7.95159885114452 5.9913405368665185
Ge 7.453228837856825 5.249420981807212 3.8372527407109707
Ge 3.4063725911251366 8.400217767554043 9.688703504857557
Ge 7.667316620972279 8.27103588804073 0.6520763853784044
Ge 5.04138030109635 7.189643374795754 4.392827415900547
Ge 6.0344726256492685 6.847222732081766 2.0676745544928012
Ge 5.548782354441703 4.183274409076175 2.600816172812298
