24
Energy = -95.40243104 eV
Ge 10.634051088776022 8.048881251588531 5.991312738011414
Ge 10.944890134378584 5.338327828041838 5.706053297104388
Ge 10.481083244362212 6.559219491870247 8.103470515014498
Ge 4.54244453133633 6.947604141360213 10.92912539810847
Ge 6.228498341108595 8.79124626059623 10.852760379276315
Ge 8.33984462152607 8.693962851474696 6.945709264218308
Ge 8.282422414388433 7.969985928098551 9.420767910640054
Ge 8.510852265518814 5.937476747796543 6.491581965606246
Ge 9.569922528321449 6.770465520166592 4.044685299565414
Ge 6.564412565786811 9.856724098664097 5.103887872258268
Ge 5.676132351495717 7.810990472268714 8.520502934568954
Ge 7.039713142774409 6.134460990301487 10.67757348303553
Ge 6.774331287384318 7.229474181931447 5.027466425838136
Ge 4.4154895849669735 8.463513866565776 6.008469247892762
Ge 7.4316946872761775 8.547563142440774 2.8680632332153655
Ge 4.687261865014085 8.97105523879664 3.252110599638691
Ge 6.349042279806533 3.855677421159836 6.356127808345347
Ge 5.536273393898796 5.2688809946632 8.665091427625223
Ge 4.568583447346511 1.970835919200159 6.532980692200393
Ge 5.686948859527989 6.4666121487852255 2.619911712340926
Ge 4.718387754152705 5.726083596504247 5.403262563583918
Ge 3.250824188473026 6.917521746642311 3.765756046872473
Ge 3.558754410080304 4.186898126169178 7.304497965949782
Ge 5.502236219702506 2.7770752267089267 8.747311625014705
