29
Energy = -115.28221181 eV
Ge 13.545704126581684 7.887637928989678 5.290140433225036
Ge 12.831495254750987 6.285657970889778 7.206587748017254
Ge 11.93758113287086 9.11594836561442 6.717689245415574
Ge 11.17983798045429 6.778838116585391 4.881314372699745
Ge 11.718773305904207 4.475633511376704 5.745449097931283
Ge 10.941639291251915 10.043087590005202 8.858767282435192
Ge 10.268901951364313 6.402537815512137 7.532963418696291
Ge 8.694523766140529 7.8316967558449955 5.681092561917621
Ge 8.81706524020223 8.606443782699284 8.480699903540284
Ge 9.724394625381404 10.27065412517768 6.303585599714834
Ge 9.533175327242057 12.091881680635366 8.052404917360981
Ge 6.10787829611159 12.158369608420054 10.49969913969452
Ge 7.3659668733163715 10.723447263801845 8.668059213057656
Ge 4.662029207898073 10.691681077704613 12.334398075924115
Ge 3.6466784065974958 11.015610251700844 10.036390628823645
Ge 9.438183677202822 3.9578799353779925 7.380868619759974
Ge 10.698840415980914 2.23618097010564 6.258130739872987
Ge 5.077150766655329 12.123339957415649 7.978568716616224
Ge 6.080978072941303 9.360812087022268 10.75209704465325
Ge 5.809764195246543 9.792134843039168 6.67785678235685
Ge 6.5364583844527 7.256896991918703 7.635320628237215
Ge 3.168339031088387 10.281818731092866 7.4925977393816305
Ge 7.501249006597805 6.820779011154013 10.149215127924911
Ge 4.49922271602005 8.633404999570349 8.838186443259206
Ge 7.604525346726855 5.3241347255474984 5.961162654449508
Ge 4.9695846829250225 6.118227254129857 9.620138498444682
Ge 7.277821972942639 4.580426069440038 8.714520831909601
Ge 5.143890807091069 5.1309262060352845 6.88786321756898
Ge 4.8993171019806026 3.608860746699377 8.937124314611557
