21
Energy = -83.85744943 eV
Ge 9.814703283728853 7.541689900987172 10.783899543904528
Ge 10.34212130015967 9.321082040245365 8.76677407785637
Ge 9.313937706949387 5.120011527118572 9.940630909637454
Ge 10.589894431881042 6.768872247828817 8.264662927290331
Ge 7.970279786503782 9.459626362649857 9.982110208014468
Ge 7.180805933138772 6.705544781257458 10.62298308544861
Ge 7.966223760326264 6.285136862388367 8.103139662265635
Ge 6.153389386365595 8.16190372273193 8.629627085841594
Ge 8.284634022899183 8.811129823969756 7.2504506078162185
Ge 6.4015548182192505 5.017927616896808 6.521541300076931
Ge 5.169106425027308 6.90130844848237 5.115848508301792
Ge 4.081263009326976 6.1582984675148165 7.339263804688678
Ge 6.517776651997601 4.853739898183174 3.606418322292616
Ge 4.080609359428021 3.612216913541982 6.497738826537483
Ge 6.30757323120849 2.8030794089715556 5.219764685803363
Ge 6.431539839039976 7.496501687544538 2.890955449753745
Ge 4.107379852373921 5.720690575839813 2.7195312875374174
Ge 2.6759411093471734 5.5388929019830435 5.003893437940772
Ge 4.032526674165475 3.347600527644035 3.756143375485181
Ge 3.6296328177304393 8.299395024760807 3.597683296104561
Ge 4.5131295120019 7.693585111364564 1.2052566344819677
