28
Energy = -111.87839211 eV
Ge 9.696090688024638 5.277156530327453 7.533766039317438
Ge 9.459552386296256 5.401396677940248 4.8242705205205345
Ge 9.300012139255243 7.674927913037647 6.395612972381865
Ge 7.422169290669562 4.840987727439697 1.8455219250437072
Ge 7.173264687960848 1.2855773729991649 6.976070509276928
Ge 5.965632996677455 1.7157948485291037 4.740458369778083
Ge 8.124727359687112 2.8368131217872867 3.403459056491329
Ge 7.1247563038808135 5.381827400554738 7.9281456294898405
Ge 8.117642557189749 3.580355695066218 6.20578891682199
Ge 7.861364718824817 7.3950570163531175 3.914840311842993
Ge 6.268504025351318 11.300237948443359 7.567934760991902
Ge 5.437977897794877 4.684889416806603 9.689096041291464
Ge 7.302533002338331 9.719564337487707 5.568597850821221
Ge 7.688196927656684 9.090476127527785 8.250814065305535
Ge 3.845663821293452 10.357334132396769 7.690070144226507
Ge 5.177923067852594 8.550445340626432 9.060963733682009
Ge 5.094265581176031 8.311736495680353 4.509877881563657
Ge 5.463641561976727 3.0232786841878263 7.5705022998687825
Ge 6.30371983441589 7.4274909486751906 6.725288608262009
Ge 4.951104059917455 10.979289616156061 5.256452545721463
Ge 6.590656117145995 5.117981208883977 4.445436862101261
Ge 3.693719901882509 2.192160208274457 3.7959142517467734
Ge 5.563463014924093 3.4178180277302634 2.4717842163210864
Ge 2.7197352989477377 9.484544171751708 5.483040015757587
Ge 3.435287704322438 6.332581113303488 9.215619099927473
Ge 3.2777155656863965 4.283700009862348 7.609171203626639
Ge 4.293147059190357 4.20573717649582 5.257519880501192
Ge 3.6940373405585984 7.6173380109040005 6.948566124898932
