24
Energy = -95.66045124 eV
Ge 8.369532272376121 9.686415294532377 2.3753408984368427
Ge 7.742087987096269 7.095593424271472 2.546678163810699
Ge 5.768096552132725 8.933520318024257 1.991946141801018
Ge 9.212949313351471 8.328803677184737 4.542978217606259
Ge 5.136145407048918 6.830085241030155 3.6193112835885546
Ge 9.799462288579836 5.021023869738569 7.226473140688128
Ge 4.319808056308283 9.298033710724479 4.656427397989949
Ge 6.827755715298632 9.422777065905189 4.387714051548114
Ge 7.516333645687864 3.9542479772892603 5.857103160546835
Ge 7.988009736617472 3.515825655604217 8.508488766926495
Ge 7.430957069588594 6.507321848832713 5.215103969169037
Ge 11.166234765795071 2.9405031555678613 7.549038070895157
Ge 5.011682359019874 7.22742151121101 6.283656237659847
Ge 10.185305050837389 3.5928621075208316 9.722326920480638
Ge 5.043782838907108 9.58774422993148 7.534279333565756
Ge 7.2941524713440655 8.140536337531543 7.487598520774759
Ge 9.274588519012852 6.0268207923426775 9.499129152523674
Ge 2.8865327727479064 5.893718922530087 7.037503634430365
Ge 5.5239222134350765 4.675113873648558 7.386909088256041
Ge 2.946345925405632 8.092883929974732 8.496330690100487
Ge 6.7171328580247005 6.200999262868613 9.106387029714254
Ge 3.4399961603169342 3.711672108517823 8.392166907893705
Ge 5.349334481416676 8.19722878690281 9.903903554176212
Ge 3.834839932798888 5.9630321853300465 9.661790677202488
