25
Energy = -99.68014224 eV
Ge 6.721226880893619 3.6008325713355696 1.8095182414536435
Ge 6.712946966751717 5.080280173289311 3.973055529338494
Ge 8.988633453458844 4.735315219129338 2.747229481852953
Ge 3.024526744081701 4.397652052374493 3.1693825677427543
Ge 2.862573534989864 6.75238300867691 1.9890357831902592
Ge 4.641732656565551 6.5127280686518025 3.9360987115912107
Ge 5.630829241291694 2.4506297118312994 3.9280522675421814
Ge 1.008397707740989 6.0163487955547845 3.9698121147961847
Ge 4.986104017983965 8.855176364710017 5.000984530816093
Ge 8.996358860030998 3.847475349064642 5.181790276362085
Ge 2.177156652627333 8.281149426112018 3.937402650932291
Ge 8.28575592880381 2.0389337063290354 3.2235165359705524
Ge 7.518374437510563 1.8041008652693975 5.830112399459173
Ge 3.061452847918614 5.358670840127884 5.655537123846571
Ge 7.395133093803552 6.340799304165234 6.4704271632367565
Ge 2.760811491627949 10.082635891253421 5.5430581093126
Ge 9.809252214360619 5.51355143520462 7.0155070520030565
Ge 2.9554150465033246 7.705021904927415 6.681529427877422
Ge 3.812091154364217 3.814007796226642 7.579188722386996
Ge 5.838964068630648 8.20087789064246 7.384423317347644
Ge 6.091349754200837 3.9499136922414277 6.411253183979338
Ge 7.828063868390311 4.457967547807903 8.33212589502731
Ge 4.150455120570687 6.475306517695467 8.809262366182127
Ge 5.509946998761476 4.4796415031948325 9.649075236911198
Ge 6.815656684473555 6.831809790520497 9.355830737177364
