28
Energy = -111.99316848 eV
Ge 4.2396311954900066 4.802321073758456 8.847472565217563
Ge 11.29450812596938 7.867364647159077 11.07001399839738
Ge 8.951674515305502 11.451393200241565 4.142565946687781
Ge 10.98045800929831 4.944026040167124 7.688650129784837
Ge 9.380389173972041 8.571580316251572 9.46083892269459
Ge 1.5736330143920665 7.791159618346221 6.867817604659212
Ge 6.841190219096248 10.397644595145598 6.788855891752528
Ge 5.309149323989221 9.080812821851385 3.886711552574299
Ge 3.4148847942835348 7.349756580985087 8.582951610232723
Ge 11.338779291016621 5.367473212980267 10.284358232463976
Ge 2.8245904768823964 5.417302346525831 6.607601074231881
Ge 9.307511420292707 10.132356009387815 6.55446738101271
Ge 7.915347137653147 9.192771823104756 4.551852352438726
Ge 5.306163852770886 4.160912092269757 6.499762362894937
Ge 8.00270296589131 4.357906525635051 7.203450074202072
Ge 6.3510327200521814 11.430147686700561 4.510905679428129
Ge 9.128687128822804 4.153780118886053 9.699026979211178
Ge 9.172331617676075 5.808625907898641 5.280141668881909
Ge 8.95678790537601 6.373075412229452 11.276105435468896
Ge 6.54032392047157 6.423204424792663 6.112908251404065
Ge 5.444645399135326 6.8985059070784525 10.093653584331518
Ge 9.799517782524664 7.587915452876027 7.039132693595213
Ge 5.831831355600595 8.243809545181024 7.738992712991878
Ge 11.878646704061527 7.42670272982394 8.509637787321163
Ge 4.528918070272317 5.8082028792688165 4.425998960350618
Ge 3.842625675997572 8.027719240098728 5.859855482733764
Ge 7.1103806446499505 6.918396510355167 3.6185581657387784
Ge 7.833442082973078 6.5022096011288815 8.86468144391286
