26
Energy = -103.6343846 eV
Ge 7.146296280864149 4.395982068991374 2.7214497725262987
Ge 5.246787710159762 2.582784270232311 2.5569159308640126
Ge 8.64083676712324 6.538916449892854 3.285587743237812
Ge 5.0069030432650345 5.0657261421239586 1.2344558575429385
Ge 5.993667165277998 6.884679846216198 3.074593997705538
Ge 5.051720028402086 4.528038812306706 4.379150702086185
Ge 3.0465590965798004 3.90830580536682 2.60327622093411
Ge 8.109480810142394 8.793935686119468 4.793364168944506
Ge 3.3752413642447667 6.528556940719604 3.1837068872493246
Ge 9.113053882103708 5.718952612912823 5.812215553095857
Ge 3.6734824226057303 4.851954089723527 8.185447615280717
Ge 9.262772219849833 10.36972272497439 6.493860316999158
Ge 5.633144597247986 7.453540852127025 5.678932356827335
Ge 3.337364757503521 7.2806687822690765 6.923673599766335
Ge 9.0952635424011 7.859941185518396 7.091737750015538
Ge 5.8830930679816 3.3419420716381816 8.189763010487443
Ge 2.8152904688121576 5.045366973447327 5.619032606545711
Ge 6.63257384651407 9.762263601135725 6.901493084179653
Ge 5.03721046591749 4.732674514388123 10.505846546650346
Ge 6.625778996299038 5.3045979717301295 6.700597379806636
Ge 4.104425505790687 7.2018025042348 9.554549394568406
Ge 8.689623013286605 3.800496787043035 7.652335670585252
Ge 8.435309945880991 9.477781215800025 8.940925217140055
Ge 7.595224506179783 5.1411646837220975 9.473171401947782
Ge 6.454981638387488 6.9125922112288745 10.979501698240295
Ge 6.541657031234226 7.474804028315184 8.428148517800013
