20
Energy = -79.87329663 eV
Ge 6.155539190670678 6.566736743221107 3.2668915880583347
Ge 8.598968075978531 5.296483165882548 3.856886958135075
Ge 5.8242389129913095 4.039765778620467 3.491239423974036
Ge 5.399686425523112 8.003506531368314 5.375571367026996
Ge 3.469119803115 5.94954821706714 6.316555863130217
Ge 8.431120514227153 7.492538773370533 2.547619769918082
Ge 7.5791485157632055 3.5508559551897916 5.5522684084395
Ge 3.432433677158994 3.976868807110232 4.666736347193149
Ge 8.178226051109432 7.8634921581640675 5.067557374165376
Ge 7.249620965665653 9.843210576399082 6.409638981584956
Ge 6.25976719549376 5.915430671091189 6.692381230300809
Ge 5.210391805754684 3.3997918030726764 6.710011167294818
Ge 8.90036199815646 5.617859572787134 6.743386019278923
Ge 5.375372024114876 8.059998742204781 8.07568474637538
Ge 9.331512854861291 8.232036501795296 7.417490497910943
Ge 2.692156527908022 3.331797957800861 7.024357245792603
Ge 7.483030117791472 9.140498319507833 8.997231073711692
Ge 3.0327872715593105 6.9910060317326215 8.57704365749463
Ge 7.458748407911194 6.418387687431136 9.006752766614532
Ge 4.624108711555252 4.996525053493199 8.891034560909171
