28
Energy = -111.76971724 eV
Ge 3.2024720773623416 5.7400690658575835 10.028019257718093
Ge 8.458891922875614 4.655414113829471 7.192450442309812
Ge 6.252384044959707 6.588669996627591 3.1758916215777413
Ge 6.812517365228646 3.8928759416486356 3.518294364878799
Ge 8.129560060852677 5.645179026854816 4.866722554239406
Ge 6.033786653493144 5.666897788769586 7.448745699892671
Ge 5.8285156805027505 11.102160431668471 7.211069960211534
Ge 5.328245654770801 2.6121554373464093 5.214114178223331
Ge 3.763602774638451 3.7559688525705375 8.131238402869876
Ge 9.235338197022793 4.916999745391537 2.475925178495514
Ge 5.478638389204943 7.089714124369708 9.576180596626584
Ge 4.711303418140615 8.968636850144796 7.911898197474149
Ge 7.823500167020701 7.869157487033331 10.252571809563108
Ge 8.014087620696673 7.044649706869146 1.2330501265430691
Ge 3.720637148591216 6.990495887227814 3.544007640511661
Ge 2.5913747773525713 6.166143436989283 7.543959322056297
Ge 8.439541964565455 7.688616419064209 7.410645397522992
Ge 3.7525195075372966 4.453148192984476 4.613816031160222
Ge 6.8010107690560595 4.720557437792523 1.0550085995909046
Ge 9.606716422877968 6.286755075463646 9.011957381749554
Ge 6.33569277412838 3.025930081080936 7.693656244140113
Ge 5.598186492346994 4.37094577595371 9.921927677802655
Ge 4.243191371174228 4.720194743904653 2.1427059761154323
Ge 4.497759374525169 7.055572905871553 6.024546723029642
Ge 7.433581657980036 9.760810449398885 8.52785783637096
Ge 1.9128907618927256 4.0203579637916835 6.348105412230419
Ge 6.658734104911634 8.841698084985808 5.853639204667708
Ge 8.942035324384362 7.640766657580626 3.5755566429427224
