22
Energy = -87.15019728 eV
Ge 7.359817551152479 11.16717824153093 5.953588241406456
Ge 7.2014080976483745 9.832702549062207 8.733032362173589
Ge 8.835905818693853 9.84649899061255 4.3826716440116265
Ge 5.93152323332564 9.684053418450532 4.122202060335715
Ge 9.237852943096817 9.410061272704363 7.134083837183788
Ge 6.440146656279361 7.4290357430521246 8.661679676202404
Ge 4.302185988975875 6.405582396600835 6.46897068385664
Ge 6.708923335379948 8.564215561375425 6.3184303513215365
Ge 5.3446368159596425 5.352390722245527 9.775498783448567
Ge 2.897277189770037 4.414390169815959 5.490610990082744
Ge 9.078049120967068 7.0494155991722165 5.941132472607675
Ge 5.80540290751165 4.752761570903495 5.197797862798476
Ge 4.1692803154244515 4.1917341774555394 7.910595889797658
Ge 9.851480306945419 7.728157294600083 3.4454209473649158
Ge 7.216559274779219 5.345728932122039 7.3195964083260865
Ge 7.593166696731341 8.629220875925348 2.2348041442880078
Ge 7.047738753141666 3.5183461380287455 9.099347437754037
Ge 7.174233981375491 6.972015005189886 4.124742822015319
Ge 5.469177806830717 1.655716090954139 7.94912696095369
Ge 4.972234601991866 2.1788186653622867 5.533081947207235
Ge 2.5890580978081594 1.9352757566658334 4.883943060871655
Ge 2.880965101729728 2.02829222109632 7.461293535811291
