27
Energy = -110.34259827 eV
Ge 6.146863363198673 11.60718362661305 7.298477573566971
Ge 8.3457679503881 1.0531649395690232 5.812991281644074
Ge 6.078550013265175 11.60911822449493 4.433556117043655
Ge 3.898111852479084 0.46314785993599317 5.918557210984391
Ge 7.455095051885927 2.1469407221413372 8.132263365445533
Ge 7.3449485734785185 2.1498344863804393 3.5406908577752043
Ge 7.091368965671133 3.3653501806623507 5.844808956111015
Ge 4.98344727977275 2.427196386813165 7.275385571258887
Ge 4.917464277207171 2.429865347282375 4.515815530150489
Ge 3.3512500187287015 4.109109081750642 8.303776275026
Ge 2.863735415824058 4.962972198061199 5.948392460174296
Ge 3.2358821860559437 4.11226823270894 3.5707924017209853
Ge 4.892952858025259 5.993883727175036 4.047621864973098
Ge 6.6073489831994925 5.786437989037173 5.856587837945625
Ge 4.983673322355256 5.9907929900274866 7.747649250012139
Ge 3.8618063480403713 8.21723028198522 8.295206802814596
Ge 3.1799312342095756 7.498174972690425 5.942999209532734
Ge 3.745287335072557 8.22146342020746 3.5614748011099167
Ge 7.581041840194587 11.524364254558217 7.27205480620298
Ge 9.450290175141332 9.94846297460327 5.789949311487006
Ge 7.508779753261428 11.526893632525864 4.406901784697971
Ge 5.78660242458394 9.445607636916808 4.500945119373288
Ge 5.281759295456538 11.60718362661305 5.896358872469212
Ge 5.856185615561888 9.443132229494887 7.26093540925722
Ge 8.322643109127402 9.114106659101152 8.115082219232455
Ge 7.667384742615714 8.010682781476577 5.833094941991137
Ge 8.206970759271119 9.119154171012555 3.522772912071315
