25
Energy = -98.73633566 eV
Ge 6.12505190119259 5.184543339747287 2.1872002725124187
Ge 6.1353582726549245 7.810141709108516 1.9810098636522875
Ge 3.9217684012805623 6.375969613880718 2.017950632207284
Ge 7.492253901537239 3.9278246426383485 4.156519257006865
Ge 8.376111502793057 6.396292356692706 1.836139916482039
Ge 5.877244133149822 5.48466158992152 5.486435793126111
Ge 8.070996222576335 8.694428631581298 3.4769915466110026
Ge 8.685597955911817 6.319904868617387 4.557916331956524
Ge 3.6591859582511246 6.1921979760113715 4.599021581248682
Ge 6.560780677795512 7.915122855997829 5.428946351630083
Ge 3.8681766545160556 8.556628592344339 5.692990342291493
Ge 7.124821513719915 3.2640927116047354 6.786886370517887
Ge 10.023276966818988 6.757057875780977 6.82332683861229
Ge 5.904139629432058 9.35184839731455 7.398508631546864
Ge 9.651121844292406 4.257634124757943 6.0370272303441626
Ge 2.110852540109818 4.8801580060463134 6.166074979456429
Ge 8.637915735645082 5.004401408206195 8.408206931216888
Ge 7.8826607284277355 7.716102420188041 8.114968020088684
Ge 5.984856917321335 5.501311488342956 8.099680068919628
Ge 2.0979388154468315 2.4309778223322036 6.443120653502481
Ge 5.83995010804748 3.238190801505104 9.17019030587903
Ge 3.792793168890727 7.120759109746493 7.766037145390926
Ge 1.9693509151047548 5.521854827240571 8.660724423752686
Ge 3.5092531327599827 3.517307483035051 8.154134352925468
Ge 5.731073399799693 7.613118344833409 9.58252315659732
