21
Energy = -83.37518285 eV
Ge 6.8825718162476806 6.465477422972315 11.673480677764028
Ge 9.132593877954875 7.448142522649586 12.663673626656207
Ge 8.130565731293018 8.813130440939405 10.738964483258085
Ge 9.485777670573528 6.330284434933628 10.42906635217801
Ge 7.370094526775754 5.767011005665665 7.503376528435039
Ge 7.600602666780192 4.584411022893766 9.802056391852398
Ge 5.5194865026773305 8.448837327402398 5.383856198648149
Ge 5.076219083882608 6.23054111106025 6.51702763205571
Ge 5.373927037050651 5.984397480754962 9.417149041223443
Ge 5.54685460068168 8.49220998845022 10.601455532169458
Ge 7.958616108547481 9.206883772290766 4.896815032099978
Ge 7.537121007374849 10.518413862420847 7.587938939469884
Ge 12.557892161141512 8.058749564880808 6.48621191079466
Ge 5.998548653686089 8.335322129129038 7.98190226232332
Ge 8.706963415210858 7.815021473539361 8.356543588981685
Ge 7.274500435820642 11.700434494475202 5.3993371802812575
Ge 9.705009551863803 10.489215252790517 9.076704457465736
Ge 10.13887316467868 8.332794687036944 6.139131305472091
Ge 11.308247385856987 8.244432889926658 8.845345883636924
Ge 9.687761649878214 11.05497179841388 5.866705023862292
Ge 11.80887513883495 10.45807483713323 7.119080642984443
