28
Energy = -110.20842979 eV
Ge 8.48268532838769 6.38387881564744 1.79687449132169
Ge 5.02665573835644 9.956620212640916 4.348780167211124
Ge 2.9470001071534107 8.38259523423821 5.17767902009233
Ge 10.57974569150969 5.845707656768999 3.3229428879588463
Ge 8.421206726137068 7.281506221933277 4.145356833483507
Ge 3.612341726605599 10.470933108068683 6.641412457170768
Ge 7.202510546985394 9.092511953791078 5.590361051297238
Ge 3.273753237564178 7.641910563487336 7.719651886282993
Ge 8.323243902134585 4.325245160470786 3.351418138941793
Ge 10.404812501569689 3.872192434817728 4.9026263393495375
Ge 6.977336034451237 5.239658452747982 5.5218391046363715
Ge 9.497034126105387 6.001744236796796 6.094086826244764
Ge 9.447360412191381 7.879550528655915 7.89623854586984
Ge 5.262303410349496 7.302600498481856 5.617257539442983
Ge 4.191941950759353 2.5576556467306597 7.273144894457369
Ge 6.085800000057956 11.174213682118042 6.677754757314045
Ge 6.301578823223751 4.045007138527748 7.74851710550227
Ge 5.529611294790465 8.806498062750078 8.0665769859055
Ge 3.934524160790663 5.10975686583449 7.3689023754141285
Ge 8.785325998805702 10.343603626805491 7.404824990590363
Ge 7.234857424760799 6.763190704310668 8.305055591894943
Ge 2.006274634583858 3.623108533453139 7.008107467209769
Ge 9.660751259696807 5.789861818295213 9.809318153424893
Ge 7.525500360004468 9.535357533785893 9.589540235915411
Ge 7.193532284958533 4.940466967367862 10.190920998861225
Ge 10.08016914415049 8.491449412112784 10.445279835377786
Ge 9.837391433781052 6.674594769844605 12.235770968872377
Ge 7.621147100471758 7.366329445368439 11.204135437553232
