29
Energy = -115.24374722 eV
Ge 7.971333860643169 7.611267183375757 12.80966197499716
Ge 10.088581552753947 8.939225171267074 12.799997649789894
Ge 8.754873740581958 9.3479309037905 10.676538387037901
Ge 8.091936518196254 5.219994555631062 12.00583522684816
Ge 6.028991485399187 10.487416313824472 4.4585734141614015
Ge 6.755417802758016 8.919438588721496 9.139396627621128
Ge 10.130987476308155 6.770922776841077 11.404048550222077
Ge 7.286641777990739 6.590056636197223 10.013296386475034
Ge 8.320270608444654 9.2364366780656 6.852798672896058
Ge 4.323959768967461 9.625427848827956 6.153860462439125
Ge 9.477593643251803 7.848125915423638 8.677593013580648
Ge 3.7209041960043083 10.652447241649256 3.189938189820321
Ge 6.941575789476628 8.393321840561235 3.092183643785757
Ge 9.082907321314057 8.041828105708207 4.6302516446890465
Ge 1.939573176637677 9.81872160502931 4.9210287027027935
Ge 9.415176863702577 5.637313664025917 5.534058002429887
Ge 11.232003308372455 5.897552791271067 7.3707716054668415
Ge 2.337414192351921 9.299395201131231 7.6141007563398695
Ge 4.372351776026811 8.225260360611827 3.6667830386894837
Ge 6.5617453192381054 7.5478688004778824 5.777464594232947
Ge 8.71401777404801 5.341213749965724 8.141430081575006
Ge 10.736581490858729 3.6616553283696827 8.616778796793733
Ge 10.870178500512093 3.3173078491923356 5.966170235171314
Ge 7.373243808521159 5.695399705800279 3.8451817053417265
Ge 3.0685604688883643 7.22920352553293 5.8305036094216245
Ge 0.612049933145449 8.0670326579764 5.952645807148891
Ge 8.35521209936398 3.244436010510975 4.911217344125398
Ge 6.759152514987766 4.777608156872572 6.484931090230463
Ge 8.625825588834406 2.56157233750484 7.445948759138197
