22
Energy = -88.17862705 eV
Ge 7.93806831826932 10.161985928492005 4.811993977392432
Ge 6.011720131979735 8.723843474999743 5.675553590480806
Ge 8.60036256298729 5.549846725273496 5.42697288735935
Ge 9.491929461120256 7.997470093067023 5.0893267833232
Ge 9.780297889977891 5.047511621588178 7.840632207879839
Ge 11.993595104930185 8.255212744199255 5.686156633492027
Ge 11.233189434290756 5.701059691704811 5.658478689516686
Ge 4.690445154682229 10.42438486747298 7.339092785640231
Ge 9.180092830225549 11.355106454928528 6.9100147329975385
Ge 5.909662021026697 6.052835482731703 6.059113364948975
Ge 7.275295109876119 9.960807316897732 7.5880274712164555
Ge 11.90232160280167 6.73319005372553 8.015534888626568
Ge 8.165327424440285 7.3443398461279354 7.36228132612969
Ge 4.982524470351464 8.937051022702335 9.439325099662188
Ge 10.358410495216146 9.03086310704745 7.530371506003578
Ge 9.740314399205635 7.210783354509101 9.461522798794986
Ge 5.376788609418685 6.349880740960701 8.59446331721817
Ge 3.8470752928762417 7.979191641948468 6.930312055242179
Ge 5.9743761522497145 4.986798265037815 10.609338985709096
Ge 6.993588862240531 7.560293494458058 10.3110841192817
Ge 3.875422544571033 6.984629791517797 10.840511979348177
Ge 5.800867958455373 6.77047166632699 12.463862875419526
