23
Energy = -93.2797293 eV
Ge 4.941715445323746 2.4563377400704365 4.6310674395192954
Ge 7.173003001164908 3.2910040486947385 5.770156490392228
Ge 5.104664401690021 2.4532142522813722 7.182069001320983
Ge 3.478757569329265 4.047772154302922 8.346817560177746
Ge 5.0212244465702955 5.949728769343113 7.585516553646261
Ge 2.733587395112553 4.909205346510397 6.054729820647893
Ge 2.984296465561109 7.40831679940946 6.0420055450922865
Ge 4.80793149678299 5.953989250494265 4.247847357729579
Ge 6.799160529397361 5.762410980168213 5.796009452177562
Ge 7.656050829172047 8.109326870280407 5.745364108974935
Ge 8.178905196586179 9.728562039429102 7.892999755536545
Ge 7.186017720898161 11.381327177831047 5.779651329920233
Ge 5.635153959714612 9.359988707953509 4.594596386181669
Ge 5.797314252480839 9.356630824628445 7.145946233290332
Ge 3.888814652502205 8.128208924183774 8.32559591040366
Ge 7.9030274311802975 9.734584552156416 3.553097428912285
Ge 9.51356262625599 9.972009314558406 5.629791966033791
Ge 3.591556323625336 8.134655649012219 3.6638584964265424
Ge 3.18174928446574 4.052987595327723 3.6845866771113855
Ge 7.365236018462768 1.6216298698004787 7.934483748670809
Ge 6.061035060934871 0.17871161682109077 5.837166915212181
Ge 7.087820384257899 1.627020931931095 3.5947791672376046
Ge 8.622145556916136 1.0951066331966874 5.674592703769379
