22
Energy = -87.64552862 eV
Ge 10.36380917652998 6.460038667566797 6.040196489498812
Ge 11.741005444972096 4.698431529424715 7.338973536758848
Ge 9.380253262106494 3.7781468020451277 6.766599856035037
Ge 7.671360132753193 4.957865443730687 4.977294111829296
Ge 7.290001094113362 7.44154542584839 4.1816131917826125
Ge 9.669096546186317 5.390396235369339 8.768527312788782
Ge 3.7191897904591937 5.032461221284179 3.3715972833892724
Ge 8.190432064699888 9.408133317860365 5.723785840444118
Ge 7.492217380441877 6.643491560188325 6.958298778428757
Ge 5.148580513504477 4.9166348984043 5.592965938703577
Ge 4.780833757448908 7.2612112597226615 4.474774843137058
Ge 11.627360601620609 7.100317917503389 8.487257766381285
Ge 5.787544524371912 8.842835582206797 6.518493073029234
Ge 9.373416160201993 8.412619685505836 7.865873024023815
Ge 1.2707102892573612 5.130385731246253 4.243511899844046
Ge 2.2719462755042916 7.5674379667575655 4.18115619598763
Ge 7.938120851821587 7.138020507112988 9.653173559715249
Ge 2.890524787088071 3.6726966628707 5.770101011456093
Ge 5.442651611637435 7.313963953030576 8.54368503049188
Ge 1.6166097646342819 6.075831155443222 6.686124240057139
Ge 3.129376200427265 8.135838113061059 6.682931877141443
Ge 3.836252602218448 5.3002798995235985 7.842592566456216
