21
Energy = -84.34868982 eV
Ge 8.27144371378362 4.583836875192871 6.88511959286639
Ge 9.259602604693871 5.166678743668405 4.612543180199531
Ge 10.11598553387743 7.265169968358708 5.719955657366569
Ge 5.871937065217034 3.7924838472396547 6.403885423468714
Ge 9.032521288894127 9.578270081334823 6.012301073437908
Ge 6.745111974940066 5.629362979253821 4.813278832024784
Ge 11.569068101646469 9.412516324588232 5.136272248758101
Ge 11.070700479962253 10.484362303240335 7.477475946713915
Ge 6.2979585052184435 7.681513729792671 6.309228572840292
Ge 12.224504137524809 7.974092008926536 7.224154282876596
Ge 6.271221396263128 5.40976698446892 10.272402733300787
Ge 7.607041455918173 6.610701436963575 8.374063617750906
Ge 7.728022761926199 8.749017348497862 9.945012838839526
Ge 5.100950808956025 5.732353725434773 7.93505644302525
Ge 6.558859119012959 10.14298093889717 5.597364652439048
Ge 3.979052367111213 8.17479715100787 7.659286613387692
Ge 9.77282637508242 8.303697012230032 8.149702009976957
Ge 5.960077560245995 7.687898967857206 11.56612158959385
Ge 3.8908772997917147 6.7162954142238975 10.076912347509626
Ge 4.616859675813835 9.360761498338183 9.98223855913598
Ge 6.315339869638241 9.78180359264837 8.101538735461675
