23
Energy = -91.78931102 eV
Ge 3.348075804514882 5.257437572335668 8.117481941570954
Ge 2.868281687881912 2.868828696123852 7.661427337495738
Ge 6.0369027256841274 10.12157146399247 4.601347946052427
Ge 4.680366329226583 3.6276441083343127 6.062136887732177
Ge 7.116024964971134 4.588617396352046 7.522738540471394
Ge 4.933278452808276 9.001281784397655 6.7630214068202985
Ge 7.874815974909034 6.2772858715127935 5.531208614919583
Ge 7.189003937876366 5.631616314551802 11.638400005139847
Ge 5.184848874356347 3.0685186801175095 8.753254822696258
Ge 5.4686509498022655 5.427156574709145 9.870968680954
Ge 7.969859323140826 8.23180142845164 3.7330943667109726
Ge 6.131143730913587 6.021655798074295 3.5714612990745414
Ge 8.380943500460756 6.126925160615155 9.420878701019134
Ge 6.4789837364784315 7.425944220274448 8.23262920524382
Ge 6.355385398106768 7.9131353351305505 10.6702124336285
Ge 4.257169915016914 7.984801889926359 4.3926139787043725
Ge 5.04474934715696 6.217727514776815 6.135279951628356
Ge 7.728135478545562 8.927404247695154 6.270296767139699
Ge 10.388043100241683 5.694789430147272 5.176431845069384
Ge 5.882999245261453 8.415897251720423 2.376743103297897
Ge 10.498393782645296 8.23033976490219 4.485406763763531
Ge 10.077489525376162 7.305489205921803 7.080649487947449
Ge 10.125679210110306 9.80369602241173 6.579892082156151
