20
Energy = -79.49496082 eV
Ge 4.758996535323087 7.584779509845615 3.171467314111785
Ge 6.3114101503666316 6.177487097829349 1.8327279530559624
Ge 4.384728460233424 4.7946782159174735 2.9390929832449886
Ge 9.161414613823354 7.820866425704509 4.706049756959026
Ge 6.6535324013833135 8.534811424305408 4.707863100365106
Ge 5.447516082402952 2.199036945692534 6.338904405258146
Ge 7.679348199321017 5.963507969869649 3.972071481004487
Ge 5.908059121037258 4.461434770422417 5.088066489662281
Ge 2.61748291131254 6.524991598705728 3.9350591091681038
Ge 8.25492207823598 7.452531575709149 7.050621158387865
Ge 5.6134604224195845 7.974456474079925 7.224934257332987
Ge 4.4037277201307745 4.239142183533808 7.612364931344516
Ge 7.2017817481177175 3.624201293727804 7.300779590206885
Ge 6.187341212752903 5.827569561978273 8.584067047199254
Ge 4.206985848706792 6.254490694053127 5.8624940433028785
Ge 7.278008077534919 9.759712833776767 8.026134573245027
Ge 8.947015036589583 5.386666314849319 8.418798155511567
Ge 5.904724795765318 8.187223176253083 9.965873481733139
Ge 7.605494191994138 6.03805117075099 10.646899378212732
Ge 8.599471967047478 8.319782337493844 9.74115236519163
