29
Energy = -116.64028259 eV
Ge 12.45834505240149 9.100491913563696 6.016571263035438
Ge 10.257352805088976 10.01011285510057 7.242014239533902
Ge 10.409111273613416 8.219641918556201 4.8415970278469755
Ge 11.862945854338179 7.883573976777876 8.25125610030634
Ge 11.777795491445795 6.265747201590542 6.085385733140461
Ge 9.565853775363996 8.548524078888692 9.333870835154709
Ge 8.210560102181036 10.016418684563078 5.571490923965286
Ge 5.11036060555546 9.365311512235959 4.033454380157552
Ge 7.471185827848017 10.077911086704997 3.150871781032114
Ge 8.185398595038178 7.816343566024941 7.290440903888328
Ge 5.775448551265665 9.416857443169866 6.57788258847289
Ge 9.146860750207326 5.916105735722038 5.695167027054254
Ge 8.062437467665449 7.654526005123463 3.697262667169946
Ge 6.491388954462311 5.872879402045077 9.122431965616153
Ge 10.013210613871927 6.003692378461441 8.268795908947206
Ge 5.681218249508107 7.024074916267924 5.137573866596814
Ge 3.124461733928422 7.62207584345529 4.065027314543433
Ge 4.70354458445539 7.182152157473913 7.7946920887786835
Ge 3.1090481777540333 10.082585652931646 5.569393674787742
Ge 3.74986799851578 9.665176506374813 8.128754359160444
Ge 6.507037112775028 5.036917016560558 6.64351118772761
Ge 3.5548156952585415 5.636087060541551 5.8165090841455696
Ge 5.8058515811516465 1.4226464689191527 7.925087249426571
Ge 5.0946357619075435 3.70758843427396 9.001374728924477
Ge 2.2832817853216403 7.840491226762626 6.726758557089942
Ge 4.938259130559117 2.979268732178754 6.001115343701276
Ge 4.390941620610276 1.6967523447554211 10.294442373288518
Ge 3.7458590870427733 0.03520556754216786 8.398874682369826
Ge 3.1254083859185697 2.4580437192537032 7.892093821556336
