24
Energy = -95.52909831 eV
Ge 8.870238537550977 5.880211324138704 3.7963857782312656
Ge 7.836787464211901 4.039503766096039 5.2750125477879735
Ge 10.245238804522264 5.2785769855004485 8.85676113645362
Ge 10.184343406260238 6.44997120868512 11.142491191954543
Ge 9.323596287586032 6.8005678953951545 6.9943911463967785
Ge 7.025524791099575 5.706545852656196 7.070642869441905
Ge 7.28125184051547 7.835075102997832 3.475494211004745
Ge 9.795298168231007 8.254583045670891 4.879485480501368
Ge 8.828998747660298 10.333152466964547 6.788655996172726
Ge 9.12191240852577 7.902158934565707 9.333011881453507
Ge 6.0352971544909835 5.680847830512605 4.466866095573887
Ge 7.977865009531807 5.406650067147846 10.260637238667035
Ge 5.32445706907891 9.626650542688113 4.273888819782056
Ge 6.985176677319724 3.605588310757184 8.650451112358878
Ge 6.575381624392569 9.935098662178525 8.29298956068903
Ge 8.039358597279623 10.391844181937676 4.119438849917805
Ge 4.301753930618466 4.366603737415101 8.61047083219181
Ge 4.608132588316004 6.604969678278068 7.2577442331340105
Ge 6.963416316098858 8.433778439414818 6.1373246481244825
Ge 6.392662433476107 11.388385983651885 5.98868420553333
Ge 5.515549118359411 4.7533968984964075 10.862095277317264
Ge 4.425212955232834 9.323397048559928 6.796657707442362
Ge 6.387478936754889 7.391104478239789 9.266338238107274
Ge 4.003389293411865 6.7170869653529826 9.940094062687058
