22
Energy = -87.10082023 eV
Ge 8.419145549144103 7.317449519205213 10.18212837907627
Ge 8.856799837094245 3.8630738039346775 4.08566563554128
Ge 7.561789610963066 6.141374052642886 3.403603792062774
Ge 6.192988563698714 3.5437442652812443 7.258050252285369
Ge 10.188595724872252 5.99345996099822 4.593662962994234
Ge 6.3613374846522195 5.868333951830869 11.171088675191244
Ge 6.0357948403115484 8.47153934134751 10.435631400308292
Ge 8.360915685391895 4.712806256261525 6.4503645829421545
Ge 10.647348810440814 8.166897281710858 5.812139766984722
Ge 9.14610053157304 6.89744592156696 7.583964276820355
Ge 6.1206916235852855 4.123423457976309 4.824732647705739
Ge 4.154984476542257 6.4160073352562526 10.043926160829718
Ge 9.04763580761668 8.330037944094176 3.685031672923541
Ge 7.677855013736125 7.832171189620909 5.745762096689305
Ge 6.554917492355546 6.2006195482356175 8.593756931623911
Ge 4.316024741471174 5.365448480887983 7.47725558406113
Ge 4.926003619085065 7.884897707412812 4.800518916880642
Ge 4.678892941847584 5.814474602118404 3.42811373816602
Ge 2.9228390318172703 6.279485154189175 5.519242734591814
Ge 4.8820269460866355 8.239924674530764 8.108623558030441
Ge 5.873280949160963 9.728217801450041 6.2149992463590324
Ge 2.988524945415036 8.72443570645104 6.497968865322926
