27
Energy = -106.6687995 eV
Ge 9.82309339461227 7.287365303861478 5.349600156520974
Ge 9.068282967999528 9.001158313093901 7.110754963249864
Ge 8.907981002935644 6.732052773232059 8.238632582650547
Ge 10.07109093348483 4.668540105201146 5.7325452730777675
Ge 9.669933621920274 4.215179817722105 8.228972977463766
Ge 7.6286457252939845 7.163990006294352 3.9888366201006087
Ge 6.303595092316097 9.295119420943855 3.2669228394732563
Ge 6.315657536066905 5.263325211606188 3.060664489904126
Ge 6.572556648523867 8.519218442297785 6.06415392252981
Ge 7.577031229463473 5.786765567747985 6.346288397213861
Ge 5.76228260179807 10.885392402163884 5.132828284155816
Ge 9.174226474527888 2.8800473501242414 4.19047206747441
Ge 6.672228109807673 2.821541330436353 3.534207215473689
Ge 6.546401461320252 5.169102232616009 9.33413556981791
Ge 7.917652593836725 3.0364853741772704 6.491856916640115
Ge 5.60163842322986 6.945072064705328 11.016144556272499
Ge 4.119176040194128 6.597896021416022 3.298577851165143
Ge 3.9321291101847593 8.914316356665424 2.3305697503711853
Ge 5.609469843405363 4.174577691474252 5.5311340371079
Ge 4.580843195948433 6.588725445581044 6.025214782531017
Ge 3.9604822951534175 9.037032715291994 4.935649405625888
Ge 4.324415478375198 4.329229841431715 8.50630007916999
Ge 4.50452257846703 7.112236630858527 8.730264988710076
Ge 3.848635719182003 5.152681349344094 10.854326378713413
Ge 2.259673841603332 5.487465791420104 5.05385563204808
Ge 3.2275168128403102 3.363058000659809 6.381282269797575
Ge 2.3637229712094663 5.9570982055673705 7.572712891572529
