22
Energy = -87.28452048 eV
Ge 11.056822940966194 6.974846043310375 7.31517987102994
Ge 9.690154969377023 4.645299103705154 8.16092098223706
Ge 10.246948764778923 6.573069877467493 9.983649424727886
Ge 9.730664393135632 5.182678032600565 5.588075440296669
Ge 8.034786535007296 8.117465881834386 9.628902315555468
Ge 9.735282316907776 8.012204926588906 4.930114234448836
Ge 8.255041810782796 6.35078000861065 3.5960847980470376
Ge 7.003683589517305 4.280147377409244 5.3836312976738565
Ge 7.7134516372626845 5.387212215791164 9.824177566957344
Ge 7.640351856127394 6.156340928091183 7.235540278706207
Ge 10.342004085411784 9.094056342947509 8.772212932447978
Ge 8.49021142433781 8.618961204715516 7.041942925737156
Ge 6.031548240457174 5.2075681454365625 3.162444610021663
Ge 4.263466013809065 5.236631025561951 5.39487930168019
Ge 5.540199689570033 6.878707547861359 9.418325483530245
Ge 6.302535414384006 7.21755307370358 5.102982054828648
Ge 3.812354229992452 7.795531111542617 4.829356680858079
Ge 3.9267180460014806 6.747736200279661 7.430938207132425
Ge 5.786646070821856 9.279558179585525 10.419924540670282
Ge 5.829551401685967 8.983715135296036 7.594449934284425
Ge 3.1111113604176546 9.11627656456611 7.085206741135574
Ge 4.413209234551945 10.730963379856178 8.795024244013018
