24
Energy = -95.81262477 eV
Ge 11.028970357407344 8.984617513711711 4.46012717306437
Ge 9.399898330401669 7.559022809978845 3.0251785345643576
Ge 11.136162458167894 6.478861041651579 4.810173498878743
Ge 7.298457909732731 8.616494948428636 4.5088525268370105
Ge 8.29492982752986 6.15527858504895 5.448150189808135
Ge 9.535747031889395 5.027513008017736 3.4854759592875952
Ge 9.49274838403856 8.181756567774492 6.419158305094077
Ge 5.5955437487605435 5.376676325638704 5.510312217364798
Ge 5.761203121345935 8.117073524663148 6.635747132571261
Ge 4.739663246759057 7.780548750385394 4.162278529966644
Ge 7.444079536799986 5.421452954911827 7.874485728758463
Ge 9.00821355548677 9.469285759155104 8.5292306329437
Ge 7.314636726783169 10.180577613622022 6.628446511429888
Ge 4.85844529607824 10.78620986833752 7.273246760267374
Ge 7.274128891535271 7.663669615493022 9.061010358401663
Ge 3.46894148035308 9.310612878932645 5.712520550613341
Ge 6.676800372009355 3.5139408201560145 10.047374145604916
Ge 9.092805685388178 4.056330314976476 9.360615504955298
Ge 5.024431730388601 4.363224954521486 7.8868892661363255
Ge 3.5641482473440638 6.784192063818804 6.965648409380886
Ge 4.604074526970336 8.593292755360002 8.922834008704958
Ge 5.846494471980841 4.896375502785503 11.988043103425627
Ge 5.118958780910227 6.101815217477904 9.80392219530059
Ge 8.003159837465073 5.7703200233616645 10.921936858331316
