26
Energy = -103.74777336 eV
Ge 3.7786518628503667 2.7693621936200272 2.419861994244309
Ge 6.7992447452611335 4.2401777464941155 4.934914785927468
Ge 6.324302257012761 3.8445525659116 2.442472313450481
Ge 4.455328937618932 2.8117603579448467 4.774167797179296
Ge 9.121214239890005 5.074925650468386 5.907478843118279
Ge 4.997951281980898 4.021650708519475 7.082939042248582
Ge 7.600534274050232 3.341894548082678 7.318812662455357
Ge 4.2292708632719185 5.15262523671737 2.9813336948977485
Ge 5.278496105845399 6.36393568479698 5.482635251021179
Ge 4.915830270256246 4.957959708342555 9.994984550479181
Ge 7.75798976443334 7.032713138731232 4.971545831713122
Ge 7.3384184840314 5.480066653301393 8.710156260570766
Ge 7.810190206539391 6.549172746483609 2.3406004066575496
Ge 8.33343979416876 7.3611491714234365 10.43512152604611
Ge 7.330461738786951 4.9914639367574 11.307308705072904
Ge 5.205092024170424 6.891021297725577 8.009647978394273
Ge 8.104434853606302 9.311367061110223 3.655420951438416
Ge 3.5145915575762623 7.378985474476143 3.9160099251574296
Ge 7.550389803630181 7.995042644099541 7.821417485503539
Ge 9.55539259785228 8.344253788980385 1.7340878557031758
Ge 5.797384250261834 8.127302869602158 2.907674382046691
Ge 7.180024395092277 8.929072971129393 1.0657486088178842
Ge 3.712739845774397 7.306113426724614 10.07084960691289
Ge 5.856839175054366 6.9944323453108534 11.778813602553775
Ge 6.328001653724207 9.044581833173458 9.924375549723482
Ge 4.574987280867884 9.182409855188416 11.71562729213334
