28
Energy = -112.11105892 eV
Ge 9.996716846553296 10.361535353857944 6.356256780819571
Ge 11.13141450786035 7.907462626804542 6.583961300394851
Ge 6.9772795545231405 10.47466108447833 6.743353162982728
Ge 8.61121608822162 8.482585651121745 7.655930986979889
Ge 8.0961431269623 10.53540664426844 4.442078832692098
Ge 9.866284329531862 8.382523055489793 4.334680087619079
Ge 4.098828570065304 9.68332986519021 9.396377438125532
Ge 6.394516888285038 10.876871473628357 9.365233361759747
Ge 4.543067390624924 9.17714216766569 6.89805815880472
Ge 10.315170762148925 6.71600365289536 8.801286344075896
Ge 10.255884888100605 5.319621129634569 6.478462741889169
Ge 7.53306156708045 8.149047780238266 5.403189900193612
Ge 4.046677741885654 7.4734885106493065 10.786898535232893
Ge 7.899665351726218 4.626119422800426 5.80623358782569
Ge 6.281100005402233 8.830592388349626 11.001252430050162
Ge 5.0192363216949145 5.33384900023648 2.7684303059268354
Ge 7.4762774761761355 4.255861486216368 3.2501627060220923
Ge 3.7645962507644417 6.599884928483049 6.687014532546321
Ge 6.027617675720181 6.2217729294978605 4.907639950534908
Ge 7.817642260848794 7.060557490659906 9.751294744423687
Ge 5.574815160237807 7.431623249231016 8.56823286063793
Ge 3.7979661688196322 5.423416761030332 8.956313700642216
Ge 3.7395793437758136 4.558523437012399 4.976878714247148
Ge 5.29551852730354 2.721041047576827 3.4886476633964936
Ge 7.258075551234744 2.205182089662045 5.1378811276798375
Ge 5.657486319445562 4.377971583623155 7.301583340057827
Ge 8.323613941089414 4.696327863058049 8.49293571716726
Ge 4.6756964738277285 2.3591614059280555 6.092589752190299
