25
Energy = -100.48327043 eV
Ge 9.131078065382718 6.558808206135941 8.864019963453266
Ge 8.493890786653697 8.301756443141988 2.4103063323237004
Ge 5.799174006743059 5.9602127223153 6.541262728704449
Ge 5.046225001798944 7.736765822394759 4.784744364452119
Ge 6.5807825715498245 6.7358248966621455 10.064924972308384
Ge 7.48274348969483 9.333416047911221 4.548128795436595
Ge 4.781664992013706 3.9043211166365364 4.760136768073594
Ge 5.169854345195197 10.182372694321312 5.227055494747803
Ge 3.298055790485972 5.902492348802056 7.823220032559745
Ge 7.770244978089035 4.454754576245662 8.86875164960562
Ge 9.018295604725239 9.857332163342111 6.541262728704449
Ge 3.298055790485972 5.902492348802056 5.259305424849298
Ge 5.9958400202564155 4.214947030673827 2.4980952837217516
Ge 8.493890786653697 8.301756443141988 10.672219125085348
Ge 5.9958400202564155 4.214947030673827 10.5844301736873
Ge 5.169854345195197 10.182372694321312 7.855469962660944
Ge 5.0635004462861435 2.0395855626723582 6.541262728704449
Ge 9.131078065382718 6.558808206135941 4.21850549395578
Ge 9.03520910123307 7.472599412994844 6.541262728704449
Ge 7.48274348969483 9.333416047911221 8.534396661972456
Ge 7.770244978089035 4.454754576245662 4.213773807803435
Ge 5.046225001798944 7.736765822394759 8.297781092956926
Ge 4.781664992013706 3.9043211166365364 8.322388689335307
Ge 6.5807825715498245 6.7358248966621455 3.0176004851005134
Ge 7.114594739453954 3.5510227012252864 6.541262728704449
