24
Energy = -95.52267796 eV
Ge 6.857510088346442 9.809877971395304 12.595996393771026
Ge 8.906890345527076 9.926913457906181 8.33438959416578
Ge 11.004036987876201 11.543281773027177 8.813693437126977
Ge 11.799106409566878 8.635953473552172 12.141964119938145
Ge 9.570045737182749 7.763853523425585 4.148983043994977
Ge 9.665202945511098 8.038145040960378 6.753156399994119
Ge 7.862598033056966 12.224807501154999 8.73249424465827
Ge 8.982533273906137 5.525242778546699 5.566927812269912
Ge 7.196401818323089 7.43994487057086 5.788677524885904
Ge 11.798029225027815 6.901801912165763 7.582093859150899
Ge 7.990518971097086 8.124900981041979 9.829603815736018
Ge 8.689880381908544 11.633634828024574 11.094788038730357
Ge 7.1865417646045735 8.377743096113868 3.4439583701227368
Ge 10.50236012372521 4.554238154176961 7.3855205583327725
Ge 9.445464997831678 6.140044522446537 9.051709031756486
Ge 6.00258012141177 11.021961285827555 10.16807132319195
Ge 9.281440905765656 9.013343238524818 11.812022982430578
Ge 11.509854273086424 9.229718347131154 9.516802826197274
Ge 7.688396647705203 5.8433033733144235 3.5239740508951845
Ge 6.679443822581733 12.413859542421442 12.561738388558055
Ge 11.213985682933524 11.182809005457202 11.46727873122583
Ge 4.481375515624846 11.250719684046121 12.284106920918827
Ge 11.626244792746462 6.683592870163123 10.229936162882504
Ge 5.549039688938271 8.580358982398023 10.770933728377296
