28
Energy = -111.98904877 eV
Ge 13.110028767535884 8.285215625513123 7.460937664495669
Ge 11.268024939002848 7.2526733813785755 8.884884400630687
Ge 9.44594352379758 4.863673915729662 8.551598024177117
Ge 12.139711362175104 10.469606801974052 8.395062865092186
Ge 11.092503821051734 10.969715752302157 10.701991387827713
Ge 12.912185070162042 8.85636478995475 10.351711684840856
Ge 8.93341749842159 6.963165546605162 7.014272582950985
Ge 5.626585221612188 6.177502248971003 3.880426393190802
Ge 10.302487330895962 8.504414095793598 11.051905763647433
Ge 10.645392018914452 8.955948121130167 6.53106176133548
Ge 7.587045826210368 4.604497791635231 6.581793465619129
Ge 8.120902214934514 6.739428808072272 3.9063698574569967
Ge 7.828397739691036 6.176373861659122 10.131358694578717
Ge 9.430384757194913 9.657477721901342 8.800774221669691
Ge 7.497347772244617 4.205038976430347 4.0460749749340446
Ge 7.164942954471661 8.343289289571718 8.868699416216696
Ge 6.592524663091816 7.340814134228521 6.087691581192672
Ge 8.068229563245355 11.159550204418894 7.086109908313248
Ge 4.990680138996882 3.880322382999117 4.938537142141503
Ge 6.759200976383479 4.052242070897397 8.985677725135622
Ge 5.802206139437487 9.791658199443589 6.514087576638859
Ge 8.216242530732925 12.03278122540029 9.56312859215527
Ge 5.108241494925587 5.4494219087410025 7.071532874866739
Ge 5.21363879879383 6.325685529070402 9.546147253039187
Ge 4.677839597424438 9.146728053497359 8.753655537893565
Ge 6.4854392039283315 10.398694591279092 10.631719663675604
Ge 4.126822121000131 11.153265233376468 10.305994667593346
Ge 5.765761348708475 11.88764694888292 8.399870074294094
