20
Energy = -80.22114598 eV
Ge 4.769044551291759 5.271042260170158 4.007349046091591
Ge 8.053027131801693 2.9489475414066013 4.03915938760359
Ge 3.427913987284776 7.349996883363076 3.180304305635346
Ge 6.6607184954502765 4.5453953713757675 2.5191169344196505
Ge 5.443511041750979 2.664569517125263 4.244227290970063
Ge 6.646517634702045 6.737602977917272 5.158565953253192
Ge 8.640327994348391 5.771797718830703 3.852075446162088
Ge 2.7467220782934882 8.144236065416177 5.706199574252112
Ge 1.0055049814970418 7.296237961220779 4.043112386900818
Ge 6.951114381925999 2.524852546426515 6.548285484646017
Ge 5.159079490581958 8.793609816439929 4.530990838034601
Ge 2.34932983004928 5.386891626217104 5.150424434476847
Ge 8.769521829401071 4.447165562947283 6.110529687415856
Ge 4.923169302692985 8.314759929551892 7.165220879707939
Ge 7.62847767778398 6.965951078378756 7.682127597561249
Ge 5.362417804065139 4.746848845409932 6.570794569481198
Ge 3.1773796635750564 6.144123527841258 7.580287671281723
Ge 9.570222871644598 5.427819566692373 8.280522116829566
Ge 5.544399063470409 6.254589637310699 9.076202277363771
Ge 7.231989653574687 4.323951031144187 8.614893583098373
