23
Energy = -91.01223044 eV
Ge 9.925777610188524 6.188882429845622 8.02474222701748
Ge 7.9320693375114955 7.384911700391842 5.300601896384928
Ge 8.15391054688737 8.803360761657135 7.387020963722834
Ge 10.205904901341416 4.566759408819061 6.085741217043289
Ge 8.542442400348417 4.769455607232715 9.750127421622846
Ge 9.895244917114027 3.137334251354828 8.38971186930636
Ge 6.758310997209412 5.988095038694599 11.16222356276638
Ge 7.3418105652581644 5.0470721877484745 4.131731488137664
Ge 7.426294735582265 8.851754351524624 2.9156934110678026
Ge 9.242195188172095 6.811382254951871 3.198342412576496
Ge 6.963526245543992 6.81418590239841 8.658182696700214
Ge 7.940936970128842 4.41137875757929 7.152944069418534
Ge 5.605627874121809 7.120177648894288 3.9503721252024304
Ge 5.455199620903555 9.694698196690169 7.811348402227136
Ge 4.012463818588734 7.733162629772959 8.414244932662616
Ge 5.516700467988285 4.970527467951666 7.250451474220653
Ge 3.354335433200173 5.980758866052385 6.3512695956115754
Ge 6.406293871464285 9.664675043156103 5.282137292177914
Ge 6.993003467139835 6.461040224444375 1.8240310759235188
Ge 2.4156921596103347 5.849345427381434 8.793396987296541
Ge 3.045969339350046 7.236353484760704 4.184649033155673
Ge 4.823543996272491 5.227101577492088 9.61724021858329
Ge 3.743231877246802 8.964866726090218 5.994892380632095
