21
Energy = -85.06295496 eV
Ge 9.447513614756632 8.935305592359871 8.517750447940374
Ge 11.27587406874644 6.990898451697247 8.283841840451496
Ge 10.147159729968205 7.431641496700782 10.701252990406074
Ge 8.997504436655907 6.379316051280751 7.243662862760382
Ge 7.833061847164212 8.832434934871532 10.584747697746717
Ge 6.220230758090269 5.821043654053939 4.7885210491646495
Ge 6.978003908437175 8.280182820632069 4.944315918398515
Ge 8.882582572591172 6.1993803487147385 4.661446843445175
Ge 9.943589813853913 4.990021688339589 9.412600839102241
Ge 7.786974319653396 6.116106051853304 10.966884453907362
Ge 7.359674810892952 4.772296791259417 8.70560486299814
Ge 7.053970149792684 7.428377649455564 8.632273890271136
Ge 3.579672222264542 9.092664630994397 6.032471141784923
Ge 4.954549555815767 9.513609897953893 3.7433009896759732
Ge 7.780004320182982 4.116214473595137 5.974057394575976
Ge 3.7675157422916383 5.182858645178477 3.940972098294613
Ge 2.801448849452557 6.554939189091654 6.217230508523728
Ge 5.350487259828899 7.4042928144435605 6.807811474607441
Ge 4.867633956340624 4.67750230407701 6.656338508945569
Ge 5.400400551894062 7.062697551894652 2.692221377660043
Ge 2.9360186280038647 7.6889224782805945 3.8192172311040444
