25
Energy = -100.12484875 eV
Ge 4.837833369775374 6.101211160557829 2.4998370710884634
Ge 7.6004744347207005 6.638505376447131 2.6259697260887114
Ge 6.604202932941063 4.260235567012664 3.3354922564540117
Ge 3.5675787312820093 7.769332597790031 4.453333865690687
Ge 9.15847346996737 4.723916403770385 4.0609331099385395
Ge 6.031980476209854 5.606586299175681 6.004975053936463
Ge 5.691370427755651 8.608980916691936 2.960987869866286
Ge 5.149142493325534 9.79572287226657 5.288676897199872
Ge 3.7621334264067388 4.808314365870648 4.550063705000802
Ge 9.585345233990394 7.3734743657748805 4.366352962538956
Ge 7.862036611201012 3.480784307065092 6.006674447443771
Ge 7.062226285183033 7.856124971913955 5.184957361787926
Ge 5.366956130321411 2.6293001725368494 5.149069658873942
Ge 9.226918610513362 8.474736704245798 6.767036487754693
Ge 4.772101898473911 3.3840617900251604 7.569541029045684
Ge 9.629968998156654 5.815155210602577 6.633965437965499
Ge 6.6490834167987245 9.28951312259784 7.608636383553958
Ge 3.4172073298706493 6.041252389245693 6.868902008123255
Ge 7.425505908536905 4.7579123398205745 8.28461112608388
Ge 5.576153006689862 6.977934571193446 8.506522713640713
Ge 2.985804806937007 4.537481484136463 8.941592863927651
Ge 3.8751655455856926 8.589522587573866 7.278939707331422
Ge 8.175206320293213 7.207816028937564 8.834600969377874
Ge 5.723447391860768 3.6588270872234783 9.902547440043445
Ge 4.518232348638684 5.867846912959699 10.570329452679108
