24
Energy = -94.93845583 eV
Ge 9.532703357647248 8.07645603457295 10.321890098100038
Ge 9.11844993362724 10.688843376270693 9.630293835745622
Ge 7.28956686760146 9.317208213764998 11.136333517196688
Ge 7.18293238583025 6.738899737698268 10.89971931985594
Ge 8.387237544376363 3.4174114129242246 5.8823719461619
Ge 8.291437031424913 6.547781991856562 8.549453258541568
Ge 9.178753892076223 8.997555899134932 7.644511393876736
Ge 6.765844431298178 10.671018705913275 8.476786396946801
Ge 5.974755078462205 8.21424732748679 8.973414041282268
Ge 9.570840284577713 5.752623194085733 6.464184783484821
Ge 6.921909796215895 1.6786956334276193 4.471954548401343
Ge 9.474807105826695 2.246034295560917 3.9479121775198327
Ge 6.475078205440602 11.822653555086353 5.986700659111739
Ge 7.1998070384611506 9.404942948251694 6.0708199596397385
Ge 5.848270871113389 3.882945356736095 4.8582904562780955
Ge 6.040821034396217 6.108641317012636 7.120881417350245
Ge 4.005955130993421 4.899894659894558 7.902793260932803
Ge 3.563828476385739 7.3788269608225505 8.4806362396106
Ge 7.8184624711965505 3.989505882647061 3.1082518307339275
Ge 3.5484800335286026 6.938058812959567 5.93993772782359
Ge 7.521523782518011 6.022492322142151 4.945488778121808
Ge 5.83552920137235 10.377974641709807 4.07082143431389
Ge 5.716954579073143 7.814954595591664 4.699056583777653
Ge 3.365719509572326 4.426360105309507 5.454728921991267
