21
Energy = -83.57145297 eV
Ge 12.285125490201716 9.415898860465088 6.770078081948355
Ge 10.91779377211109 9.918780516498225 4.717518247956814
Ge 10.552475592072843 11.46317865606032 7.003575006144107
Ge 10.63811216745472 7.182288319600907 7.137177632563151
Ge 12.097837896324844 10.318067638700164 9.151296370050808
Ge 8.953295923683505 9.259780673753063 6.1514572709813296
Ge 11.601783130499891 7.585285717730669 9.446139260085003
Ge 8.886468045160441 5.52783476807646 6.2195806782831005
Ge 8.761480746120128 5.193946375877109 8.65306467634798
Ge 9.741653944627574 9.45455266876223 8.59438883095234
Ge 7.241354160917576 7.191136513781812 7.4559648240109455
Ge 7.447211713652383 4.935165433502177 10.728712807442284
Ge 5.491472250073278 6.303010643645968 9.366429976145474
Ge 4.746469692173628 6.744128943757655 6.8929643775127065
Ge 9.418494512996215 6.699408404162495 10.795799588758436
Ge 7.753317458711831 8.336646718783232 9.721927776075965
Ge 6.0382512846766065 9.34414770906595 6.3944945119603
Ge 6.320778673545377 10.474896504031708 8.769330146312711
Ge 5.453926562216434 8.553235552448996 10.76939770374124
Ge 4.153452610633322 8.837547894881409 8.31114413842571
Ge 4.060294408611979 10.660106948550494 9.99910166562151
