28
Energy = -111.66824095 eV
Ge 6.122737095028332 8.68117501731327 8.286761349528348
Ge 7.79013049448492 10.48842504810015 7.519036446081059
Ge 6.194306729713677 9.914793119240938 5.6437322587414815
Ge 8.88630470032098 8.810440477426633 6.013703197274794
Ge 9.166231374010199 6.273291217578621 7.249465552768835
Ge 6.362028019198409 5.433988769476586 10.8845683488017
Ge 3.8177104104078734 8.858046927879785 9.18659845318126
Ge 3.9828813483258014 6.304344013599488 10.257979791112676
Ge 9.241554630575227 8.75091346618395 3.486990541997124
Ge 3.8678941999573895 9.032687741793174 6.571141458831211
Ge 6.6843351362315575 9.291204066947492 3.235785452613578
Ge 9.375541169714216 6.236338540990848 2.8430816587448313
Ge 6.810832043621393 6.216307425417965 8.532665747659628
Ge 5.239573291796376 7.2728048125429785 4.906371306602569
Ge 2.7891141750886983 6.738789799081869 7.697919805236548
Ge 5.229547361145445 3.6375257094343376 9.441929485398816
Ge 7.770093308633673 4.011253632888783 6.890704560181058
Ge 7.816752489095911 6.670718632637082 4.913977929582588
Ge 9.715860105421115 4.625637356658887 5.116710125306846
Ge 4.787929859561992 5.281205408046002 7.153178279090213
Ge 4.901199527312639 7.71748825307386 2.402093184666748
Ge 6.811911381825705 6.053415834130676 2.3728224009986945
Ge 5.378997025387822 3.794981859329001 5.142272104658529
Ge 2.624105129696466 4.467040875934114 9.15228017882836
Ge 6.549705202979077 1.789340871341542 6.527691234523311
Ge 7.8439811069702285 2.8882565373370306 4.372278190387571
Ge 5.986394541991628 3.6515919023142835 2.70956519930437
Ge 3.9564307361818187 2.726929881836037 7.4316535867145035
