29
Energy = -115.70240857 eV
Ge 9.240467899392266 8.498877549111763 11.79728909176334
Ge 6.316248548879338 6.779623699399962 7.206359162398865
Ge 10.869532863261304 8.60894355753593 9.49506703255415
Ge 4.314457222811334 5.80179306097008 5.467136661650934
Ge 11.338312470129114 6.754131847613002 11.204218718317536
Ge 6.606529902059264 4.2808342229807925 7.414098390374055
Ge 4.9752935973628984 7.6634924404002245 11.396632718643248
Ge 7.7875486523930135 9.172385297740293 3.876933696527835
Ge 9.258997246404581 9.907335758195766 7.047180023978245
Ge 5.698934580669362 8.512541100514396 9.202649992030878
Ge 4.702996921126634 8.195012049268826 1.0598937060618276
Ge 4.856624730196491 8.37881560025363 5.5386130741953865
Ge 7.991233012172033 5.070240257301172 9.455319458519648
Ge 6.966142255231031 7.438990940520775 2.0971055936174667
Ge 9.267149282279757 6.092883534687161 12.882073357313052
Ge 4.674536033885733 10.14688067764838 7.516884412644076
Ge 8.378760646668539 7.781783676430382 9.324797728940545
Ge 10.185362349620673 4.300947338980915 10.44404976329483
Ge 8.50761644249018 5.224256116122702 5.85044085965852
Ge 8.27096999387663 7.813107789617916 5.934912437533726
Ge 6.610185642545712 5.7304824779362065 4.167981831239059
Ge 7.5182494845651275 10.449952935781162 8.989393900763309
Ge 7.267467528044435 6.565333844269894 11.388178840183626
Ge 5.301315682384795 9.503139755292565 3.1684442084564237
Ge 10.427218124366954 6.102400370059175 8.532061103159606
Ge 4.385353580769322 6.689751001184945 3.0117593979675332
Ge 11.325326559793993 4.641884754262413 12.692676234315444
Ge 8.625271291133398 11.466794244842921 4.8703810681041855
Ge 6.840713078973985 10.853827204829072 6.424907119782359
