21
Energy = -83.99013892 eV
Ge 12.136583206140186 9.285272366363856 9.16099319381491
Ge 11.208439726985846 9.52513795696936 6.746330085426068
Ge 11.913680178948564 7.069832040773532 7.880525766181701
Ge 7.543665546716828 7.274604599750192 11.947577784859757
Ge 9.681527010473125 8.641936315205644 9.072832618201755
Ge 11.487614579483717 7.251041258682073 5.264435698969695
Ge 9.798096557918338 9.172108944839112 4.648276784995919
Ge 7.281371685549782 5.396514903995247 10.114377969962202
Ge 5.329371761992235 7.247757202473522 10.74234605970914
Ge 10.624802693492759 5.120947695347258 6.768455305263577
Ge 8.41558805768156 8.92590982944234 6.831405650163015
Ge 7.384121021806884 9.158718045105521 10.21378744359716
Ge 6.715563437071541 11.026630381072955 7.198877834370252
Ge 8.702371033011097 6.626800619206276 5.448518010790295
Ge 8.960082699215326 6.3403447857536115 8.224689202552415
Ge 4.755726101085737 10.643233444209706 9.030820622977128
Ge 4.85034465803242 5.342170959523589 9.155694219050687
Ge 6.487851097648939 5.986843911835339 7.242449684578699
Ge 6.9188275421586125 11.665986709565017 9.784135305094697
Ge 5.861211386100549 8.268303747983218 8.198013757058838
Ge 4.409147075919844 9.896755482203458 6.689306110021253
