27
Energy = -107.39190534 eV
Ge 8.73992215947462 10.650432617158957 4.2307403418917655
Ge 10.146774512564306 9.060395802800569 6.417949899804916
Ge 8.493830342808238 11.038843323189939 6.784851302939336
Ge 9.472152247421384 8.537117956275749 10.559064307864606
Ge 9.171435805338804 7.807411633961917 4.444648181297138
Ge 7.25581195641427 10.052206956377615 10.445245915338726
Ge 7.324166883816514 9.038512807088521 2.956269390422474
Ge 7.389758130888948 8.891837139478625 6.007013550917979
Ge 7.475067955663898 7.465950064131511 11.766845291292256
Ge 9.261420899829865 5.25065656404687 4.176331585134306
Ge 9.701925758129596 7.274231084132854 8.229284669922993
Ge 8.917222473562447 5.351716188464122 6.71308469380296
Ge 5.581159698912037 7.670310739957254 4.5009519057107115
Ge 6.681958162465757 5.451568855890436 3.9653501099610455
Ge 5.101154752054149 4.008068521562341 2.5855048098686337
Ge 7.52835891914231 3.950625042739142 8.697764911814607
Ge 9.997189592757982 4.607526717917699 8.85362906035358
Ge 7.316881205560728 7.97691668980498 8.871418243497137
Ge 5.2926116256837945 8.475359234691275 10.666978103402917
Ge 6.290775992948052 5.300151379164966 6.666563554805803
Ge 5.226995424554404 3.4020126107049706 5.142212305916457
Ge 6.356107461756129 5.880301659620122 10.02863242598118
Ge 3.1650028177250524 7.44356162494474 5.45219665500168
Ge 3.500234447583693 5.288154265860218 4.044170287890578
Ge 4.2806205766287935 6.570340919678889 7.598106257318411
Ge 3.808891703790316 6.418709743146308 10.084545116803401
Ge 3.2038372107643727 4.502919266932205 6.43600479322303
