20
Energy = -79.77632468 eV
Ge 4.309794593826769 7.9808955482040265 4.346296535475257
Ge 7.855604748413311 7.744614017148546 3.7250424128275945
Ge 4.6486148476865266 9.573987921008252 6.432337348207119
Ge 4.074260715451653 8.27230497803839 8.686676642292667
Ge 8.378439238235426 4.971734419839971 4.160690926071961
Ge 3.577009279232352 5.504795091556558 5.188265486339523
Ge 6.04133313381056 6.740125538624395 8.005461529012832
Ge 9.859145996376418 5.824776259862017 6.7136627178214825
Ge 2.667110784873026 7.741688271014232 6.495084157708415
Ge 3.3277651914706508 5.614464991392133 8.082920198533579
Ge 8.719174583446824 7.760037021384904 8.207709427886556
Ge 6.192004237607829 6.175202521403855 5.240837375417464
Ge 7.016638591585635 8.504659339285729 6.265962868437422
Ge 4.03041895702243 3.3224853555241136 6.898594479128577
Ge 5.624596408661507 4.205626439452716 8.7581768115644
Ge 5.509472136874898 3.538636825575386 4.746714285650212
Ge 8.110505760864891 5.075376091583178 8.818444636020676
Ge 9.617885892577961 8.549189706765375 5.771795071964532
Ge 10.308189486977385 6.64346973502356 4.181389149985401
Ge 7.33846838769659 4.027165569748274 6.544383727858872
