26
Energy = -103.67072578 eV
Ge 9.317043533173612 3.293438840344127 6.2413058832097175
Ge 7.71708033486546 10.44398236848278 8.077811152531893
Ge 7.465298232159367 5.556043117392376 6.45243203454165
Ge 8.940429327939466 2.165783562101424 3.7941748537767492
Ge 10.08166579063472 6.068447333514242 5.672102011955315
Ge 8.999039524882532 7.746709483121351 7.4447940834353235
Ge 5.77122259803179 10.082513249231711 9.633152858461683
Ge 6.394396676349216 7.915512167749851 8.43788552489631
Ge 7.5468883342402195 1.1981517574934644 5.755690307166077
Ge 9.534551109045616 8.73003966669281 4.933935659988148
Ge 3.578483663954245 5.583333381195801 8.05366138751802
Ge 5.027898344749579 10.087346324657123 7.150590325187918
Ge 8.500980744876623 4.688787500670846 3.9579697729982204
Ge 9.371624052026897 6.968051080331229 3.032485577768253
Ge 6.770169142076712 3.2622178990722097 7.518426065494215
Ge 5.815209366777115 6.499844140009706 4.625859282984394
Ge 6.405373882713276 3.28565369180239 4.790340461459742
Ge 7.14933570708781 9.189827363660429 5.870471464745337
Ge 4.576970301805275 7.526693347005411 6.5395214770721655
Ge 7.0821593865228385 8.369325681427384 3.403298610301734
Ge 4.156254991711686 3.443023638523942 6.541540627930473
Ge 4.230423953056655 4.525673374234303 3.9323622052221285
Ge 1.7139784185887943 7.098186672703783 9.172136791640416
Ge 2.1850847088705443 5.004471859905843 5.618266202090188
Ge 1.9036954605779137 7.383546457084398 6.589468881151485
Ge 0.9081051466926062 5.092937041134776 7.857238117189958
