29
Energy = -115.64910821 eV
Ge 9.208108789057723 9.5121153045558 9.433838069424516
Ge 8.657361441692005 9.94389187146101 6.9975654476885
Ge 6.010951726446262 8.615837119730966 6.750684604036596
Ge 9.772782944541285 7.210557213455433 8.551303807796343
Ge 7.013011833195154 8.198831606510957 9.175441869075382
Ge 6.723300682125413 10.917559986421649 5.581288789163644
Ge 7.956662017378087 5.584382147246059 9.185521217352639
Ge 6.649362822817171 5.942807104400019 6.659369845636765
Ge 3.9518494554953087 9.081072622844028 5.26137929963239
Ge 8.013651537525751 8.585407750652966 4.9568034181331475
Ge 5.203222551461446 5.611992133759574 8.94362851931609
Ge 5.496498467798928 7.060626661940963 4.456268641367316
Ge 8.981384586199235 3.317161520143828 8.27491667403305
Ge 5.146196600534201 9.143729106414426 2.6855024050911056
Ge 7.457348113036575 10.485446132879439 3.073846315190805
Ge 9.152171035701498 5.476781570884909 6.641115065034374
Ge 4.3130444954427976 2.9091967916317083 8.825300371130217
Ge 6.674574865004478 3.489512466976788 10.059542448701587
Ge 7.367473874660158 7.7323745391256855 2.6361041279502087
Ge 4.784090565271475 11.319915062767429 3.9388146116322624
Ge 4.789121481724727 3.9957148660043735 6.518454751895192
Ge 6.783931389696342 2.586460282811816 7.258808180801344
Ge 3.046951297236948 4.290296311058388 3.0760455631803323
Ge 4.863148823365907 0.9900197702632427 7.120242685029519
Ge 3.9098874375009673 2.171784010923837 4.9881872480144684
Ge 1.590599408565964 2.1959048517286655 3.998369260399448
Ge 1.8263524651954997 2.8148625323145144 1.4551539314206314
Ge 4.047043717906878 1.856633673591104 2.480401380093765
Ge 2.0004002801325997 0.3012387484070362 2.2931141258395913
