21
Energy = -83.64687026 eV
Ge 7.947155060944072 7.223699785353927 2.1391797395813406
Ge 9.310207681987842 6.331605377002527 4.635708819144736
Ge 10.724306789640204 7.649088599023886 2.487842764988669
Ge 9.162736733903337 9.41366235247628 1.6068379011679361
Ge 7.389762652269002 5.112813755563108 3.5022390375179056
Ge 11.423715258095733 7.7047802597503 4.898129838943492
Ge 5.354020212296685 6.843186550509963 3.1339594345380255
Ge 7.028898796890033 7.631062318807743 4.857896722568717
Ge 9.342240673775278 9.211394375871347 4.224895442854787
Ge 5.558586496557492 3.387587034749342 6.1005410478163755
Ge 4.153836144299103 5.372779348261066 5.060843865094606
Ge 6.173435171382744 5.934167548511179 6.804680792921259
Ge 3.9185780939490753 7.501682762705681 6.673611007975295
Ge 4.984828583871933 4.007118772166565 8.574594276452242
Ge 5.065442112846353 6.831256506071771 9.039122630200904
Ge 2.903352082136137 3.4900329335290996 6.745927025728838
Ge 4.460229831922164 2.5465774663746434 10.665478308846485
Ge 1.7680039049912577 5.794198197472403 6.057879724375208
Ge 2.697889781382929 5.74125699997649 8.46290435067908
Ge 4.378047079010991 5.047035007949177 11.015632053736773
Ge 2.3846281724419542 3.2925170352388937 9.389130790959197
