23
Energy = -93.05187999 eV
Ge 11.055157627254193 6.626873480079923 6.865880932626552
Ge 9.523404244714738 4.755955477558528 5.870619458065922
Ge 8.85094258885468 5.465066661722506 3.4366504165407115
Ge 9.039029674655705 6.6408975343817795 8.224887403465587
Ge 8.396647645015936 2.6088581166479208 6.772834652945247
Ge 7.337370714524353 5.636894269924526 9.752867234954719
Ge 9.045727266577336 8.413119314896587 6.133555814314309
Ge 6.8970565705834135 4.638057436956879 7.400964578259641
Ge 7.519986585919833 6.4598972776609855 5.457345363406901
Ge 6.14343322261439 4.8570475265698665 3.517822539879216
Ge 7.288002363981376 9.410513197290534 7.693823551743248
Ge 7.061821285175673 11.867269129610499 8.368770500088036
Ge 7.4874833120243585 0.8988719659448219 5.002488395520645
Ge 5.054436147200939 5.69284502965637 5.917053265352282
Ge 8.144993622731732 3.032422626162757 3.9276561362806537
Ge 5.861176020906177 2.943584775432955 5.3924049062657735
Ge 5.9261796410938965 7.7037064483130315 9.185924868002132
Ge 5.530492893047449 11.095758815856918 6.3683288131031
Ge 4.479265950040866 11.56117380924654 8.916619049033342
Ge 4.948084106407868 8.252449693080827 6.853448467199281
Ge 6.372617914332227 10.017091866320545 10.23851563442331
Ge 3.16882421968351 10.103859203437692 7.005495437901297
Ge 3.689841668858826 8.9127880533175 9.335080185705094
