22
Energy = -86.94813416 eV
Ge 9.682806693428413 5.551947875808277 7.10420244898632
Ge 11.309179288575052 7.21984898579661 5.782213609654505
Ge 11.080204491174232 7.1270299219033655 3.293511169137092
Ge 9.257517808589878 5.82449873232992 4.537126848435667
Ge 9.128771910281559 7.6489191772886835 8.747428127464152
Ge 9.842798836004919 9.427447632112319 6.944084195192138
Ge 9.4015299039995 8.777563306020326 4.39392625321015
Ge 7.977182725462601 7.477678480282948 6.203483295285078
Ge 6.715282821879349 6.506957671382439 9.895321772990911
Ge 6.013946875611216 4.592274926021471 5.9071519675199475
Ge 4.286560937348209 4.096752373105545 8.100811981756541
Ge 4.301339172726353 5.22299393283814 3.7155506089003976
Ge 3.8156426642679993 3.096282358402998 5.883103458404028
Ge 3.3193112804669287 2.8261033426194264 3.4189410785954677
Ge 7.464965687746722 9.187385815431359 10.16211399668199
Ge 5.766355297166557 6.567111304944309 7.457223591321174
Ge 7.272549784820477 9.583349497756164 7.575906778959216
Ge 5.446625284138565 8.128621244900026 11.38188718875423
Ge 1.76532055880189 4.548403130825831 4.457985103736464
Ge 4.987909487292993 8.590944996457832 8.93662439014885
Ge 3.2904862241368686 5.896951709191897 6.578632633751836
Ge 2.480868382525427 6.960866918387836 4.40615790265708
