21
Energy = -84.05815738 eV
Ge 6.756842603748097 9.577289281859281 4.16378716517858
Ge 8.829957369021283 4.154762916197217 5.895994266625609
Ge 8.14627206591129 7.8195555660997975 5.996540186169786
Ge 10.342973172987321 6.2632149764638925 6.227997855753169
Ge 7.217805403238834 1.8841320465038476 6.238799275718619
Ge 8.508507044765476 2.833848250254755 8.306003599100995
Ge 6.130585972178266 6.952340346188396 4.071751151872555
Ge 6.949487243359497 10.000545050667366 6.8269854055876635
Ge 8.687398340899922 5.6379612437668625 8.155096582374568
Ge 6.8083475693109525 4.337114935336724 4.189518134994532
Ge 4.06295461301895 8.817948954472204 3.4306234766787824
Ge 5.759999885349486 2.613645115475609 8.326226776138471
Ge 4.5543951153421 10.833850743939223 5.2102760875900564
Ge 3.5257906297450097 6.813851814767412 5.189336079502683
Ge 6.695768381413435 5.765242421329196 6.544892743282342
Ge 6.915512041951673 4.571077330611978 9.77332135967938
Ge 5.052040728994834 3.59259717710979 5.91910233746908
Ge 2.5461236626809822 9.227596094368607 5.625119358441391
Ge 4.972447581939306 8.461241210057047 6.491710191979884
Ge 2.8215865653971806 4.670536736868694 6.544947305151837
Ge 4.814878284339882 5.281111882536709 8.172887266402524
