29
Energy = -114.85013364 eV
Ge 10.202896230756155 9.390733707598676 5.291481139456875
Ge 5.858645255220545 11.646638976797751 6.119502658497365
Ge 7.124082334076216 10.4973235643323 3.879783300133962
Ge 11.556178562049746 8.107197760064553 7.080587956020522
Ge 4.446330432225983 10.38439487269306 4.163257411226972
Ge 9.950773217765729 9.847057366096697 8.064851842036912
Ge 8.031387531716636 10.362222070831926 6.582952303896273
Ge 9.253205195480508 7.2132172331051105 7.049186080001398
Ge 5.775339328729473 8.330295813834732 3.029285293876734
Ge 7.637292215450947 8.06273325830137 5.134892631775355
Ge 5.4169375565199696 9.047890660684077 6.405733402815835
Ge 3.6486452994347616 7.857669652920998 4.7718225459201005
Ge 5.6946261767437205 6.362052854691248 5.2081805577542575
Ge 7.509190566529318 6.866722294248296 9.011959387357853
Ge 9.201206735643334 4.7371398756607235 4.403209037645313
Ge 5.230230186412989 7.984473774131126 8.748583426453385
Ge 6.700429034874996 4.0217870886317275 4.772680820747624
Ge 10.946886429346383 3.0978611344803437 6.203798031274444
Ge 10.611453448878681 2.733417188733333 3.7240635361539636
Ge 4.095331263228077 8.51861618784537 10.98419349233655
Ge 8.781914227388631 4.081751836127105 6.981037859830029
Ge 5.53857631443504 5.313984390962903 7.660887759355125
Ge 1.6876315625543135 7.703388465092012 10.465566128796805
Ge 3.4300888298082497 6.181819447699271 9.415108803161688
Ge 6.439219568026743 2.6429924007879193 6.905715956893872
Ge 8.608915523685738 1.9831951548343407 5.218980052709926
Ge 3.2518052787811205 6.21870494546227 12.076020142746994
Ge 5.574158557594607 6.197027039984052 11.136060197934961
Ge 7.439386184076842 4.2339268419107405 9.166576069032876
