27
Energy = -106.55326096 eV
Ge 4.960292924740013 7.032753517110896 11.75503210329703
Ge 6.993282884014714 12.318183708964263 4.977188383962239
Ge 11.259421287002805 7.804396930614351 6.198258325864706
Ge 6.189527432897757 10.826526975989017 8.883931281488957
Ge 5.901495104649219 10.232512396939928 6.398007501619621
Ge 11.940389393598359 7.989424253192644 8.589469349635028
Ge 10.597269991738886 7.271834525087962 10.754786469493903
Ge 6.043861534823858 6.927394818470438 7.060816549437396
Ge 8.003479431198942 12.114062175949158 7.4195488659445665
Ge 8.529220300994133 8.842040786537929 10.403341560564371
Ge 11.259814466584148 10.149466237850785 5.1546529925633715
Ge 5.389432504673174 12.680817598956912 7.047547787203448
Ge 8.097019496039229 5.031338757081918 7.520160584211878
Ge 11.457661237738627 10.250792483038337 7.713123728642117
Ge 8.936969914154906 9.675585150427965 7.869856440340721
Ge 12.117687166945114 6.83545145240506 12.60278899820069
Ge 6.534062212455874 7.221910536480666 9.73621178220637
Ge 8.638242526138425 5.674383770620529 10.118613459614412
Ge 6.442063923499753 9.20919757444464 11.965568843974825
Ge 7.560041356674281 7.008625515543094 12.651508035785
Ge 6.814966934561997 8.423883521720034 4.716439834895929
Ge 6.544696218611753 4.966183581699512 11.54002221100391
Ge 13.268210045152925 6.962101583744092 10.439615859198947
Ge 7.523558553325376 5.785876831782033 4.86736184531232
Ge 5.883289845910706 4.465607861983688 6.458555030158885
Ge 8.616760286119694 10.217339613356916 5.213912377449211
Ge 8.697481164258868 7.3396554377758 6.640845091073634
