23
Energy = -91.09878217 eV
Ge 7.569105741286636 12.564138620601664 9.13857956740716
Ge 5.43989887160291 7.498090883768127 4.235483971941709
Ge 5.794427426313963 10.67288667354951 9.018120368366992
Ge 7.660396967880331 8.080905142332831 3.155799468103226
Ge 7.5063965819385166 8.029703332365543 0.7019529540861107
Ge 6.1906538586089 8.879071544835819 10.970932744078574
Ge 8.677874680462754 10.37783886936217 8.533568810089708
Ge 7.781767025398031 11.013943394826198 11.097570561703431
Ge 9.006654957069369 8.665029149763411 10.529437695097393
Ge 5.301953643958807 7.292251481925553 1.7028669275359019
Ge 6.902516977084414 5.535920572065334 2.5817880805540887
Ge 9.002671334836908 5.647002487501648 4.387017730654187
Ge 5.44134696231685 6.612186249418444 11.664414895336598
Ge 4.991980062592219 6.941902440935107 9.067776141060387
Ge 7.054127688900027 8.243334546161433 8.272855090080519
Ge 5.555694471360676 2.9745775887349866 6.03461394249623
Ge 8.250954096712753 3.307663043294577 5.575921702874333
Ge 8.205927290656751 6.485931971158333 6.666478408370974
Ge 7.597831184157596 6.442940961219299 10.181367958821221
Ge 6.297871123120812 5.2775727789892075 5.25898065133522
Ge 8.96675379052842 4.5970423105387175 8.25932666237943
Ge 7.35201191172326 2.52415873831634 7.928401138011848
Ge 6.248936202326694 4.897781502813357 7.926736230772441
