21
Energy = -83.11845371 eV
Ge 10.649808118363836 3.330550753698362 3.212779753012697
Ge 9.246463983005023 5.1641052204718925 2.4022655469897773
Ge 9.947854918008897 4.881559013172878 4.936456525153138
Ge 8.506244776297795 6.894809973608549 4.045593972675696
Ge 8.451685577778578 6.299461960398911 6.926557147242992
Ge 6.3104192271475785 6.341958545858902 5.303885312471866
Ge 9.474208321172245 8.741187466219662 6.881399567174044
Ge 5.326820305255875 5.123993342159289 9.134817021593527
Ge 6.964889458423165 7.361982348196793 9.28411137440782
Ge 7.877300227068942 10.047239027572214 8.426771503955356
Ge 9.222993634030884 9.363236969564703 4.403190650256591
Ge 6.2155835252912075 8.358042732462652 6.78912764258905
Ge 7.996954859168274 4.980319380059807 9.135326362441514
Ge 7.402891316433917 10.469061333519912 5.916593800498885
Ge 4.225450138717599 5.594766334446015 6.825962890180301
Ge 6.6190732662690355 4.190140822036917 6.941219354951248
Ge 4.39744406154532 7.771428191971906 8.460658873232141
Ge 7.733218368901554 9.269760466853764 10.984275027561207
Ge 5.066905225711058 7.952135592488942 11.12266853513814
Ge 5.4181784189001885 10.377660254528868 9.656804969538143
Ge 5.636084185360679 10.349203245967605 12.07639151786566
