26
Energy = -102.8452903 eV
Ge 8.525007237796421 2.417758135794199 10.48183544919993
Ge 6.576733599870497 3.702881535126907 11.55702252569538
Ge 8.88316145790644 4.979012713357681 10.889971963698006
Ge 10.45650586565405 8.827186852675984 7.053956690295909
Ge 6.738025085483407 3.1513401746612444 8.857002696549849
Ge 13.68066981044747 9.63343426133024 4.4568227369594915
Ge 4.639981980329127 4.2888194590267785 9.90837802149405
Ge 12.812390367447627 8.267530624314498 6.293232931536048
Ge 8.227349772179348 6.633111682322302 8.964184534983941
Ge 6.947187934727538 5.227893573884142 7.254838159822216
Ge 9.230615050442685 9.07015633833196 9.321520351391467
Ge 6.667111771640382 6.350636858804899 11.468230288780035
Ge 11.648959453107425 10.533144322218691 5.444116393974843
Ge 8.831885876089942 8.96457652433684 4.770554873059132
Ge 5.712789236043462 5.398921463611193 4.972528896232984
Ge 5.524995718323626 6.636475163288668 9.08366805235111
Ge 7.601523880654877 9.106030219143657 7.247102687606813
Ge 4.068475254330238 5.289327941728508 7.1282591283693995
Ge 3.4314293615785996 7.846158579063034 8.141429058795453
Ge 8.390944458055474 11.444426609138024 8.47964373625492
Ge 5.074420204977528 9.305708394466121 6.903262423766121
Ge 3.8598552213028157 7.419010231765935 5.39922813232494
Ge 6.5198844253580885 7.809168811653307 5.100339067014788
Ge 10.126702111886901 12.208660483937642 6.652529820276136
Ge 8.031339927065087 11.276147255715607 5.533088807768377
Ge 6.104857333958896 11.697943421923966 7.1201966486401815
