29
Energy = -115.42674223 eV
Ge 7.980675307007575 2.7041478779256565 10.971843716678613
Ge 6.782468642624866 4.450771643197987 1.0391269422799978
Ge 5.534159020115532 2.0927547572626195 11.501328819848805
Ge 8.103551249453016 3.875585086732198 3.2653911252789234
Ge 7.54309093698465 1.7274782980465406 1.7160217215675844
Ge 6.88279957384429 1.2606707628828469 4.202123330234982
Ge 5.1080179435862805 2.890306333724091 2.303031490919654
Ge 8.642454014465022 2.6079578319715724 5.506067992219157
Ge 6.154481783657733 3.9235472201419475 5.093914430512692
Ge 7.053527276208533 2.978111493394051 7.514141380709116
Ge 7.186722980712667 8.994924484190145 9.755033216883724
Ge 4.353468924597899 1.724881316373408 4.479935710559943
Ge 8.483375865095645 8.55552439204526 7.127556534062873
Ge 5.252802669954796 8.885184693857152 7.7851247335828715
Ge 4.516625118978808 2.8950274656593806 6.855696067702904
Ge 6.275182200794258 12.799109047423208 6.606075195858198
Ge 5.231748463097916 6.438635997004999 6.265170422475819
Ge 5.058434182027235 10.816098805812054 5.570969114906207
Ge 6.4782544858823545 8.523143601635589 5.456138887296876
Ge 7.441766020127443 10.860283079595813 7.821117643296823
Ge 8.788247846817562 6.997257975821963 9.081267293842965
Ge 7.016766789663049 5.524094857683421 7.903947240727303
Ge 4.807509635794524 11.598299975570502 8.285790402429113
Ge 3.0537732905475217 5.204933171985657 6.926754595626978
Ge 2.99291209109998 10.246332376491685 7.1090532397738455
Ge 4.732821885308757 7.853506908976684 10.217438671598371
Ge 4.478820332185522 5.276916230369903 9.113286328770727
Ge 2.916385135643415 7.578967363710509 8.208635439378137
Ge 6.462814322913494 5.845110006494039 10.51579638994297
