21
Energy = -83.80974054 eV
Ge 12.18091620957547 4.476162388289153 5.846503365792398
Ge 11.837116446425334 6.997118092510531 4.7187495031698985
Ge 10.888008901647677 6.246768270663524 7.305211889697309
Ge 9.593742231919546 7.004562679170711 3.03700186884588
Ge 9.83660661286398 3.696387968632798 6.786500906866287
Ge 9.936600648028625 5.045955794199163 4.6049053503292185
Ge 9.512885164859822 8.003855603977348 5.608589278848344
Ge 8.232224409307575 5.776549967329649 6.9428730067461055
Ge 7.505906159029498 6.53619476827719 4.540161373329526
Ge 6.757538704566584 7.825569657357742 7.988049866338238
Ge 4.0287963454189555 9.17736487658488 7.5544620499465465
Ge 4.639379169311136 6.743516712822298 8.866107059403014
Ge 5.3060554522463255 7.43044495095182 5.907271013263004
Ge 2.288566852346539 7.3110004763041845 7.544891358777196
Ge 5.024139318130501 4.798921540029593 6.833679190362562
Ge 3.011224704112431 8.333548803960014 5.051692891221376
Ge 3.065923511354333 4.729798726476183 8.741722333105768
Ge 3.821781185901792 5.640573213884094 4.530470601155951
Ge 0.5997694654365543 5.461757863417546 7.712307949871512
Ge 1.2343188578550943 6.296195375299505 5.166654541906173
Ge 2.2869373019318693 4.055202667775649 6.18899824192237
