23
Energy = -89.99756963 eV
Ge 7.6382352293827775 10.40548108107524 9.730807538864763
Ge 12.392415274348846 6.929036090063738 3.010296872432899
Ge 7.183430720923979 9.297353113653228 7.1436133639145645
Ge 12.97493615838304 8.677371205605061 4.768109787285002
Ge 12.296014587803242 6.719470629296863 6.061459738095614
Ge 5.383504796867945 11.004369962655517 8.66363813777586
Ge 9.444669883240552 8.76016336845464 10.690915889895455
Ge 7.061490923802253 8.315570100510442 11.468508974557619
Ge 5.39481666380742 10.336632414526305 11.361035755655342
Ge 10.33905213907774 7.375526640072524 4.237840668080552
Ge 9.840095791256042 6.559240484449588 6.528084441418113
Ge 8.54512195513288 7.463047180366303 8.634386138983944
Ge 3.0335133083287245 10.26147189299425 7.751410304006787
Ge 4.698259342969007 8.361673879757296 7.141342516717723
Ge 5.94340880473884 7.581046799954919 9.255911716007189
Ge 6.8783526902593515 6.230312206118377 6.160599952895902
Ge 7.218536317961917 4.248069864327756 4.353313916889774
Ge 7.062353678690114 5.058822296366717 8.755213032877592
Ge 3.7154835223145186 9.042772270441718 9.821135011299507
Ge 4.564854918746616 5.595363096493864 7.622549991949361
Ge 8.638235097893498 4.146208341739727 6.556134041513262
Ge 4.847132648179831 5.0828128418771135 4.881078358840935
Ge 6.071255189652424 3.425593700506361 6.662484757080712
