24
Energy = -94.65800546 eV
Ge 3.1842223857738805 2.6793079109767794 2.3423603988453405
Ge 6.509868317149127 5.698239822371372 2.9960127381993327
Ge 3.8556706384061825 5.377967645715401 2.3398560163183117
Ge 5.4292768305407275 3.2883945182630283 2.987894026572484
Ge 10.545536362937863 6.980676161596575 10.127623833860136
Ge 12.026352205845335 7.940607233090105 8.01469717543589
Ge 2.752024383555857 3.9853662015249216 4.516543027325114
Ge 9.546192663255184 7.214155828024483 7.7219833638882855
Ge 4.731667776723137 5.707748583981058 4.924400566652376
Ge 10.490892158870174 9.524325822714419 9.457830791399202
Ge 7.036546458004942 4.277547003793867 5.241446282316703
Ge 6.874311459170255 4.257684686995119 8.059962663212938
Ge 6.966854776655109 6.900842740631232 7.7259824818811005
Ge 10.378263665632689 9.566032753491426 6.687637250658215
Ge 4.830870601662427 3.1863022796193214 6.052108470732399
Ge 6.241030445775471 8.557348194817783 5.982029890899278
Ge 8.000701512556283 7.865891067499389 10.130145395599794
Ge 3.8182181084760134 7.710340617431739 6.179823613242878
Ge 7.987593668471322 10.306475596727566 5.50071140149754
Ge 8.102419346306762 9.82093011368763 8.318655417741837
Ge 5.921822160974687 5.941332067203432 9.949231282758683
Ge 4.41379442333617 3.5530613383933445 8.674270108680414
Ge 6.115932087022553 10.856638978358728 7.36272228329234
Ge 4.1911071542441825 5.965651196198644 8.042059259955805
