27
Energy = -107.33830234 eV
Ge 10.364501175455707 6.738887062735852 4.661913546124795
Ge 8.019894520169531 4.925776395473395 3.7346619386507527
Ge 8.276058839635436 7.4271646891299685 3.1170361914127076
Ge 8.703585675820635 5.70674128763291 8.843768768509602
Ge 9.26019132291319 8.875068535058332 5.351553849805891
Ge 8.714866896962024 5.690188490483444 6.303453549505298
Ge 7.777306535460961 3.2314044452057207 6.102211836888276
Ge 6.594796701755377 5.086274102567106 10.091014404721452
Ge 5.4762054758781975 4.642120090964674 4.892557661992287
Ge 7.666965899445083 9.911814767349714 3.5861255612847223
Ge 6.640935810508725 2.6103188123384493 3.7506253069981805
Ge 9.538678428473316 7.88032388045889 9.947432441541096
Ge 6.999095789055452 7.56723133718749 10.119932957018111
Ge 5.911260433914535 8.202303693782602 4.3190777152011
Ge 8.504002000995015 8.99515579229796 7.863029013856385
Ge 4.31991614718792 6.3610149001107175 3.4077595007834867
Ge 4.314928350074653 4.026766115164308 9.246447756827132
Ge 5.428798874459024 2.936052187073611 7.1490586125753275
Ge 6.107745622611455 9.46662317089892 8.50168558567081
Ge 5.1361559179884315 5.655258505937593 7.47239162073493
Ge 4.081325043073155 2.454093230716847 4.985058345752751
Ge 6.657044484775633 7.516661898675701 6.708543223040739
Ge 1.8198947090081006 6.652763941903139 4.06542457289459
Ge 4.71225877582572 9.517191157773537 6.2255063459504605
Ge 2.5053441517891386 5.554933572648221 7.747255886027084
Ge 3.0615167077954983 7.487389417746772 6.079104402750046
Ge 2.6576377280815766 4.60460051700631 5.370351154627937
