26
Energy = -102.59193883 eV
Ge 6.652824134274337 5.622845407400994 2.249290691967873
Ge 10.803111343606838 5.181963761948139 3.8416761756559468
Ge 6.960873306254349 7.063555687657994 4.38523510293341
Ge 6.487849024591666 2.91441221316245 2.6649747810533935
Ge 8.696144980403545 4.106804518628666 2.8518318914755807
Ge 9.332323117615747 4.307208687087942 5.742773321372923
Ge 9.451663628430232 6.994507327158233 5.12418380154985
Ge 6.729023669301133 4.443749618806814 4.816970861318249
Ge 4.46298542528862 4.609186141316034 3.4055403628653083
Ge 5.988953807851775 9.270558630612522 7.496488259715614
Ge 10.209731900269583 7.836121204090901 7.413786815224613
Ge 8.0764593851444 5.968086477780132 7.360530068978481
Ge 5.3440268125702035 10.71506688968823 5.520450368655263
Ge 3.4599663001453473 9.038317649402485 6.09380732940934
Ge 5.098655544920103 8.7854021259321 3.8121254158356592
Ge 5.33822723389461 6.791411296629703 7.408437204573103
Ge 9.692010494179614 6.510146269602741 9.516535947878241
Ge 4.253630104145433 6.674277217183156 5.119678865919333
Ge 9.257962523192829 9.353591901529347 9.243695877317492
Ge 9.511825924975572 8.031678228456274 11.463960600429179
Ge 3.8736008251738 8.863785478582326 8.922282315286042
Ge 3.639529906929706 6.278264157930601 9.310242000175624
Ge 6.465480953026276 5.767680724845518 9.855551627458492
Ge 7.165295323647455 8.207021773180964 10.084552013498111
Ge 4.602690618761291 5.318269746977363 11.539048274504964
Ge 4.882952965178354 7.81630599930344 11.268688186804896
