23
Energy = -91.28415883 eV
Ge 7.784455573709139 8.60150618247621 10.119715626215193
Ge 9.853888563792385 8.700098526641622 8.724686684749493
Ge 8.003215462885523 10.247267387938768 7.860142603669682
Ge 5.2434576519130855 10.09806092807865 8.103454918821097
Ge 8.013884546410608 8.353073024403042 5.963582405982229
Ge 8.660570042297687 5.626816865397881 5.570650011388532
Ge 10.342921061229482 7.331019164182431 6.543598290704366
Ge 6.238133024850118 7.543386886213279 7.591604725372606
Ge 6.8736606086872385 6.15677232145486 9.710534118714538
Ge 6.7149113704444705 10.930927450963509 10.010465831546114
Ge 9.183230891180274 5.615166522613811 8.372623772198825
Ge 5.376841607714489 6.350222618948007 3.2792499086854914
Ge 6.227881182239156 8.736824954124582 4.073758278837527
Ge 9.093175780278719 3.184014233684023 7.215377342698677
Ge 6.285887989152442 4.713188358152157 4.972310569871818
Ge 6.643716207415985 4.662324021987413 7.563568297569165
Ge 9.275769548889954 3.2727685482284437 4.638960443163213
Ge 6.905633738058737 2.158961862202989 8.083543021316709
Ge 3.5493274231000154 8.190570235265685 7.860519623452966
Ge 4.516637652176678 9.95238557983446 5.622851934921723
Ge 7.010364333813311 2.304181934785532 5.478546552969466
Ge 4.459620683072641 7.197641137600628 5.505498553885814
Ge 2.2938096629542546 8.661644889815575 5.688383916738222
