23
Energy = -91.62219717 eV
Ge 9.897138164798017 7.978732618138353 10.174588159988202
Ge 8.119517284686397 9.045409681367733 11.87789420856468
Ge 8.661656768153689 5.696003555128449 9.448682767691235
Ge 9.00114285601232 10.245539421580041 9.040032792695376
Ge 7.495406052738586 4.7193651592786034 11.401951327545612
Ge 6.395416974562285 7.0027673318226125 12.12286086255898
Ge 9.911519746104902 8.233516493508548 7.318040223177832
Ge 5.9145554858660745 5.90145459582002 9.691531307491875
Ge 8.491076875741639 5.920225313075947 6.884590945096416
Ge 9.153916340877643 4.855997002532363 4.614127947565677
Ge 7.149138520130062 8.148862941879836 9.649484179236953
Ge 6.789122989093 3.9714183247709873 5.796346965578382
Ge 7.2776307222667835 8.214170149841491 5.960565128031384
Ge 4.572572285100649 5.242490733218315 5.002996748337757
Ge 6.620079778550035 10.737970924568959 10.4287343270332
Ge 8.77536289046632 10.422786543120864 6.273958188580823
Ge 7.596399755787676 12.106566603078274 8.047495915644774
Ge 8.449011288127398 7.22654872257539 3.7750906828460566
Ge 5.833339490433283 6.259416896349932 7.031696365736398
Ge 6.219600979870096 9.911159726432247 7.782101508710078
Ge 6.740859559590459 7.095226625556287 1.8753146152389426
Ge 5.534270010512023 7.506385259674026 4.075506921320841
Ge 6.747944564592961 5.000388456556196 3.374953430692685
