20
Energy = -79.54524323 eV
Ge 1.6372786966826303 6.446527426106608 2.663743392045751
Ge 3.4144869524830987 4.616642881377654 2.9720149272162177
Ge 7.70538750422752 7.308015391378669 4.081695250919845
Ge 4.027136681706885 7.462667254406894 2.99982883770085
Ge 1.4046958547726258 5.083693397074522 5.01515872408213
Ge 9.01180879540003 5.617869075350752 5.851068425737061
Ge 5.646813234581857 5.612835646288362 4.010882889031454
Ge 9.538216685292719 5.364993595714811 3.4822219646369796
Ge 1.6831066027682038 7.816213626411343 4.933389820504413
Ge 7.600611515702152 3.8295886243632036 4.1464991635154425
Ge 7.688908944969878 3.3651777147386017 6.918674536403638
Ge 6.926407401557692 1.6470929752445118 5.370629210069949
Ge 2.4488492785734395 6.306382453653776 7.131353590033746
Ge 4.225361108239445 7.431686407915977 5.678442659376602
Ge 3.944464208101707 4.582786480157942 5.731260279362426
Ge 6.645248685507315 7.480138616615591 6.348437173295874
Ge 8.700179734963115 5.18614921668892 8.361086924429559
Ge 5.029430338751737 2.6054514085878484 7.057692052333721
Ge 5.607897877693727 4.8960197749145 7.986163278966743
Ge 6.706182855981058 6.9325409909658955 8.85222985829543
