23
Energy = -92.52900946 eV
Ge 12.02367818900143 8.767465635212782 11.233369640969688
Ge 11.310964946977274 9.886458767067039 8.981692791351508
Ge 11.558452198043039 6.204638210726238 11.577211366128193
Ge 11.810322488777548 7.187033780493341 9.020419403299007
Ge 9.906943501118308 10.34917739865735 11.395995899580786
Ge 9.282891149052466 6.264479432483098 10.419288307163194
Ge 9.749248438174517 8.028604434083467 12.671832688458789
Ge 8.492754890963788 10.336480194814737 9.099203310255117
Ge 9.40691767968196 8.01154298212396 8.534100868023458
Ge 8.03091237929998 5.959703734924456 7.236789107403693
Ge 6.984675952838024 5.354499141827712 9.524162409502152
Ge 7.7133260424982675 8.405094845199137 6.469003832787577
Ge 7.864323998306389 8.434532657376932 10.885191813761693
Ge 6.161517279623748 7.633125929743115 8.482121088673344
Ge 5.324316181377803 6.360979915199264 6.277483736823672
Ge 5.664924475148324 4.390059784814057 4.634203071664328
Ge 4.003674532372975 8.427184922649527 4.946719544366667
Ge 3.465776592636507 5.67559653104384 4.339145147774513
Ge 6.188704824962515 7.001502440926346 3.800879441782172
Ge 2.29668734779914 5.732856531954001 1.9801562378810864
Ge 5.0083334521911 5.262787366482868 2.0796940383015974
Ge 1.7015178475083357 7.444721503810884 3.8644074844068177
Ge 3.9529502509468406 7.854262818474486 2.3077905642270284
