26
Energy = -103.34049904 eV
Ge 9.675335517792098 7.049251590478493 6.348260008044097
Ge 9.592997239810005 4.815808244551078 8.025926023661047
Ge 7.139620359913669 5.879967762362783 6.796904852117125
Ge 7.826599399298848 5.502575397036338 9.80559368987233
Ge 5.623916625032221 7.273293681365771 10.151356422886396
Ge 8.88897989542064 4.696747543215036 5.2422582887036935
Ge 8.872311179732945 8.95675959717589 4.128194001452565
Ge 6.4442594427078 9.516862478670019 4.8668382191530775
Ge 7.602255840524342 3.2008587368844936 7.221468996231405
Ge 8.061000805983793 7.847791483494047 10.794609559750024
Ge 7.151354380679145 7.290675615338473 3.2547558914438484
Ge 5.473703177490991 4.747418260806254 10.488207583037244
Ge 6.85622296613806 4.742649555196582 2.657393529050513
Ge 5.332762169618261 7.007601770749262 5.226175039469769
Ge 3.8365464595373804 8.713138895282967 8.990833471208248
Ge 6.998376051284001 2.9548076947881103 4.636866754560421
Ge 8.117837946269404 7.943509902591911 8.233871768621102
Ge 4.737903567405082 2.74595294711135 6.166359275147855
Ge 3.6077967540642573 6.754913612591914 7.328435123753861
Ge 7.025577128575744 9.68538873909742 2.1879197959139605
Ge 4.79481403528013 4.688697942048997 4.282656337769185
Ge 4.795304628689938 8.658393670871208 2.9087030822678432
Ge 5.817661351681998 8.664934339224574 7.383160601679512
Ge 2.6251455981621548 6.727779596438546 4.978306322197392
Ge 2.6391654174183192 4.169231485360498 5.571078849136801
Ge 5.021704600079356 4.671555742602423 7.973254420433296
