23
Energy = -91.96574091 eV
Ge 10.793553481213184 5.6832673268975675 8.629524783133338
Ge 4.608759669286792 7.466889206762352 5.019626141643442
Ge 7.8856024527827016 5.641754571864934 12.049238780528414
Ge 12.163406432572852 6.89305610505708 4.762956226103901
Ge 11.978456308707075 9.211480602125146 3.7235242508313844
Ge 9.010229747071238 7.725872095928652 8.781698496521903
Ge 11.575022000702326 9.187950117725201 6.194906422063211
Ge 8.12067371750975 8.19496595995778 11.135932646810472
Ge 2.7424307073205894 8.407391045080951 8.998055226299389
Ge 12.59340675892591 7.107536361002296 7.36983313455901
Ge 2.7075553763684685 8.991857470893937 6.412998619396093
Ge 4.994757176924902 10.10185315892571 5.56966336350237
Ge 3.2008302994093496 6.349577541386972 7.254664359255621
Ge 8.87677561344247 9.43128746475513 6.872889573048923
Ge 9.589634707921297 8.255905430877778 4.390579900763202
Ge 5.731728186205202 5.795703075030486 6.767024025197515
Ge 10.1466282069394 6.446596479460924 11.142871270686546
Ge 10.007509251195213 6.661461030172744 6.3656342387574325
Ge 4.59627613907271 10.058871571338997 8.146523384204539
Ge 5.114766292856298 7.356539153895212 8.852089202628036
Ge 7.461058043171302 5.8548316564283605 9.522962233837609
Ge 5.7850939273273285 7.18193413771623 11.442265355999057
Ge 6.461242659183682 8.328476388512057 6.779108572225588
