26
Energy = -103.35337438 eV
Ge 9.400811796711283 10.490507972951487 3.1605514490118787
Ge 10.894021764198387 10.207701561971412 5.248454830828244
Ge 8.979064846968209 12.087593059838104 5.415172765008164
Ge 7.181224350824341 10.260520771515468 4.607197223784483
Ge 8.936507019893929 8.346075968286138 4.7686785400799385
Ge 5.531536009661008 8.209164604537248 5.39357417190757
Ge 10.879297895188163 7.892914721233721 6.824497153982455
Ge 5.024595688960093 5.370965043122079 6.341618431024937
Ge 3.562449694889817 7.833178922345477 7.055735543428665
Ge 6.308147133200933 9.048457338246402 7.815236896628431
Ge 8.665887451549576 9.94067901737902 6.899075762134705
Ge 9.394900561796542 5.885110365860052 5.722913047146509
Ge 7.207736377856939 6.718642934761303 7.034708312023192
Ge 10.94324510786218 4.759285023714881 8.015520182539117
Ge 4.088462308408618 9.167457160589937 9.24654574632819
Ge 5.868289401365564 5.127558829419557 8.852838244735004
Ge 3.6726305561118053 6.337229447173364 9.944352924872955
Ge 8.855108543583118 7.357524368320509 9.849495290043285
Ge 8.556920567704134 5.08336021601077 8.706536890514005
Ge 4.144292200938419 8.146422143402658 11.613615082272615
Ge 6.177501018615913 7.478381389890693 10.083552657637364
Ge 2.736985611227643 5.568049165103708 7.647383833716271
Ge 11.916387581085775 6.90943003889191 9.172831418124371
Ge 10.307258402647221 9.292418578885153 9.088766834732096
Ge 10.357201498356625 5.369778683774422 10.851814320637235
Ge 11.086364244545875 7.873659431890909 11.362033490612982
