28
Energy = -112.68550352 eV
Ge 7.097158750575685 0.8445198519910451 7.226962018261428
Ge 9.434986988222729 2.0935890089324336 6.672123747249834
Ge 5.555802004264559 2.1079523547893393 8.929330525454677
Ge 9.689970638373072 3.36804771662758 4.1199258059815405
Ge 8.335562474550505 2.5535141259881247 9.10030861716156
Ge 4.78492121575363 2.249201480741506 6.379923225702724
Ge 8.323491571598431 4.391765055863477 7.077785931803702
Ge 7.100987208852731 2.6618003262509666 5.239179542375265
Ge 7.458446821077224 3.935602908395686 2.979518244834809
Ge 5.685341263415659 4.7468408584940684 6.386362344921274
Ge 6.336779547635727 4.5629510681598004 8.980078950871611
Ge 4.409168728590226 6.493054252739878 8.086729843521384
Ge 9.269045059072957 5.931670417126065 3.929978512607337
Ge 2.9553656115503406 6.280327108274111 2.952144805932282
Ge 6.731792734838647 5.984632852593721 4.387690239147456
Ge 9.162802989724735 6.760856074888715 6.48989495873106
Ge 3.6609255984163047 8.698866348585856 1.8538916075005207
Ge 6.432659209315208 6.904585827952572 10.056534047231345
Ge 8.790732905167793 6.02888555861949 9.204038079199693
Ge 2.733180479997925 7.09726794765671 5.4314412181543545
Ge 7.02959606600916 7.640708099585221 7.560905029068408
Ge 4.9439926285987035 7.665365778628296 3.9136191645852523
Ge 1.3268061659412216 8.343769472700298 3.340977335735051
Ge 4.2402732842033055 9.546582436640906 5.628545908625447
Ge 5.3782087156898015 10.183123034746648 3.3302803327503994
Ge 1.6432305504141056 9.423537307617154 5.793252603261825
Ge 5.1001858809865634 9.06272355752169 8.02040172426457
Ge 2.784390905226973 10.6738455845505 3.654874127128613
