21
Energy = -83.74013618 eV
Ge 6.903468638647467 5.588833976618037 3.371396141663014
Ge 9.498085929993719 5.269150434578789 4.2780312577733675
Ge 8.065648245989648 6.962185341040575 5.504055807935837
Ge 7.736656991282631 9.501879649409045 4.332789423064573
Ge 8.102355188334199 3.0565090637299583 4.209711621762067
Ge 5.511438384473282 7.810891330081092 3.9203861987962885
Ge 5.438344279348968 3.4800079804903508 4.048255255225737
Ge 9.16995308389129 3.8603911558158015 6.577519582746159
Ge 5.6070220305533445 5.501512463028365 5.768526572544542
Ge 5.2036017081267305 10.24190426462563 3.71891099693216
Ge 3.3157799197200397 4.08519414959677 6.264223017746356
Ge 5.780156725538874 7.689757898833185 7.549070081781131
Ge 6.697205068107587 2.735245732204721 6.398367223507237
Ge 3.382635936076209 6.8185244167798995 6.289365710955023
Ge 7.888968696649247 9.106230761714244 7.085557102655065
Ge 5.910743936367539 10.4602426245179 6.087008674817003
Ge 4.848660829581445 3.33022280479471 8.383626840856802
Ge 7.235266087386603 5.180217143323898 7.714194797466649
Ge 3.0186183729908653 5.20789281446631 8.642700981317335
Ge 3.801533465573222 7.59282316630232 9.007287782191208
Ge 5.612106919471212 5.509780973945578 9.736186423235635
