36
Energy = -145.12722591 eV
Ge 11.528163292603134 5.514934156422745 8.039328383609144
Ge 10.45898307605342 7.378252393514207 5.880700067361973
Ge 9.627825006837234 3.646951126864079 7.510809709885236
Ge 11.209344248642433 4.829850835721293 5.5845547097785095
Ge 9.362592641350407 5.363597588838982 9.645729862816777
Ge 8.579806691605334 5.514728516692714 5.698169326770491
Ge 8.596971763414828 8.629428143681459 4.1864909712516125
Ge 7.441482507817409 8.326236809003154 6.628228620729103
Ge 7.427427323467629 5.657661942729185 8.023029645071684
Ge 6.9099134670806635 11.110198197966296 7.617439071725132
Ge 7.531164819365092 9.084639848113506 9.191017509030662
Ge 6.523808588039718 2.436013440535668 5.292966075645311
Ge 9.1792850957865 2.903630172546941 4.841871953324407
Ge 9.690215308284358 7.673261845819292 8.42610570925498
Ge 5.177573743811907 7.583085107572431 5.527703784176317
Ge 7.438385745519347 10.508752161156828 2.8596727606287673
Ge 7.679567862649233 4.497499989804366 3.413626221661025
Ge 6.570466656222744 10.686885404284162 5.165234834379049
Ge 7.674893386926451 6.907556948476182 2.592727761164765
Ge 5.145922732511363 3.436187776412144 3.0887693095062643
Ge 5.4243022487825 7.729319492433923 8.471250268737471
Ge 4.934296261628087 0.9331805384155121 6.762651742606905
Ge 5.1484780400535115 4.981067658145969 5.243910266782314
Ge 5.767685946505251 8.453916227286031 3.12726949381795
Ge 5.780777196106721 3.638418307992968 7.487736539000947
Ge 4.5603959207633125 11.922844557599776 8.454151351360771
Ge 4.25055230660911 10.730308741300219 6.28043198407564
Ge 3.948850672649498 1.3741688686471276 4.289861455718913
Ge 2.716484334074574 3.9089907641629056 4.367753388352416
Ge 3.1833601091359984 4.511358273564819 6.912792539688552
Ge 3.7445271383827388 2.473237940537521 8.584861606990284
Ge 2.3696010805870698 1.9985178067830416 6.264042041781472
Ge 2.843283966568924 8.480676319492147 6.184630107352179
Ge 3.552229767182337 9.548883702443916 8.745875128592175
Ge 3.0827493523184017 6.6008484985029385 8.496713979895125
Ge 1.305273319827381 8.388603255367576 8.196795308088081
