31
Energy = -123.44072463 eV
Ge 11.606964331636085 4.74345161402117 7.384944265120122
Ge 6.597072839411344 12.197366556691401 12.101520018305825
Ge 4.336727624377685 9.354933236319983 9.172150429881226
Ge 9.501735774786404 9.7746285005453 5.702763486997913
Ge 11.037642563995115 7.125439913435215 9.081749808966201
Ge 10.555124777413209 9.966419490567585 8.49156570822177
Ge 8.49646722020507 7.248087823753799 9.814355442572367
Ge 3.784077535642183 6.847015229600697 9.397962186350872
Ge 8.85220705626002 13.184377205003138 10.961276131191878
Ge 7.688127194172272 8.055944215551591 12.080784765033206
Ge 5.853275584401336 6.7003848772488706 10.862097262262148
Ge 6.346885959670193 4.717291358979684 6.755251349944186
Ge 10.461085102032277 12.145581521846724 6.493206454142651
Ge 8.097715669840914 8.826859093607132 7.842261541718739
Ge 4.447076281333805 11.222141828543071 7.522176247953124
Ge 11.365183548096848 8.16787313998152 4.786179130935779
Ge 6.751518663282067 11.025628146196889 8.68739155650593
Ge 9.922351961429422 7.057322060857135 6.719305950307042
Ge 6.180679319022182 9.940934323316116 10.986630204098995
Ge 5.643070294012218 6.973393420991426 7.663770395176196
Ge 12.559703889479442 11.815618492236753 7.978227706232822
Ge 11.825455477339437 4.819047306062171 9.918003833144173
Ge 6.906166823457128 4.998764047887053 9.314169258212427
Ge 10.692517164889873 11.3836089391077 10.719803313792074
Ge 8.978612092438015 12.296511935927814 8.579954596749946
Ge 5.896328796197938 9.382125498263193 6.4766621254961825
Ge 9.441392359704006 4.558384930118697 9.034073159154824
Ge 8.9519483247926 4.67113105686997 6.406639648826966
Ge 11.005257796665745 5.2443638706398135 4.962884805503526
Ge 8.646176579803216 10.70467895603958 12.212534018459339
Ge 12.282465481947463 9.810213803844098 6.515841080472961
