39
Energy = -157.12632743 eV
Ge 7.405191512774546 7.244188066927399 5.794773145621242
Ge 7.442844859358702 6.313127337492321 8.221228661042113
Ge 7.589700127668659 3.095895111540921 5.7514144007581836
Ge 5.538810279260828 9.329970230025223 5.921456978108211
Ge 9.876540428104729 2.7061992081943353 4.191715095329965
Ge 3.7655743327346873 8.957633958718016 7.836821574399347
Ge 5.15998241135514 7.007773120700502 8.93631312960834
Ge 8.624510936988235 5.081551023770312 4.462753459076973
Ge 5.452722715312412 4.192805646615948 8.595703900368221
Ge 6.133418504244039 0.9873219773579673 5.918498499004666
Ge 6.0655671326970255 7.948110842849511 3.5247825796481607
Ge 5.718456429791096 5.266255909630879 6.233018107293115
Ge 4.552165638534338 10.226187072951905 3.778300094373857
Ge 8.21676757303114 0.6471280870624265 4.377163992079492
Ge 3.6612302286344813 5.427555155728826 10.313636678966256
Ge 8.229538561278554 2.421078034260584 2.151479569300426
Ge 6.562579133405571 4.31501607544315 3.145166833188765
Ge 2.1781362228409136 6.872015085497659 8.641149261803369
Ge 2.6246739797929353 9.625332134979361 5.530846847111227
Ge 2.633187459148367 4.0189607394406055 8.380258043397918
Ge 6.8626810428742635 0.0866277144099983 2.046567214819781
Ge 3.572415253004849 6.804973057668067 6.172251034716343
Ge 1.1196074752082101 7.492870129173374 4.880307179428298
Ge 6.958856681340961 1.7304165345950053 10.31363667896626
Ge 3.9850595404914455 2.1312045584457 7.0820854638209445
Ge 7.405039269907921 4.286787717254993 0.4645474781005871
Ge 3.302782866896995 3.8085019874640103 5.2540135162298975
Ge 5.127080961156486 5.692433781518946 1.4955145540899266
Ge 3.5421150168653184 7.609020604522602 3.5708178075612196
Ge 5.56451424690669 1.9777455678806817 3.589063981595242
Ge 1.1437144127051746 5.519787118843627 6.62008423414163
Ge 4.452596105762479 1.0845444680686203 1.343260227184718
Ge 4.908820164732258 3.353064447396592 0.2207359035910963
Ge 0.6663652992090143 3.411790873352422 5.108812539292683
Ge 3.135218695834734 4.692694256353606 2.826457095329946
Ge 1.380646371570292 6.625635038198031 2.351431653777262
Ge 2.0401658692156106 1.291603235411372 5.402076345612878
Ge 2.4251589337069674 2.121686000014683 2.94461830838131
Ge 0.5076572398492948 4.126602004434773 2.6278652182801117
