36
Energy = -143.2343645 eV
Ge 11.034252006049872 5.048424615590042 4.949580077187776
Ge 5.9416955158308395 10.141315397614013 8.330885750894405
Ge 11.096028610096745 4.335000229084419 9.81890341693593
Ge 6.972465558409986 10.130796561746163 4.778500865552198
Ge 9.252238365904695 10.16657728438635 9.544555760783116
Ge 4.368175670668746 2.1478263924546797 8.658907951272818
Ge 3.5299458892420335 10.050077338889368 7.1769856500247124
Ge 4.29949149445643 9.664729246614504 4.599230535408121
Ge 6.838447923333355 3.1944578121775242 8.53263033059498
Ge 9.388978960727309 12.606132209764288 8.306882537779833
Ge 8.86504153428238 3.3234223495274877 10.541901317085273
Ge 11.843350738386121 6.965858397819072 6.55375985728053
Ge 11.400948988120303 8.902757950861844 8.827968946088749
Ge 6.769108043444721 4.662637280789515 10.833153691463952
Ge 10.255599093321921 4.852308086817491 7.4851673658067
Ge 6.829677769833809 12.776053743890015 8.396746595326766
Ge 7.613872821834224 1.175156405151671 10.072900954668565
Ge 7.64286998659282 7.097075924309537 9.92357092957488
Ge 5.777086330564219 8.25123297164417 6.285430782802901
Ge 8.635671153409074 5.342839960981337 3.9690549104909687
Ge 4.629519280730251 4.61764809364711 9.413203057509874
Ge 10.446110007096298 7.577085897296021 4.2352713246621425
Ge 10.174203306278763 9.116643365337397 6.372434089158559
Ge 7.907235390021943 4.824713515851417 6.459985347729404
Ge 8.140189010546562 10.742444171748446 7.032602853975369
Ge 4.377942329821999 12.381740187028718 7.250485635990715
Ge 7.9354339105501985 11.97605867194615 10.699424028064367
Ge 5.430012545489395 2.142750580469888 10.953510342844156
Ge 10.193247859583918 6.727565530441423 9.650773168660749
Ge 4.96304793919897 7.164830250432668 3.8964526230330985
Ge 8.764803885788286 7.18714258865039 7.387759239634077
Ge 5.296098304182643 14.564778300599878 7.596220461287196
Ge 5.842209433037727 9.261209116806167 2.525396278638023
Ge 6.172455575530197 6.239656342656965 7.923091205432066
Ge 6.785345461863386 9.450813146141916 10.640141105185043
Ge 7.5496958655679025 7.667172901266368 4.340242869616101
