35
Energy = -140.17114532 eV
Ge 7.526027737333911 8.795655295423243 8.207567325818601
Ge 6.0327492865298025 5.001376984902095 8.23403715347929
Ge 4.509519295435072 3.2493137209145075 7.166032192400844
Ge 3.3613168586498605 7.900871972820615 3.315459764954597
Ge 7.725628782262746 7.303480760093755 2.729240414136176
Ge 5.869194866437264 8.630817967163429 4.201114600185438
Ge 7.6644148567251795 9.010637241556571 12.176493377170276
Ge 8.813446534367369 5.434706108186055 4.120133977616412
Ge 3.775954857571004 8.521782776612573 10.015309964336138
Ge 9.460973319634089 8.847952922580374 6.538371971103383
Ge 11.225231447573785 6.60284369632182 6.706793414191587
Ge 7.148947973404149 6.866281914195818 10.678359863107106
Ge 9.753791203782814 8.111603394369379 4.090987318705144
Ge 9.681750696456438 8.902833553279653 10.337711604216919
Ge 11.148621317027791 11.002606134031188 9.921763671375208
Ge 12.92287832702675 10.921852553386847 7.990551661691616
Ge 5.132484456731007 7.911683985242794 12.31445613476332
Ge 2.718215631798159 5.336836126226654 3.928263907185057
Ge 5.343788206516737 7.487381650816115 8.191807816849071
Ge 6.81119302611681 6.5131838130427715 5.493196264483629
Ge 5.306955245189688 6.141686189228663 2.8620159402160477
Ge 11.34737597512666 7.005737077583378 10.13025781872461
Ge 4.9740959804228595 4.477071249787041 4.9648588459537395
Ge 10.436469391596837 11.122904651958487 7.313335747303299
Ge 11.281478253184689 6.089565758428641 4.197576614916719
Ge 8.157988396815044 4.630766956576348 9.694469719512579
Ge 10.873656467073271 4.864867754171995 8.654362757030716
Ge 5.389356774071666 10.320289197662293 11.262178270255653
Ge 2.8062755452378085 5.1202248670277415 6.6109615337132075
Ge 9.135797276343041 6.774197923459774 8.549530455022689
Ge 11.959447016786035 8.608458167934705 8.160129442980871
Ge 7.483234978704164 10.635936348476209 9.891547101915446
Ge 4.070819951597444 7.119709500099984 5.671493576051459
Ge 9.178094663131866 12.452672804470206 9.167929208406276
Ge 4.718934666775165 5.983348460790502 10.410713548269554
