35
Energy = -138.74045814 eV
Ge 5.194623381901974 6.126992695360461 7.344369911588487
Ge 9.78847396752482 6.15621021628472 5.985510110517842
Ge 11.114719929716863 12.903041860571417 7.761396264775169
Ge 3.5970924750045143 10.242677247182263 8.818572858912823
Ge 11.653873145621146 12.383985212174512 10.270523735522552
Ge 5.49219706298312 11.941465276287902 9.39779113683873
Ge 10.195230372863945 8.918622849703118 8.442774840067875
Ge 5.870158289746012 7.700717173104521 11.853913479825643
Ge 8.37150269224576 11.205367236195277 5.352984074538353
Ge 10.798819801415382 8.463080248608518 12.564923724979376
Ge 11.279167668579257 3.4246638542970627 9.121250588438746
Ge 5.215297056646659 10.089250974737718 2.857259232728049
Ge 5.10226293336043 8.208053597543165 9.102140308715823
Ge 6.476897764270322 4.198413375875483 8.777192545781178
Ge 7.122138392525823 7.252575498640196 5.768734766252205
Ge 8.215254304763564 8.902103858782873 12.293357187299021
Ge 9.451358748784891 3.556779567661067 5.2016935784937335
Ge 7.089169826442119 4.606320125159743 6.080225348181133
Ge 11.767949281682462 4.138328299524674 6.497620309937626
Ge 4.604350861566575 9.93509303889815 11.218357522863954
Ge 10.501942560898087 10.70203589606161 6.644978203851102
Ge 7.6864472068213265 8.215812962619538 8.035871086915947
Ge 6.1013471959594145 9.681560911734083 5.113515457545879
Ge 7.235153949344873 10.48561841932131 10.644411582027328
Ge 8.448648103039236 12.886917131588142 7.234483129140278
Ge 11.151289953049748 6.0293475217173 8.409945505184787
Ge 9.11942249014916 4.356105273970344 7.927010130643524
Ge 11.408437387522849 9.874877762462454 10.514866691605407
Ge 6.8061695115610314 10.61884762790834 7.600399310638818
Ge 10.247642046958765 1.9993077550893532 7.181061571523513
Ge 7.432267071164382 11.034590639577235 3.069078408790299
Ge 9.940464732014963 7.21475299592216 10.569779854182826
Ge 4.84965001358608 5.848897773529931 10.152769351005903
Ge 7.490323532869522 6.516331811697913 9.919294337489964
Ge 9.41250831795515 11.35737091208333 9.34662107467923
