32
Energy = -125.86997776 eV
Ge 10.485123493499193 2.7436091546006205 5.425778201410148
Ge 8.588908910466662 1.25127653655583 6.343369254075863
Ge 8.89681646242176 3.977658972526272 7.059478729356309
Ge 6.312765373389136 0.4510532791611807 7.333531523542483
Ge 9.595078640410623 4.514381014029495 3.7463259733485814
Ge 6.364331653908464 2.9398713089646664 6.66595989660434
Ge 7.582359719929648 5.339808618527951 5.297994154555267
Ge 10.33935044082439 6.2118662238977915 2.168595769854853
Ge 8.114679707944617 2.2122995971731982 8.775973728963065
Ge 5.599026423799468 2.116430784570087 9.291052853372092
Ge 9.072187185908607 7.123235650235371 4.092582806914525
Ge 5.351098325281614 4.5530220239676895 8.354332695906594
Ge 3.9691876294527515 6.423950915706002 7.2521463063249385
Ge 6.823539325268751 6.619639276332839 7.907991889297506
Ge 5.0563915569532805 8.44229114183198 8.43651202793688
Ge 7.303196945063868 8.351831795448371 10.64006927869335
Ge 10.799590431780606 11.019586141268203 5.813228469419168
Ge 8.170878648645695 8.371147294831479 6.157366008109752
Ge 5.634974929773908 6.877160473587442 5.320885836254036
Ge 9.461575428077097 12.96415190980382 7.544041044448324
Ge 6.205070496996793 9.611417281662073 4.923557716908352
Ge 9.394923979257669 10.24245501094485 7.772548807241734
Ge 4.980923809602917 10.559164838985076 7.056887577138799
Ge 9.520284933352459 13.322663422986624 5.086176111425291
Ge 8.961811758205604 10.395421979075067 10.3508286289971
Ge 8.096853181714843 11.288823877929078 5.546518988111978
Ge 6.174918531644982 10.86542880371396 11.256235158632371
Ge 4.5163079313677335 8.973309902366523 10.898547503236841
Ge 7.030017327129826 11.393665866286776 8.357563294777636
Ge 6.114210248261551 8.469578872107508 12.91755327823529
Ge 8.336695197925533 12.922386870363283 9.874937499127881
Ge 7.991587222192168 10.143167851150478 12.902004179167964
