31
Energy = -122.74084188 eV
Ge 12.382671289851057 6.76474308110713 9.930195407697536
Ge 11.063104682078324 8.875973756347287 10.495487761994228
Ge 9.2850328079049 8.530932445409483 3.9522251484213258
Ge 11.524732907552554 5.396607203745146 7.632650972432868
Ge 11.194906953561922 4.31882548426285 10.299815839069984
Ge 8.612882772927646 13.452676432800455 7.432241832034347
Ge 4.748354360952797 6.312559760207253 7.706190382714984
Ge 8.301378668091237 10.611045349206442 7.483705985123334
Ge 4.686639604976952 8.717189003489558 11.221988415853858
Ge 13.50726737132661 4.669754764101604 9.060783338911062
Ge 10.158484202180105 7.621544708113414 8.051534592408178
Ge 6.054180365699698 6.938055718024497 5.521281711217335
Ge 6.772276438879029 8.180318973082688 7.734249069752333
Ge 7.1641097144351535 13.564068561749878 9.675563746272013
Ge 9.325740187285001 4.607136973278932 6.281245247030697
Ge 5.012276531194219 9.796250132437976 8.917487788657944
Ge 7.943327222672024 5.268303422582363 10.998222325984443
Ge 10.104688637125074 9.849193900820705 5.839952073129557
Ge 7.3858930132476805 11.063853539261343 10.063967394011707
Ge 10.417684706646224 6.356923261153054 11.864785330039194
Ge 9.890047309318772 11.763729342690329 9.419239343080198
Ge 7.2152374334824625 9.129646587779366 11.72314973719897
Ge 4.381823551225647 8.622927165734875 6.476814767792033
Ge 6.155721748339307 12.095781866071196 7.76676752498996
Ge 9.139046429491477 4.967746106705677 8.80990490857528
Ge 3.8557608996498054 11.093069876701016 7.005483800638958
Ge 5.979264175296326 6.885156239459307 10.018338311161058
Ge 8.671925256524672 7.059973442368928 5.8743410204493545
Ge 10.772688536398222 12.137646579330243 6.993580214655448
Ge 8.707751766512992 7.687667255771891 10.206027834909616
Ge 11.829230260566352 9.750391445661258 7.8885083195778645
