36
Energy = -142.72651419 eV
Ge 6.265304351904511 3.2803727779615315 8.48948754012278
Ge 9.313139009684381 8.257764143081799 8.134825677853165
Ge 11.829968896971929 9.252901146972222 5.47665637506797
Ge 5.924856668373343 6.907082674189229 10.856248929956234
Ge 9.614750459499627 10.625510063216735 11.12679533466921
Ge 9.373409773404976 9.71966265360206 4.554970381127592
Ge 8.80386029539451 12.378577906785834 4.7104777433679885
Ge 7.029010997132173 10.699521340357553 10.65908608538163
Ge 8.290667665396283 6.470239760316924 11.80348309369713
Ge 6.1778621826124756 5.347243110319987 12.883464543001393
Ge 6.932381479194156 12.903296259159127 6.431692188355539
Ge 5.734529633439734 5.931381446290703 8.516744194069863
Ge 8.234501764207852 5.414616763177155 7.953743532708339
Ge 5.820282542216008 8.247854649756066 6.45658072611166
Ge 11.204125266380561 6.906332922972294 6.49650094573254
Ge 7.763405857617578 11.381520931673224 8.372858166833193
Ge 4.664115258798816 9.20205453224276 10.67905359723794
Ge 13.264610535909872 11.312985594961997 5.4260521948600795
Ge 6.822824903544643 8.751095329644192 8.839817155319214
Ge 3.1925857151579065 7.793369676184891 8.815273785896029
Ge 8.473748557406724 3.0161426035319736 7.176547314606166
Ge 12.246637711672713 8.517463090361787 8.442513324820744
Ge 8.395776144106794 7.431149508107252 5.774875385553099
Ge 10.87819179747804 6.071895671588354 9.032918104372422
Ge 10.302107948900307 10.718471950241149 8.592650926965929
Ge 12.992844718702173 10.925508043263623 7.951763214948558
Ge 7.184432446152654 10.481616676038886 5.833684790033451
Ge 10.807898068970175 11.663837357540324 6.161892896085839
Ge 8.422684358619321 4.860022271821064 5.243696034026418
Ge 6.085701595559616 4.314915890012238 6.135919972420842
Ge 8.44270430386219 5.040902930846483 13.771458094704638
Ge 3.231179337433544 8.834344588467024 6.402425050333574
Ge 3.8700654053031296 6.22094383356471 6.730346059336485
Ge 4.532869167429983 10.20028161487539 8.209892432629815
Ge 10.032696407797562 8.132276840996079 10.689469354588066
Ge 12.469346328165736 7.415887182108037 10.693288191631739
