35
Energy = -139.89411692 eV
Ge 10.039268411883329 4.070658231440101 9.15136154943666
Ge 11.018520424488507 5.736618282553967 7.223709005420301
Ge 11.034365054192307 8.244164957607921 6.456247713682901
Ge 9.622170481442245 7.099108396854066 9.043818636779724
Ge 8.90832098032179 5.9498703002998905 5.795215816941986
Ge 10.110513408077015 7.878122509388027 3.9582180039247334
Ge 8.330376605956515 3.5574276125819324 4.7510508781756595
Ge 8.711003648429902 2.8694740938854624 7.312453080240352
Ge 9.195236514887156 10.222013207749724 5.229078252599866
Ge 8.42688209682001 5.994825754079177 3.1597908531600387
Ge 7.802529268766251 5.301171624010847 8.221915579123065
Ge 8.684765679720957 9.291794871392488 7.982581738605152
Ge 10.786212869162032 10.630717766133372 7.227552297836092
Ge 7.669584538827922 9.054187407286548 3.560215098081269
Ge 7.409161601431149 8.144309785536574 5.973766661608425
Ge 5.945465489226033 4.337300145564773 5.388646113079876
Ge 5.904435119554954 6.3872300779275974 3.904612561706229
Ge 6.039442897852981 4.533561076611258 10.375169996458029
Ge 8.459380805749536 5.650992037111949 10.919063093426464
Ge 6.595160241170495 10.807281917049465 7.594943855675512
Ge 4.918194193259624 4.067379569466831 2.8508637522057376
Ge 6.0901375127112045 3.3231811940327503 7.896508142917042
Ge 4.375218125768657 8.426902412399278 4.009010945367938
Ge 5.6515626921236155 7.155682822904251 7.770070530794306
Ge 4.663688433588885 9.3802467429728 6.498721956705098
Ge 3.876518668431699 5.359592993983414 7.093544437664456
Ge 6.295276498227671 7.336467278123442 10.322160888266131
Ge 3.154703792841403 4.0372444041673745 4.915577993044234
Ge 5.060478531384715 9.468888195992733 9.295559126229083
Ge 3.724716773139381 3.772334102198752 9.135717714950356
Ge 3.899400870804026 6.240454753869857 10.1851237820394
Ge 3.113066638205435 8.101638288594003 8.139729271096831
Ge 1.8976622186883014 8.034267813515525 3.381169322244523
Ge 3.2690772325324997 5.9572451176831915 2.942410253764575
Ge 2.0269811073298354 6.426146745164785 5.393756236917355
