35
Energy = -138.61545705 eV
Ge 1.9025251976644704 4.993334046245486 6.579892536743147
Ge 9.445678536431647 5.652911419419506 9.3665217165625
Ge 7.142349483208249 4.453626905911546 6.252324950942994
Ge 2.098509458267195 6.870966042333739 2.455805712324494
Ge 6.195378344479188 10.76359061505647 9.522425411266557
Ge 13.225478168446758 7.602383231650075 8.16143279506768
Ge 6.0748789672417365 8.173207497900242 9.218414974828832
Ge 8.129151001965866 2.9192804688228122 8.03300275828484
Ge 11.440690123079296 7.370795612064018 10.231367330423474
Ge 2.727424600837363 6.88681742383071 8.461732056755048
Ge 7.943884252355943 7.142740249110005 4.384533219251789
Ge 3.9439247612342077 7.604523694775219 0.9573066998184414
Ge 11.290447725031783 7.800290934545795 6.36065427857133
Ge 9.797674150992126 5.015805332864086 4.583379074603031
Ge 11.113871033084695 9.572565552862358 8.708267822326606
Ge 8.826188822749836 10.830544651518965 9.514963061860383
Ge 7.499036701371483 9.525875867978334 7.384253649340663
Ge 5.273847633848531 8.024429731218575 5.701655307115553
Ge 10.02309278463252 4.412688917880731 7.098256098555954
Ge 8.952890971831492 6.952083416302253 6.771658566937939
Ge 2.5189957069836946 6.964614472597182 4.974326675716034
Ge 6.370053902200443 5.571275431165583 8.51689554144578
Ge 12.602109629853992 9.927284767894392 6.788041445398898
Ge 4.521281407005431 7.771684827259207 3.2420487660448605
Ge 12.076503971860667 5.295881396121385 8.551797725069504
Ge 3.1072214497593924 9.00841841490751 6.75245261784366
Ge 7.617495420208015 4.172207281093103 10.286807395037982
Ge 7.379180498857826 4.65269261637951 3.7571576177595785
Ge 7.449571723931555 9.136542394381394 11.328030031793007
Ge 3.6586789844768925 9.124855723480612 9.267383510632449
Ge 8.857686463956313 8.183044022531623 9.348327626607173
Ge 0.7949016049597525 7.595742335748923 6.847695286679764
Ge 4.579504210821006 5.559563335110096 6.18055799822474
Ge 10.530185395199773 7.3570902099943 3.907860448410496
Ge 3.848050492701146 4.598849283640228 8.516458333788716
