35
Energy = -140.5659713 eV
Ge 5.585793297275828 7.955929772655426 2.4287488441096996
Ge 4.969014912539153 10.292608849843793 3.477568971457204
Ge 4.717443075504323 6.044109099471046 3.8309404210220896
Ge 5.5324894210388 3.7298690798631697 3.103658416045022
Ge 7.9644120889474745 7.125279250694094 2.80810372727779
Ge 7.907738124184057 4.607935408798746 2.8400505137929017
Ge 10.089354931104952 8.015370238499731 3.916886039237581
Ge 3.1488137624754007 9.385723086443102 5.06564112710453
Ge 2.8201388169636243 6.910597800504822 5.202353514609055
Ge 10.11969458545093 3.6136242476377456 3.800972934302515
Ge 6.613883454950012 5.171401878805163 5.38687534883945
Ge 6.214888669421529 8.54727795650982 4.905226238587263
Ge 9.387634349887758 5.726489234487056 5.051385452136824
Ge 6.043946620762568 2.4721709238189358 5.306175732754373
Ge 8.52752999014865 9.197894933145356 5.574110905213054
Ge 8.500714975134613 2.986436382280262 5.665840226608767
Ge 2.8537385233127766 9.925299438206544 7.593666917852327
Ge 9.72358328013905 5.570544174574286 7.629949452960477
Ge 4.827736835242286 8.183032882980504 6.994679391512024
Ge 2.3058555589978713 7.402340134560372 8.12114139821775
Ge 5.190644547842496 3.6286093398822166 7.449150248505122
Ge 9.544586835343374 8.30572763788983 7.772021867320882
Ge 8.852323034566194 2.7706172629496337 8.184142306392198
Ge 1.059669790416696 5.77685160965191 6.542096441022815
Ge 7.934987977778457 10.731726890215064 7.540435041989473
Ge 5.263610602415895 6.0727230859912815 8.361193128323022
Ge 6.644660745064121 2.712752750924738 9.43327566092489
Ge 10.736375951204282 3.9786591847616264 9.418297284043891
Ge 7.672929556886737 6.6393648679329385 8.946694828532873
Ge 2.8882714280654342 4.509845879790593 7.884674779697968
Ge 5.56322691144983 10.268227490521205 8.542542523409672
Ge 8.303200243513638 4.548715794806806 10.177313378521045
Ge 9.719859639354768 10.321025186096664 9.35953307574612
Ge 7.52882851861413 9.031346446192245 9.741726548235286
Ge 3.321153000778795 5.918605855389619 10.02166137047005
