33
Energy = -131.70199921 eV
Ge 12.650151359591868 7.079759558310852 7.422293525447766
Ge 11.211002546314601 5.081243027994847 7.337581974816725
Ge 10.806951418969383 7.173440857973956 9.246822601867443
Ge 10.265876171482052 7.918156884360122 6.57885635717042
Ge 9.361057204379184 3.4113213827691333 6.924266371811161
Ge 9.115907383900327 5.09212416122172 9.148669095091567
Ge 9.193422626109168 9.17784543776319 8.669934147436496
Ge 8.005920131652163 2.771881530985749 9.096057253669203
Ge 6.959956505343801 8.447118908419744 9.844235908242302
Ge 6.71652530308354 4.377318629928635 5.567210196074891
Ge 4.983483537771003 9.632493894242813 8.578602702877872
Ge 7.245503577964055 2.6989257229394097 1.686630836614647
Ge 8.519773304488604 5.982634885709016 6.6379500219855
Ge 6.789436571885543 6.108002985041545 8.745156803317844
Ge 5.889840460271304 3.8112837752505344 7.952090435045239
Ge 6.976560066676906 8.357301264940196 7.1428470618333595
Ge 5.849927501847263 2.5782688244377576 3.8451613750479248
Ge 3.395177293268726 3.2754634184409666 8.501338640651134
Ge 5.188866410327267 6.499712327244337 5.3853502167701786
Ge 3.9157679549747932 4.274434150367384 4.3358323521067215
Ge 6.120554113257832 10.629129095705528 6.432357916232273
Ge 4.10072936176614 7.522084921264787 7.490359056269046
Ge 2.2851838650010246 3.6831059383858875 6.202538297025316
Ge 3.0930346498798595 8.624753576472386 5.360348151019019
Ge 7.2603194862011735 4.906697479956078 2.876417866989728
Ge 4.981640158990099 4.000709438347532 1.6022815960283519
Ge 5.561039234865986 8.38352839614198 3.7816524124056152
Ge 4.474753039386601 10.564461393808902 4.42473198886312
Ge 5.564019751055768 6.65009940305275 1.7608804249970094
Ge 2.5443297639470046 5.68150151686689 8.275471791184923
Ge 3.326038499220014 6.4891108107388025 3.2460906716282203
Ge 1.3885646958275932 6.037675841380992 6.101288579952101
Ge 1.1134424401439555 7.614290944870176 4.13092405093129
