33
Energy = -132.6896246 eV
Ge 10.621028128665515 7.039138870368722 7.278848426089665
Ge 9.243286830827987 6.527958855747205 9.59207496415532
Ge 9.93303110519789 4.564888849266547 8.040614573333388
Ge 10.190060759031455 7.523061616968636 4.421098068445007
Ge 8.545983447805211 8.655026987000866 5.978813303604474
Ge 5.8414812566929735 6.126303842814166 10.700294754171217
Ge 7.197174365347534 5.168027872190205 8.312223764293973
Ge 8.924864295381628 9.033654634327856 8.5104426863318
Ge 10.173267492799557 5.0330743150233275 5.426985354046669
Ge 7.828881828168952 4.24158276856282 5.971746610888257
Ge 6.680724144913291 7.7815400459180255 8.80898104313466
Ge 8.03334726808947 6.733290226269919 3.1454905072292965
Ge 5.74034038089268 3.6432925961521603 9.878339755861886
Ge 6.829736796863281 10.228647511401459 4.698370715478902
Ge 6.081276590431746 7.912858227539447 6.166596610935153
Ge 3.444517917208201 5.642983088763668 9.844871191680541
Ge 7.087966262333194 4.395222842966343 2.4499116113210775
Ge 4.563287265010219 9.190559847896168 7.995122359511592
Ge 4.537525839121199 5.242441492968167 7.185971065952588
Ge 6.579091448502859 6.608203558749977 0.8495171906870207
Ge 6.316488719336 8.61186033024392 2.8005302352469066
Ge 3.0708184065937507 3.169405689713034 9.37028313476385
Ge 6.4113415048230395 2.2343495776126847 5.278842998769778
Ge 6.136958589188944 5.746341211227763 4.684963254054207
Ge 2.933264203391007 7.175026117450852 7.852256390862641
Ge 4.396352691836619 9.722994552702708 5.403933456744601
Ge 4.649230849583341 5.231503268011787 2.3966596070418222
Ge 4.855245176304937 2.5496108786498493 7.352163796125647
Ge 3.872249416199965 7.414142942633488 4.213726442628285
Ge 4.235831297585635 7.7818203416050595 1.5884260228770075
Ge 2.174277017286669 5.8953881586874415 5.716781866802722
Ge 4.20162969798361 3.7633160272601898 4.8558872664957855
Ge 2.3661433633620295 3.361166750902498 6.753052430669573
