34
Energy = -135.33937134 eV
Ge 11.701023363262602 8.36933142307343 4.559419235498596
Ge 9.242853923800338 9.93609329369704 5.161937396752185
Ge 12.585956238746228 7.677891487751211 6.939825321887378
Ge 8.86627258355028 7.272445940774817 4.872468977966958
Ge 10.500823814908792 6.446486529816128 3.11787548702213
Ge 11.560382793030927 5.639888810345538 5.246361333066539
Ge 8.741679465859727 10.264772095495884 7.930372299367194
Ge 7.0369411195138625 11.08725320048771 5.8903391086698536
Ge 10.02360046979123 8.131842331073457 7.058469061484908
Ge 6.744345184621463 8.683914221416352 4.489358642123834
Ge 14.048290977787191 5.257030508401465 6.937027128758675
Ge 3.1012447081172785 9.362972965997336 5.5028984776317795
Ge 1.3263906209706449 11.267908175204685 5.258965821668045
Ge 7.151181763332067 6.484323799518071 6.603249625818935
Ge 12.583571343594427 3.3205318885542323 5.845263969993339
Ge 11.278983774854726 5.120101070233291 7.760419833746792
Ge 0.9890639942991786 9.711796409086464 7.191932949879321
Ge 6.414854706126186 8.975170486714804 7.161067647868323
Ge 4.081597903164437 11.714098082632662 5.062693711707858
Ge 2.887404091548278 11.638431421135612 7.331769482090704
Ge 7.974514289682194 7.721860540517285 8.8298550499279
Ge 13.207274420200642 3.443825543794728 8.443199312474844
Ge 3.8491280174680216 9.348545369735099 7.9671960471953245
Ge 10.893243486659474 2.5109511088262217 7.575878579569921
Ge 4.704666554749336 5.672484000386299 6.6546074892437455
Ge 5.437974076535398 8.514061846404402 9.82978662360152
Ge 3.339990648605285 6.651364209066125 8.661450389015421
Ge 2.5735755345789166 3.4156535820628853 7.78961379747067
Ge 3.397776794635801 3.9270852488378702 5.434840628427178
Ge 4.945878198417986 6.174898587481622 10.965153059918563
Ge 2.7120534922871484 4.80654011688061 10.30646630220502
Ge 5.345375914908715 4.650783496015156 9.060717121356095
Ge 3.993739884448368 2.3552599228280804 9.565149667408862
Ge 5.1704302334071786 2.834522947662885 7.164679518566415
