31
Energy = -123.99366186 eV
Ge 10.077051013644283 9.109387982702215 7.797577081640415
Ge 11.44870105336984 6.899434733743672 7.043949325614762
Ge 5.352081847960757 5.858329645253336 8.957524096263773
Ge 5.297922660549254 6.241810154792941 6.285562504834336
Ge 10.709954714933358 8.312503675696894 4.951539532749584
Ge 3.5624747682409903 7.916051023386098 8.963198757684985
Ge 3.6652246167294993 3.7538776137348786 9.410113692955505
Ge 9.653018589380503 6.863403705027965 9.115682953632199
Ge 3.6207819314591974 10.597145009849294 8.766059620473033
Ge 9.32631448859996 5.452667787032029 6.840947031670966
Ge 6.597255735938649 3.9800079890048212 7.636561533902563
Ge 8.947645810693349 3.0265537848452246 7.572100384350836
Ge 7.438850129931858 7.609310977374685 8.04737318905867
Ge 8.269488216795898 8.829615871956458 5.906882018295322
Ge 4.144892344089979 8.817154218412156 6.580211140195081
Ge 7.6488185961109645 6.091045053317204 5.0456460401331436
Ge 6.028033303872345 9.758651039737952 8.289896721830079
Ge 2.9214897154843316 5.60414021303342 7.663263268628568
Ge 3.243169371156798 5.084775225394223 5.057857697766525
Ge 7.748891982705435 3.2885652416816007 5.0428719307531535
Ge 5.370185243243663 11.136027609339486 6.2925027741295905
Ge 2.6304607642725903 3.0640493634648425 6.9166653556780595
Ge 2.730349001567062 10.965811635316332 6.394352682820354
Ge 9.310567851135325 10.468184844546846 4.0393126309427485
Ge 6.562744281661022 9.579989670644874 4.257785533851349
Ge 5.046828034962323 3.352453121817667 5.443663378324904
Ge 4.933236350321242 2.061799397373701 7.85238829897162
Ge 8.454993473773351 1.0548164175526777 5.893008261291165
Ge 7.943555515885067 9.754253623034622 2.025613101023264
Ge 8.782635584682652 7.719615142558893 3.2794875835008086
Ge 5.821601822191491 0.9036173355449266 5.626359203781738
