35
Energy = -139.86024058 eV
Ge 7.565132075724793 5.867037610624866 2.094628911280062
Ge 8.078409246963297 6.840139972186454 4.372056306498484
Ge 10.690896937033889 6.84853544979863 11.59881028307235
Ge 5.92519427920671 10.275410570685859 8.982427664508217
Ge 6.988085357025931 10.152549740866519 6.555310540369999
Ge 4.5495542094300845 4.116906807509837 7.881067689796267
Ge 13.839847783292305 6.455204223451131 9.032423748084486
Ge 7.353606832839613 4.095014427142597 4.056531680955235
Ge 8.02581445481662 8.776411243448413 9.388346496720802
Ge 7.183758813180588 6.773888356145049 10.971817393383997
Ge 9.127498657125212 4.679411659340765 5.845647894127137
Ge 8.83719098653751 8.530616645904624 12.017835736772078
Ge 3.2493605194368276 5.495954329368268 4.245726580344865
Ge 5.302734448364226 4.5574646064035935 5.541616457257787
Ge 7.668550093927758 4.296460142742974 11.163458835679299
Ge 5.414337340334251 6.353335758132391 3.3184818417619346
Ge 5.808057554231365 6.388080694692574 7.775627736419924
Ge 6.931164505144238 3.943084972693418 8.71493619442338
Ge 2.5223649513857183 11.819917535632147 5.626533468666084
Ge 8.47199433516402 6.5836458911662605 7.978444183942766
Ge 10.153233929317382 6.9633958601428745 5.92495856061885
Ge 13.01046321148273 7.887037378728894 10.979566722582657
Ge 10.728303004475825 9.267406476762886 10.21740645872351
Ge 9.635901446490857 5.013657701668383 9.654993193161822
Ge 9.18993462987341 3.1080160925002094 7.862469664739834
Ge 5.269222363701092 7.882991855371067 9.746552534682882
Ge 6.182184603581853 7.869880961948619 5.712643210066047
Ge 5.303543597167672 11.48950429575007 5.162525211175156
Ge 3.964616135105594 9.981959181276096 6.9833575539463295
Ge 3.6735393603611644 7.827302657127996 5.359147603052523
Ge 3.902896120684621 12.246233173323294 3.06254895145451
Ge 11.384778595105644 7.1219504036072605 8.823942629205025
Ge 3.4065898438452353 9.969731085839902 3.998036456733793
Ge 12.261296964711963 5.054156197625421 10.560614516555882
Ge 4.149321519842205 13.753247876014605 5.2009223703304315
