37
Energy = -149.0974778 eV
Ge 5.15042770740138 6.379754771252364 8.77683512263368
Ge 2.417264882065857 2.459036542823902 8.924965295259677
Ge 2.4428099401736754 5.295318889321257 8.634875103010062
Ge 6.752976205354082 4.209854695083074 9.333800175681796
Ge 4.006156619387477 1.1768252221326136 7.035124508070927
Ge 7.722237990778881 6.368956074587604 7.613954219042064
Ge 0.5130942580708625 3.9309343860444246 7.467662818513172
Ge 1.42025772593505 1.5240538485403012 6.61228792411312
Ge 7.4201034050564685 7.719794498377892 4.9506289811306505
Ge 6.6171533913418035 2.001470215751281 7.932121410469493
Ge 8.471585250719704 3.7168160548164177 7.237473092528258
Ge 2.3712530692028015 5.308924851001557 5.8479176348854685
Ge 4.521636946154401 3.7387914393409263 7.942193343845648
Ge 3.189893568065008 7.721669598832789 6.702625361017524
Ge 0.760597029003328 3.5042049305221443 4.77393531990386
Ge 5.413339310017476 6.463324201593587 6.108891779733467
Ge 4.686122060653095 6.268117690442223 3.140403028463428
Ge 8.946892033779006 5.409235016475538 5.279149321902624
Ge 5.5018892947775075 3.283110317331397 2.1664678611368737
Ge 3.1370761040014683 2.3070387290095398 4.652813607630401
Ge 7.160873071176487 3.321005696705018 4.868205412009328
Ge 7.895058092304764 1.9049974189527308 2.7972852770153374
Ge 2.127016775257489 8.145101075063533 4.05454065091508
Ge 0.9081652106649101 5.938514843848304 3.361807879148352
Ge 2.781105540330052 4.976384166177933 1.7798688393801294
Ge 4.7602844677309415 8.696165942570007 4.574314136156691
Ge 5.9388618979986925 0.5995991511577395 1.3684723904243974
Ge 3.613815852712827 1.3356535305896828 2.204675699573216
Ge 4.764835441940022 2.271949133145902 9.333800175681796
Ge 1.9064718843927924 7.532651127504829 1.3462481120290308
Ge 2.3304564930587275 2.7534016284917135 0.517000196553442
Ge 6.024322744575694 4.520482405297282 9.430841170217535
Ge 7.179917437165649 5.685877770231615 3.3022044378726174
Ge 8.038286338323616 4.118533239149513 1.4652007102960491
Ge 4.348548272065025 6.633703081729561 0.4860480991998213
Ge 4.123727115685948 8.814902051022015 1.9552018442157717
Ge 4.7922796478265886 4.120638840230429 5.4170056388116095
