33
Energy = -132.25720966 eV
Ge 8.021707628328453 3.329926060603029 8.245710638325756
Ge 6.950427689766787 5.576249584379619 10.036799429674186
Ge 9.374991028903263 5.252972542683511 9.362996208751754
Ge 5.488399101431042 3.4908912278432402 10.447227559471186
Ge 6.789610939285497 1.442528022485365 9.582769129590595
Ge 9.290886718462492 7.223319428569922 7.53172960917552
Ge 8.212197199539219 2.6858589942721935 5.738233604017388
Ge 6.576966528138153 6.767230591357691 7.55667354347784
Ge 5.759242345264821 7.931857417228821 9.99562852641221
Ge 5.7299577546573435 4.304675796308565 7.772978032355211
Ge 4.994391370531131 8.85063148333823 7.572440142199812
Ge 4.606156250082426 1.6640361793378662 8.150213943157347
Ge 9.459157262584075 5.196856616234292 5.784186409763338
Ge 3.3845710658203694 4.178762113563237 9.092817521875654
Ge 5.792443078890179 2.8650790132408486 4.814956812389607
Ge 9.221001993066102 3.886058382099698 3.6084966148097255
Ge 7.5126335303866645 9.244314483506058 8.724565479498246
Ge 7.099391754377337 5.136405439906003 4.887198758875134
Ge 6.624426895749444 10.801852434951345 6.98591527452124
Ge 7.4726549872593555 8.578676807364552 5.89140916176853
Ge 2.2501488901778672 2.1229117370197614 7.854123020772724
Ge 6.797119654506824 3.796396443015397 2.4895750725726016
Ge 4.504948868903927 5.231624588686621 2.970637412219423
Ge 3.7635016623426 3.63414757582174 6.247764625198888
Ge 5.982847284263741 7.417582645596805 3.657138739844447
Ge 6.257700143496298 6.523842832429993 1.1838392831876874
Ge 1.9765120078012661 5.824050776090126 2.6367898949990307
Ge 4.429133569970922 9.530343325346708 3.7918388829254397
Ge 3.719529316372953 6.380540411888685 0.6324380306393337
Ge 3.4519751484251024 7.049176932819445 4.666777731345214
Ge 4.967904640426152 8.840300525610493 1.247360929677474
Ge 2.7306842037398225 8.65060089880756 10.447227559471186
Ge 2.4722558452697645 8.373586877795447 2.542149038189171
