35
Energy = -141.53598836 eV
Ge 6.678340318340949 5.306382250550303 1.7148230254950825
Ge 4.2977678935345045 6.296014730824139 0.558829640228252
Ge 8.050950160846334 5.77545958056453 7.62755931559205
Ge 4.89920488617235 4.429832950946121 8.23732089014692
Ge 8.733357623308985 6.624642173414522 5.300830455126002
Ge 8.170032029995816 9.447961252669415 2.6103295324098035
Ge 2.841306382831406 2.6706177994739475 7.772542717967945
Ge 8.346801052105885 8.572972896529427 8.569383382825809
Ge 6.6271861293307675 8.521284655853364 5.107610811678586
Ge 0.9302466907331438 6.294787768387667 4.649714983505377
Ge 6.108093867711607 8.697931123541585 10.055038879219826
Ge 9.104243856659048 5.1989139256426675 3.096067777691325
Ge 5.037449822982525 1.2919063571827307 8.958621291134666
Ge 2.265225857719694 7.842480336620499 6.327296492913233
Ge 6.8445633227356835 0.8940718288563049 7.182691462893186
Ge 9.670332998040337 6.431575679188311 9.554533891847733
Ge 4.370387559406202 4.51651032364845 4.478127932233729
Ge 9.13849256336394 9.253942128413232 5.174636958933657
Ge 6.3593300089210265 3.562330132960945 10.416153029988603
Ge 7.278658086035587 3.254750581928622 7.9997027758812385
Ge 5.965196134884935 7.329043901705747 7.735972395016501
Ge 8.450859690414665 8.03617385041717 11.213937939791197
Ge 8.74310747776918 7.114453568448991 1.2132518190832626
Ge 10.248544435263552 7.704972408142868 3.2817528170015966
Ge 3.4664868062871976 6.651796189774135 8.375436976937051
Ge 3.7246151161617966 3.1542840540889916 10.252124944336932
Ge 6.121013758482429 7.847103408669036 2.397414877108694
Ge 6.962023111999089 6.201386995739948 10.154749027486263
Ge 2.5170958395239293 5.0746650331719625 6.266711392386383
Ge 3.8301553324305235 7.300854502390092 4.4450709703722255
Ge 6.4631841847645335 5.956658095663029 4.2438722222620235
Ge 2.6404127859273228 5.838508775805183 2.598697052484857
Ge 4.997371280164855 2.45992280897882 6.329937223477032
Ge 4.346202198511163 3.952352821911726 1.8632716803920781
Ge 3.5863501769496553 8.389217655232082 2.0603220440848307
