35
Energy = -140.18552856 eV
Ge 3.7219422862938036 6.602488246203198 6.3004340126471865
Ge 8.158540110252813 4.288932193743346 7.102480028306597
Ge 7.907182823675365 9.371782372512028 2.5062389578487663
Ge 6.83675047135776 11.658488482550675 3.7312764330601227
Ge 12.141457427719855 6.268042208510564 10.75841850265469
Ge 5.141145867167462 9.880511904937588 10.120344787311915
Ge 8.798220809483924 3.7840738200755415 13.330471093016529
Ge 10.280126572041835 7.625580866519199 11.870362642723883
Ge 10.538451981086762 4.639329941392546 11.653888703643947
Ge 8.373701997210215 6.283373617404755 12.994645644529344
Ge 9.684007085467998 4.227251054847518 4.927911525661826
Ge 9.424025672892162 10.236792881667073 8.040498757411948
Ge 7.1822355493714385 3.6800197755572435 4.337830249037705
Ge 7.5994859095503715 6.994705473120957 6.5301604484386875
Ge 8.01720892837022 4.802279384707272 10.67548400205729
Ge 6.629145142092393 6.3515058571997915 3.961436998998419
Ge 4.65211115517911 7.935715846177213 4.220032931327573
Ge 10.048531108569097 6.316773325453186 6.5389647705903915
Ge 5.852974356258376 5.073205856842325 6.1064304898229915
Ge 8.696489907967432 5.419206450943199 2.723242074537032
Ge 8.874619515211794 8.517184301423162 9.861826692994818
Ge 6.435122646825713 3.650165947627556 12.170728034861336
Ge 9.8516706191847 6.202833651313 9.271758077181024
Ge 9.277910850420794 11.466779781723934 3.07523825585062
Ge 7.070522485052686 10.838654548228162 8.513642842026641
Ge 6.31777487417503 9.557165088490356 5.1962856586029105
Ge 6.524960679520674 7.684689427087283 10.01760576977073
Ge 5.402166672457162 9.8306103816794 2.454713611445952
Ge 8.912457856860627 9.982484536517452 5.2403877033955855
Ge 6.0232071757452195 6.331654355661686 12.094157594642184
Ge 9.055408178440809 7.53456119840244 4.238515195462004
Ge 5.459843257618525 7.950520386314162 7.702414805664351
Ge 5.352544531804644 12.447854901123012 9.224127613012255
Ge 3.1297101409102273 10.973583978053613 9.117868404364527
Ge 4.7790012893698 10.56450169865066 7.218545279295271
