30
Energy = -119.97922961 eV
Ge 6.60254487260072 6.773129557844502 2.057783822771305
Ge 8.720501559283509 5.524417146123683 3.1902192347057983
Ge 6.719978081325194 4.098255609179074 2.017763359602466
Ge 8.150871519280871 8.082132205988092 3.6808979193908633
Ge 4.528318371838691 5.120020523949721 3.010116491106447
Ge 3.9733569561764766 7.449201897561062 2.1466133480124023
Ge 7.182862919620808 4.061682810553166 4.689092038071327
Ge 3.095819269913665 3.9742104649694996 4.738587127929557
Ge 5.542302987566851 7.817831268473233 4.438340260769128
Ge 4.9490285785681705 2.477699915733219 5.727504030168291
Ge 2.906868721598981 8.128616608500272 4.559129949699999
Ge 5.863151255370576 0.34741221257895294 6.603036007281787
Ge 4.596193757851851 10.06510956525274 5.764581379906252
Ge 8.278029372026781 7.622633082662814 6.268938833022485
Ge 3.747757350303395 6.096106359147566 5.910792055796111
Ge 7.0629777937729346 9.861946818667992 6.8760011374195456
Ge 7.670408557278524 1.5533520989344602 5.121516333542761
Ge 6.35393275015796 5.857251423876521 6.254700265164938
Ge 7.200297353475116 2.241821868190353 7.7901539710908105
Ge 9.292477142600195 3.218952305700705 6.449246344683505
Ge 2.365646808814459 9.254545889553036 6.9107780518233906
Ge 6.407502999389294 10.359054378639158 9.432092687514361
Ge 5.252423517985946 3.936166787961008 7.831864106667948
Ge 3.217423206308664 6.997310258487471 8.233447540886656
Ge 10.011978787033728 7.473199302881938 8.106609163748132
Ge 4.2397561222402524 5.1242505176094335 9.835239433140634
Ge 4.941612577697191 8.768048009445328 8.08108123995317
Ge 8.691340873924696 5.257638574664052 7.9115225543080125
Ge 6.501040793066177 6.072224191837149 9.071821839985862
Ge 7.82314766726946 8.275330869375095 9.180081996177346
