36
Energy = -145.78169159 eV
Ge 2.033934457760415 6.244262770354748 6.971686804803286
Ge 11.178975046662766 6.577890794331428 6.1088255152923265
Ge 2.3940442473949015 4.89687596097585 9.113915435352915
Ge 2.0233581548547153 8.827130695058129 7.080235140334603
Ge 1.8060611124604902 5.074993936013632 4.72417734750578
Ge 11.531905678424963 4.348131686739926 7.358467522328385
Ge 10.697544763927354 8.73451952718788 7.380763179110489
Ge 10.812078591843662 6.776822112363008 3.6130994006749297
Ge 3.175163702857971 9.314628455676035 4.81168337312676
Ge 3.8049597764694565 3.5787954372940636 5.4593699322908815
Ge 4.1650883860731565 6.603596877687585 9.46842119525318
Ge 8.862832765401743 8.286087605987438 4.006814775592087
Ge 9.576437502198596 3.585170508814507 5.858449679183581
Ge 9.828412638043945 7.774070486021141 9.586679806778868
Ge 3.4363644480836335 6.882664890332385 3.9912664331093795
Ge 4.319660454202454 3.7314615772164483 7.893222799301999
Ge 3.6437520902589973 9.116303567081625 9.13304134590744
Ge 8.84750186515104 9.813758582689985 6.003796258093487
Ge 8.88922812789581 5.173155665493538 4.0242698064655285
Ge 9.58633697826416 5.369582008768334 8.644193641039962
Ge 6.287616103305591 6.142543074306746 10.663532767372544
Ge 5.6545250164557705 9.796805293705024 5.0735049137367625
Ge 5.920605313680844 2.8111553416611237 4.258943994096335
Ge 7.277908322518883 2.5543469120702733 6.3027020875055415
Ge 7.319863242905723 8.257071811674473 9.72574348188403
Ge 6.682791808755402 8.763438051297728 2.9884867920717704
Ge 6.267868219323948 2.1843631367010783 8.610424147039861
Ge 5.956853701853685 9.837923315141238 8.29165622699308
Ge 5.72724861928818 6.45916484959495 3.1143606371769614
Ge 7.145596667487034 4.520343159140521 8.92456012076199
Ge 6.914411671538061 11.495348513653902 6.533365073246384
Ge 7.00549170513164 4.3660586649359345 2.5154915514682816
Ge 4.597120371515464 7.933890725709107 6.839671404377964
Ge 8.20381834346427 7.667377315868822 7.365505830307986
Ge 5.280311342092136 5.641590095494774 5.677970023887115
Ge 7.665604440301506 5.379952202330351 6.402977234376961
