37
Energy = -149.01738193 eV
Ge 6.814026070584544 2.0274853576686334 6.5699539418581026
Ge 8.45264984059148 0.880797379484609 5.018814740717899
Ge 3.415836157554602 2.880154466476426 7.877550273071646
Ge 4.369256301774422 1.2260319210230517 6.164483612825481
Ge 4.905969862160983 3.5531961372055054 9.931589180843506
Ge 7.658773924776137 2.0226933228088115 2.782782099270473
Ge 1.1414142136586456 4.00918528255028 4.405965958282562
Ge 1.2344705561539022 4.070904735474764 7.262074085505366
Ge 2.3533695648140065 4.470516084075155 10.004594243968185
Ge 9.62313557304342 3.0580025782971494 4.4325302667892865
Ge 7.390584949552322 3.2655180916911033 8.786243635642546
Ge 9.734116971087138 3.3589353187321476 1.860461109874943
Ge 2.937442919474175 5.436777214995088 5.722724001430283
Ge 4.146071230813243 6.387327601654019 9.615473616877036
Ge 3.3882430534977512 2.7714159430341594 4.208604038665612
Ge 5.047030260574611 3.9180975318650626 5.910117977654136
Ge 1.604561949640259 6.4319246449761955 8.445801824114286
Ge 2.472196403841413 5.838622633706384 2.877213128266588
Ge 3.3717280090474446 7.87677186523209 7.176594602752512
Ge 5.77532389841605 5.255822028784559 7.965581523392138
Ge 4.941484661696083 6.575544382310971 3.9461080094719265
Ge 8.382401469264044 5.2685528166172775 5.225666907373405
Ge 6.603286314670931 4.078249666309676 3.8607173169984295
Ge 2.675743196913808 10.468734661879074 6.8738124431545
Ge 4.849427104681498 9.865151192875073 8.24203711204662
Ge 3.6173002871708086 9.242813233346165 4.771774787237646
Ge 6.405345685148527 5.660970844933286 1.4255974462663408
Ge 8.08510872909481 7.252766982483849 3.3497685257232033
Ge 5.718971041415747 8.346643911080552 6.171876473781413
Ge 3.30182678932437 8.297703105444185 2.4413653936322794
Ge 8.389358883123995 5.6140614793735395 7.772292200771996
Ge 10.38389309147362 5.524388471226026 3.49574990203181
Ge 8.990634383335157 5.848026927802664 1.207186625401623
Ge 5.198059401023855 10.937961824300077 5.861679920053342
Ge 8.216461767174014 7.793440863556565 6.066291293576072
Ge 5.8872554334793366 8.096638077340714 1.9086466861430886
Ge 4.374348332367529 4.245279701800623 2.2173833769494324
