35
Energy = -141.18527514 eV
Ge 10.78033003565077 6.878172245049505 6.58617149585508
Ge 2.1433959436206433 6.024056873989433 6.769958128826118
Ge 10.853491465288057 7.454552497527511 9.124173229528463
Ge 10.529873074398054 4.436796533270405 6.0962061716824545
Ge 10.897063085600811 8.40951363753787 4.524356120343372
Ge 1.957648681802346 8.0698267084759 8.35625099094497
Ge 2.224826049370901 3.464794881927538 7.151856512342574
Ge 2.928054258889224 6.534184004299821 4.378110895561944
Ge 9.422531214265504 4.136852487349023 3.7716448263202498
Ge 9.200961141856148 9.732189284550106 5.9326657738452715
Ge 8.806855387788078 5.938236007315526 9.381467570092035
Ge 3.441426804403559 4.418545541914776 3.019221842438046
Ge 3.6199743164155422 9.365370482403229 6.893199473786838
Ge 4.121410802337715 4.332665840753012 8.44201074322588
Ge 9.157237318610111 6.707998099410747 3.5800386569035108
Ge 9.037959740098472 8.973387818812762 8.330547130289892
Ge 9.353919117407626 3.6163068394271747 8.290031406142472
Ge 3.9730070290517716 3.256811210304184 5.2995969541964145
Ge 3.6025830728936694 8.981015567308376 4.380195123467699
Ge 4.227670552948063 6.914732019545387 8.412375535210337
Ge 7.055654539663901 5.59859866130352 11.19015335813782
Ge 7.1299651264505695 3.9526437575247226 4.826702980782663
Ge 6.730533484701654 10.274341890635096 5.4703627842584845
Ge 5.385934361292931 11.179491084964518 7.429796682658318
Ge 5.899911801918079 3.6166327609748588 9.954157043732737
Ge 5.543438052394057 5.605913322610629 3.758868289702981
Ge 6.795408165014897 9.719396768239287 8.975000819517222
Ge 6.871465507063478 3.0452990724167557 7.670122797660037
Ge 6.92083877844307 7.521427395533594 2.8582904098615316
Ge 6.330399139442083 7.42466494379493 9.64726845330169
Ge 6.068196488611191 1.7913268512275484 5.587468018009818
Ge 5.744521193980028 9.770947681483534 3.138887283941088
Ge 8.137491192501273 5.437532884079568 6.777464184239129
Ge 7.557675133950423 7.683801475674234 5.534466444221427
Ge 5.041083373780972 7.224708231796041 5.953647163929717
