39
Energy = -156.63651039 eV
Ge 7.761081310939024 0.23288565828323954 2.737075301876256
Ge 9.398925072213935 3.6548749061863703 4.3396822206444226
Ge 7.431272275714071 3.9587865537887237 2.6027704549562354
Ge 6.634820136470238 1.8659289038092814 1.0565507805135474
Ge 8.30465386864166 4.5199304157612605 6.578356388266459
Ge 7.709564301317097 2.941634713791203 8.590464359671746
Ge 6.704115603366876 1.0105222483259768 6.947310114876093
Ge 6.89683766281281 6.518588315998213 1.8859614441505423
Ge 8.340710606804294 6.226906986103532 4.201688302352657
Ge 5.377705109705336 4.486498581480321 0.7613628532528881
Ge 5.287451177454622 0.4300984857199962 3.084456764070539
Ge 7.219991460817659 2.0689858663914658 4.535628945981761
Ge 5.735555831405282 4.080932769975643 6.887693077739988
Ge 7.410225351319334 5.8681127583533454 8.956203173024495
Ge 5.106327655470734 4.133714008564889 4.09892834068222
Ge 7.8367566168882865 7.170550633995826 6.601216498267296
Ge 3.3395376899349247 3.534950365438856 2.246176949507485
Ge 4.172964014847683 6.809456691555974 1.8958717101794096
Ge 5.7271148777469625 8.664847589110133 3.314184381451051
Ge 4.06287498933957 1.3866679347842985 1.0673825039472287
Ge 2.775092754576358 5.352970014915814 0.16973212138207866
Ge 3.1559147716865126 9.158526221104998 2.55382783856727
Ge 5.390067096736758 4.372995266399846 9.659910870219182
Ge 4.5480720231390155 1.6645329242930336 5.40011113595918
Ge 5.6406175051998 6.617831036225052 5.085220558707651
Ge 2.7951875461947693 4.5702994822601894 5.875315797487481
Ge 2.6964841625409286 6.431074531606248 3.960996336147076
Ge 3.722654896012546 8.72278972082257 5.1723083018035085
Ge 4.893318370705032 2.089016262921089 8.472608288797458
Ge 1.7067867339651521 2.204447924773149 5.374442543183387
Ge 5.1394889239903465 6.728090618461718 7.740675735343549
Ge 1.0235264525089223 4.630731778942826 2.1409161861882917
Ge 1.337621239252165 7.375801949585458 1.4100713954535788
Ge 1.1661477937103226 8.202433807709115 5.404480098097641
Ge 2.806783992801879 5.258139193812847 8.399205096709304
Ge 2.4044180135771 2.7120515278478465 7.8220714348308915
Ge 0.1616204872672797 4.411147254386956 5.353223208334783
Ge 0.8953243325176905 6.1834029521173335 7.035643559212461
Ge 0.004345813788728781 6.616544893133462 3.6331512358283296
