31
Energy = -123.66780768 eV
Ge 7.754121181611407 3.5640643081920076 3.8626718125838866
Ge 6.327736246974876 7.6815474908418215 0.4154219842513926
Ge 8.084543168538755 9.489968171941824 1.1133407612180088
Ge 9.934785967786132 5.192438000488168 4.358015537534637
Ge 6.303225868932998 5.7473268690934365 2.3182600455745033
Ge 9.12523712421399 3.506891989105503 6.172702340788834
Ge 8.386414165006665 7.2483077302839165 2.28546227784855
Ge 7.490422626433326 5.692817809952177 5.489580126413042
Ge 5.639441426732026 3.337230883439344 5.339947564513624
Ge 5.898183620174684 8.622202999802285 2.755506384221374
Ge 6.114314129251583 2.755519089112821 7.849197770990307
Ge 10.166900000109594 7.696427847035852 7.414789472371251
Ge 8.58137553831961 3.16137089267858 8.64672318353568
Ge 8.029179371739895 9.110976209668891 7.440235081363317
Ge 8.011221722205313 9.663654624404252 3.8649202998735874
Ge 9.164775240119422 7.642275027265666 5.003215107322901
Ge 6.689446562986166 7.184699767348529 8.605005564876654
Ge 3.5038095700856506 4.8784179908636025 5.161593034398658
Ge 5.126840716983656 5.108426685257011 7.468586102431457
Ge 8.602034912810218 5.639475587034579 7.866629616542576
Ge 5.236733556770995 6.7050074642134545 4.568254641306672
Ge 6.663853318917116 10.67949429097077 6.008532547904436
Ge 3.5768082313127576 3.021402854190988 8.708883389778055
Ge 4.008778575774444 4.97133478568158 10.141090238769634
Ge 5.490977456760715 8.46590496039314 6.417824595277073
Ge 3.8873245309872844 7.577766058826035 8.298158868479257
Ge 2.498115312150986 5.349629039737948 7.616823407555176
Ge 6.024809818630964 6.247900134332647 11.164710818403211
Ge 5.186049873917561 8.024465718902585 12.704991995331438
Ge 5.278803872643995 8.852492175062359 10.20579886601742
Ge 3.3124721628998084 7.180586923618197 11.24476320947072
