33
Energy = -131.2027817 eV
Ge 7.876759134494608 12.054651782538642 9.192327148652028
Ge 7.141813573782571 8.171482444762075 10.748382778999167
Ge 3.643721694737679 6.86893008297705 8.764300619207619
Ge 5.369200574503634 4.914168712631488 8.228412939145297
Ge 9.299743228607413 4.34942491294741 9.09533998472734
Ge 10.333086588126331 7.742762027900915 5.14235604340447
Ge 10.291021078876383 9.885504096888521 6.6037133702502
Ge 10.504074044001305 3.3856929272135914 11.16340029501838
Ge 5.516970045362585 11.495354125584686 7.9257881985978225
Ge 10.273078114069111 11.468059221375809 9.782086997321779
Ge 4.776250719759272 9.138256612607714 9.522969355375063
Ge 4.7684516359219336 10.469949169403883 5.19508499276928
Ge 12.632489720174215 9.248913249539454 6.0618111297014625
Ge 7.176856983818013 9.44785518680624 8.24280960172264
Ge 2.5804756376214706 6.9229321551058645 6.155261866263722
Ge 3.348588792423827 9.357150041073446 7.167669686140905
Ge 7.443414372356843 10.880664173143579 5.9527429852969505
Ge 7.4890392795618625 13.32115235973195 6.902562278700188
Ge 7.839208155670478 5.342695814385299 7.219868123417615
Ge 12.28801347844771 6.89819802212893 7.004164755158622
Ge 9.798806974609363 7.0351376445010185 7.7399669737897545
Ge 9.488270957140497 9.017588481647381 9.3441305983962
Ge 11.777022487531724 4.574842295927743 8.434733728292258
Ge 8.729232174391095 5.28949789740258 11.784610426178766
Ge 5.771710801955055 7.49513534251702 7.348241640833293
Ge 10.951579472616817 6.121407941520022 10.523802758299595
Ge 2.385211044383443 9.116663468411645 4.820646449043792
Ge 4.810039737877891 7.8952270171799075 4.965249091386337
Ge 6.947956305997975 5.79833543295653 9.970873063223681
Ge 12.627724232639757 7.140743541790146 4.433953604212013
Ge 9.847646253036269 12.301857464273326 7.306742509159927
Ge 12.864764085853881 4.588450871958708 10.838529672518362
Ge 9.533738233316708 7.932098285147803 11.8454043021705
