32
Energy = -127.99041327 eV
Ge 6.254975243131489 5.236640008178085 8.569791719849107
Ge 1.9870278664802445 2.7623340164945067 3.961921726132897
Ge 4.287002255422463 4.3846677332414945 4.28087340254287
Ge 3.0739553771117962 2.4028601128953917 8.29730181563417
Ge 0.548355835976799 2.8420122927883704 8.359439428347924
Ge 5.489878612609065 6.73843779522745 2.1196570096441327
Ge 1.7262437659375012 6.431916057179696 6.482914162013995
Ge 2.9708901907095786 4.3740732359860806 2.0724695203257917
Ge 1.2493088622211042 3.884152246581988 6.143074988413081
Ge 8.11307545408009 7.621554030180002 2.4302168466922938
Ge 4.21559333402856 4.169925134816804 9.806783896093311
Ge 9.171866490842818 8.373989262021537 4.901026235569606
Ge 10.880514572161026 6.317451227091687 5.186073624494355
Ge 2.6026209898913573 6.47649916005416 3.920269963914668
Ge 4.1020979321648605 4.906688375333678 7.00855429865638
Ge 8.332933509524784 10.048468812957822 3.0836968187970686
Ge 5.808006862583393 3.7259518309633175 2.222016892780705
Ge 7.9150927212283335 7.667617167913978 7.01557877811974
Ge 8.160709939834497 5.0399823992971164 2.5843669725092355
Ge 1.971389904373603 4.95044295755142 8.854045652894424
Ge 8.376825300927987 3.7860833038421013 8.640983643232097
Ge 5.938001845776187 7.7427552546465135 8.565384252007354
Ge 5.886196099674103 9.137464255319246 3.029043087500724
Ge 6.153625225331642 2.40451844694853 4.5598567227087266
Ge 4.061523375197449 7.877319347882838 6.717137808683107
Ge 9.524144827211824 5.662697427968809 7.255185669863048
Ge 7.671239419709107 3.6053899710557 6.212815749100118
Ge 3.6057627086594635 8.94096791388027 4.400995823142173
Ge 9.73362982271386 4.087015000425037 4.570907668388958
Ge 3.768315775396154 2.206748680369944 5.720616414655791
Ge 7.755487118672086 5.99087395417373 4.953667154852511
Ge 5.263644626601152 6.848496500664946 4.711780637103612
