33
Energy = -132.063502 eV
Ge 7.653589971659594 7.451856156518902 4.14878692470341
Ge 5.644836133723513 10.268502960074605 4.9814194952445785
Ge 5.624368918559802 8.595703334978332 2.8893312432023373
Ge 3.353791855882104 8.240588320313746 4.127007545524329
Ge 10.018778521403725 6.372467691705007 2.9044358050855617
Ge 9.948758816951734 8.133976043026227 5.127208319765528
Ge 3.6934078066781875 9.543775120516898 6.470283713942049
Ge 11.472776175774403 5.8718730862524415 5.061269650457229
Ge 5.987945483820321 8.195685855255634 6.551293341206085
Ge 3.334609981054912 3.569784443023284 3.4670253841146823
Ge 5.721038664290963 4.187846725851916 2.297613585874418
Ge 2.0361783894416794 5.747152337832057 4.10096069854063
Ge 7.967382964870172 10.227060311789964 6.241726992024913
Ge 4.730510584562145 5.984118992931622 3.9696467436286635
Ge 8.951768512646712 5.701133049080026 5.869402925157485
Ge 7.856948880385499 4.883422458781466 3.5613051962419973
Ge 7.069643852293923 10.721518339462767 9.211069616347823
Ge 5.004594447995962 9.275706615226607 8.7780854110199
Ge 10.060648772062612 3.8400780227524316 4.229626572539303
Ge 7.904570586047781 8.493001034926664 8.209429683733777
Ge 3.8891563315570927 2.4145168358902405 6.12623472460721
Ge 7.37248201895735 4.782483961242018 7.737153784490195
Ge 5.694439976673151 2.357540656661966 4.226099365151185
Ge 2.960378810419363 4.76249205688535 6.258249471167767
Ge 6.880501983502339 8.349022415973229 10.698959626240136
Ge 5.479646318238691 5.76472505679728 6.39871182682615
Ge 8.562469406532076 6.425157354576579 9.630539642246164
Ge 3.8314055543476004 5.643735335478745 8.523629896752357
Ge 5.073518777601967 1.1846753829708798 8.100308878138767
Ge 4.29856376583567 7.458907697146726 10.476482445080169
Ge 6.763189471316445 2.49367613470184 6.617906302604184
Ge 6.181878385041099 5.565592333279423 10.323275637988887
Ge 5.2231438466854945 3.5106805187724373 9.026594739962714
