34
Energy = -136.07184873 eV
Ge 5.888898748862498 7.400258484500816 11.600432503299647
Ge 10.938311216057242 5.716533103793836 10.181293536665303
Ge 10.311874920330004 7.143235992810381 3.942514913346198
Ge 4.851826108759402 9.876850544689459 8.71175424848901
Ge 5.676025627085744 11.98270568239427 5.227298945325942
Ge 6.480979034096318 10.18120938849344 6.803158902668371
Ge 7.286082338221266 6.24043372858595 7.896151208923627
Ge 8.50545440574039 7.256965925890031 2.027182494002841
Ge 9.874241584772621 6.639381548984811 7.91186730978005
Ge 5.4135772859972695 4.888894084491361 8.808062134361618
Ge 4.121504976058599 7.438990263626304 8.686744666984627
Ge 8.77497330174748 9.368523030708383 11.518774315857323
Ge 6.527155275644554 7.830289209168405 5.764781182193074
Ge 7.567397008894493 9.31420957961409 3.3605426922094086
Ge 9.011678429289201 8.723327370109427 5.4610070251590015
Ge 7.7296263618136445 7.690530587591897 13.341452622503395
Ge 7.54561619739501 8.349925100217245 9.367014854036466
Ge 11.120567385954516 8.004676554737687 11.592210998462786
Ge 4.882539822948675 3.762394704006644 6.435827242189582
Ge 9.469962758524302 2.9026878543247925 6.348572590895892
Ge 7.700809062708841 6.197877853651481 4.142233873019663
Ge 10.867609449904633 10.258753236731984 10.07582755229381
Ge 10.160394796696288 5.262540937290561 5.621298735231201
Ge 3.959864592905197 5.921226664496416 10.731192453027546
Ge 4.717242951435438 9.438760909557903 4.635465940331199
Ge 11.909843866280797 8.030013157913427 9.020235375005251
Ge 9.546948924319633 9.275541109212202 7.999166304740225
Ge 7.400287168883861 4.409940447261226 6.059398861118323
Ge 8.650648405009424 6.69093628836887 11.050676604003366
Ge 3.69050949985564 10.854328317886695 6.542307972359734
Ge 6.085144268471573 9.934386507070604 11.056020137106314
Ge 5.756805098610487 11.002389154490684 2.8309461332078856
Ge 4.563299388795063 6.27744230188713 6.535643789550332
Ge 11.154631902956593 4.2570716248612435 7.803715521575337
