32
Energy = -128.4510488 eV
Ge 11.986078842512834 8.925975194092048 6.485023726641194
Ge 11.582171679885482 6.797555014579279 4.9754384075939
Ge 9.821136612215414 10.536798470467746 6.494493524691986
Ge 9.809130434841377 8.47934315025479 8.153911939847047
Ge 11.395528555555027 6.479507478295624 7.6461733156903895
Ge 10.46776155621243 9.190830451657492 4.222109478164979
Ge 4.7524419018785125 7.140472154392321 9.613062589977314
Ge 6.667176171447942 5.943785895769727 10.715008941717914
Ge 8.095364297832925 8.777241214421398 5.799415951134252
Ge 4.294635657274181 9.687392697463752 9.00505770030459
Ge 9.083028678330308 6.794730531089289 4.2728717394573295
Ge 8.978514620225434 6.152233101330994 6.750303879963875
Ge 2.5192309575133183 7.650074752490061 7.788988320981435
Ge 7.550466542287036 7.151807279618653 8.731334141388697
Ge 1.8315683016271487 9.96977206913622 8.219776805076863
Ge 2.9625757273367705 5.197824130739936 8.867680692385838
Ge 3.4352569294719157 9.675953770654294 6.176011584070866
Ge 5.958404687653343 8.518223996586707 7.281459025639356
Ge 7.543614809970099 6.153319002749818 2.3686926352386504
Ge 7.305978777798488 8.618725853640726 3.11020954173983
Ge 4.566674379013109 7.432816553543812 5.559816723355511
Ge 6.8718370445566554 4.296175568975205 6.46617360476245
Ge 5.054757432013208 7.156952822221998 3.1026166589884436
Ge 4.297221683283535 5.130948665607199 6.5174761303441535
Ge 5.534090900449573 4.3783369092627735 8.874832095189923
Ge 5.951749627383579 4.691211731700008 4.046988606588109
Ge 2.30710644399373 3.422426536080344 6.711800599209918
Ge 6.958798403004391 1.7541642029588722 6.630652754096127
Ge 5.967509840944818 2.0928607270661077 4.2791121067324225
Ge 4.415032870179203 1.929117589078843 6.68330292525015
Ge 3.4810726178005442 3.671725538932763 4.30196176498671
Ge 3.6100670722730013 1.1155139246732915 4.338513593884951
