31
Energy = -123.99557814 eV
Ge 4.233646406351256 11.350577709759177 4.8737279520335965
Ge 4.110417633233866 7.666536646661173 7.335873400374718
Ge 3.3859439302860768 8.623463664851776 5.000085288818423
Ge 6.205280923560873 5.517672659097415 9.282176777831337
Ge 8.686899675541223 11.338300966096662 7.536768298022293
Ge 4.885906737762428 5.1443631241979695 7.123386524203125
Ge 12.698429339485317 7.4296277767397125 9.360342005578222
Ge 10.457086949984943 11.250062887262631 5.600021204407702
Ge 6.40024874823871 9.724990417010984 10.729761448437253
Ge 10.805355909690299 5.597785024880544 8.382153570180801
Ge 12.641589695178263 5.088288310875617 10.523766899064933
Ge 6.381753699593089 11.119223999083216 6.513747036074018
Ge 12.012780089425044 10.151015651172587 7.357232144236508
Ge 9.536290971324538 2.4108781633912644 10.08176537480629
Ge 4.988653344100837 10.444198868714105 8.637789459316227
Ge 8.17139193685387 9.203853060993824 8.939083121776042
Ge 10.15809489763471 4.7609425663939735 10.911258330972137
Ge 4.139390570180285 12.42579859439167 7.292352386057065
Ge 8.516682100918079 4.425378118475502 8.75105356512876
Ge 5.6874438498417295 7.271580772916024 11.167574740710252
Ge 3.883327323103545 8.528066366870505 9.836912240343858
Ge 11.631563983211691 3.2842723865203687 8.922847694976593
Ge 5.875933731578128 8.843889733930279 5.48190564113415
Ge 7.9666479945598345 7.33878488326598 5.136606480580249
Ge 13.953807276256404 8.464846020743801 7.3564532365601325
Ge 6.810928353190077 7.39735163976794 7.631191194816692
Ge 10.660206996292409 8.890142648505327 9.083258364571632
Ge 9.55693968886812 8.988659251579646 6.326458768965463
Ge 7.433083549098567 5.054275327181813 6.416819105132743
Ge 2.602082053431751 10.351321675460953 6.845900316307482
Ge 11.702074399958759 7.382725039363853 6.668679016933765
