36
Energy = -144.47693878 eV
Ge 3.9853877630252397 2.036507712468824 6.769812744612401
Ge 6.308490318056424 0.9635026778533974 6.0359198586851885
Ge 5.234546455047051 5.0649449631364725 5.080222625356426
Ge 2.722573594930865 0.08380924293130652 5.0332626441457435
Ge 2.9188810277659756 5.825099189137903 4.272522208973977
Ge 5.217952728361998 7.647588379671189 1.0930641339235856
Ge 7.192227049795119 3.472127684184525 2.078684227653741
Ge 4.256333332454481 9.71381962669694 5.098918943595534
Ge 1.5998859535998395 6.333404332309279 6.5132810165710735
Ge 6.214204798102005 5.992932569770628 2.9339883893788254
Ge 9.312709234599042 4.976902658952023 4.918221850109233
Ge 5.5542670161500505 3.068575760488238 0.15250475873604544
Ge 2.7145026955341613 2.7260764408387113 4.3865560763141715
Ge 6.066235163384763 2.754159817575387 4.238859352330989
Ge 1.9883819184322629 5.009728017497177 2.046144705502978
Ge 2.3108400000123983 3.9534232138301264 7.418896343425557
Ge 0.7069260878576406 4.328556878310095 4.973257983908582
Ge 4.344809220916409 5.106542005790482 1.0941506587087413
Ge 3.3419252512365074 8.119285308102695 3.229183683535253
Ge 0.6132351043952825 0.9510147827786227 3.9400316595346627
Ge 4.3235625660673085 5.896424741371242 7.4806630994771925
Ge 8.746043795890207 5.530439292909019 2.4169380103173346
Ge 0.3824872586295986 1.9911132467337875 6.387217712320361
Ge 1.222423635786564 2.124259402046338 8.827138266370268
Ge 5.0935586617234945 0.16513596498423472 3.8130220830155506
Ge 8.426201252521112 2.634212179401633 5.917478597657805
Ge 1.6231259534995752 2.3803914967500135 1.874627864651338
Ge 6.122241494214052 8.817620000395493 3.3834929369440894
Ge 2.5425162740713807 7.355352667213825 0.8908152975272152
Ge 5.842980566017022 7.804375663239546 6.045138159549347
Ge 2.4073538961092997 0.16923125193328337 7.601769248753424
Ge 4.232472958476015 1.9865291184393563 2.089805687442303
Ge 8.309549728971517 7.476445104405108 4.100852754924005
Ge 7.221643956362709 4.681701805759164 6.6857965662907555
Ge 8.348668827815262 6.973639228828715 6.727316515145467
Ge 3.321649688192987 8.262235310409995 7.137509794111659
