34
Energy = -136.6593814 eV
Ge 7.942757909365475 4.756538865246749 0.9571950294498973
Ge 6.095666596618945 3.6743258564340175 2.384660403145415
Ge 6.691039045503297 6.480688147271243 2.43563242148797
Ge 2.615071205984172 7.316786126185667 3.206792914526097
Ge 4.874726312210039 8.325485454369442 2.5200906278706356
Ge 4.343223094453861 5.346064701241322 3.2463405117235378
Ge 8.734670624489649 3.9339206032650034 3.3187662123690846
Ge 6.05308546246616 9.370457942153363 4.510312548801424
Ge 6.424025879221039 2.7669321611784325 4.876439288817218
Ge 8.596675450476978 6.351347060610395 4.028368971788837
Ge 8.813585071076135 1.8050815338838022 4.748979164787497
Ge 4.184068282016969 7.503459743497936 5.240288462217945
Ge 8.563467750191046 9.771461141764137 4.8670749459781675
Ge 5.591228403138026 11.511365300570043 5.908807569301738
Ge 8.746605376749661 3.4435242319716175 6.704514186796496
Ge 10.423092971423078 7.985524628855606 4.786641190708175
Ge 4.829043484458613 4.926041374430879 5.680612508272517
Ge 8.666883654109073 7.6561531381545205 6.667569611341531
Ge 8.187601349314088 11.891118236226673 6.282948317816054
Ge 4.515595822579568 9.409797246454465 6.975816969650928
Ge 7.266844730677397 5.432946265741144 6.199986910092319
Ge 3.33344100362882 4.166023212692785 7.621969103766014
Ge 7.215522389135616 9.813765277562444 7.404714358410341
Ge 6.748031536139999 6.278195183141276 8.675302494920611
Ge 7.334089186522901 3.672157732678276 8.763846608345752
Ge 9.306204084774492 7.163744083052676 9.21300861158433
Ge 4.778177358644222 7.873826699529122 9.216577029005073
Ge 3.495621222048985 5.656464270618881 9.72040974307818
Ge 4.868711531357259 3.278623212782537 9.401970798351744
Ge 8.27359366599015 5.206519229921642 10.616956798500409
Ge 7.426576736935768 8.812971183751134 9.80044627767007
Ge 5.9398169554366005 6.10388911181521 11.407359709856115
Ge 4.157100658752008 4.240024448373999 11.690648616603516
Ge 5.572203362765797 8.682824763228805 11.526999251620209
