39
Energy = -157.44762072 eV
Ge 1.2504625010588961 3.5842416289413643 9.504213496498345
Ge 3.8786692163102434 3.862329572502033 9.230982348852008
Ge 2.7092839788493768 1.4683533761386747 0.06174972463641951
Ge 2.3021768716293742 5.790686539248245 0.5141949815535032
Ge 4.862909117694266 6.253530328193005 0.925653205645021
Ge 6.859343333428444 4.532966401042583 0.6436402818985688
Ge 0.6708644919687136 2.2666729577162767 1.6632011227172614
Ge 5.227607828564114 2.164281394871224 0.8952861866622047
Ge 7.406265501900237 7.108500179018934 1.5113098607476005
Ge 2.9871084944671584 3.6313391734354736 1.81758041351549
Ge 2.2467763791959108 1.1410125241228661 3.431468260063311
Ge 3.332952155959181 7.57301910009628 4.451421815485153
Ge 5.147208900310838 8.256906875117133 2.703636756549828
Ge 1.1189872272891808 6.495671657882849 3.3775505374702486
Ge 5.287437893836105 2.3152426767527787 3.6729832946292253
Ge 4.52937231879983 10.009331544037275 2.9190864188468293
Ge 5.642204980128828 5.008568006796259 3.0681538560957766
Ge 8.3186788526815 4.949056206425521 2.83419532945395
Ge 7.047728574096507 7.018298946251871 4.1737236702708245
Ge 2.959468747124091 9.336455179103256 5.339826960888537
Ge 8.689278931038375 4.758670212846346 5.773189745330418
Ge 1.257677841512213 1.2955716511796507 5.800333292392723
Ge 2.416843691843089 5.231349318347342 5.300247317576178
Ge 0.8810985570877492 8.69479348759816 4.875433725491214
Ge 6.126562236401103 6.472837087577113 6.656428337767241
Ge 5.499193178898832 9.938517278780886 5.413407821197641
Ge 3.0557034879001046 9.336455179103256 6.351135567314741
Ge 3.3430035560800664 2.888888418200817 5.252890598902612
Ge 6.055591948479516 3.871264726483736 6.56003603035639
Ge 7.674660506961175 2.2519860677154306 5.208479306878477
Ge 3.514015870878192 6.937648357453914 7.236041467624206
Ge 3.580834468453141 1.1290721356265634 7.129255505599669
Ge 7.86818461461531 5.363540873563837 8.233992162344897
Ge 10.031506808813006 6.1618135066803115 5.75512309700331
Ge 1.014392408290044 8.06079357020237 7.562435736062576
Ge 1.5161740078247703 5.377809086529972 7.77552919536438
Ge 6.485049145159847 1.3700927806961154 7.552448868975786
Ge 6.457419371816413 3.456486353222753 9.221959807584147
Ge 8.772666489614968 2.8232322732134434 7.708099453592272
