35
Energy = -139.37955278 eV
Ge 10.525239203289836 5.686514965908934 9.50179417729635
Ge 6.507783033527986 5.954425952781704 9.570636133621724
Ge 8.107986086898777 10.61257406683654 5.59066253141791
Ge 10.882608831336093 10.815503966781872 6.042274536398658
Ge 10.98733521006317 9.546261156684569 9.641796816873534
Ge 7.113776159748617 3.5383141442628987 6.206927385968004
Ge 8.364046857888406 4.600268338149281 8.244771290129645
Ge 10.28099616569537 6.193331268817221 6.990882009023808
Ge 12.492632601757515 4.559286833580443 8.488364166284121
Ge 10.34955469632645 10.56345737112833 12.18288670044824
Ge 6.447400487964227 7.067010498832236 7.196452774052033
Ge 4.0705912470780685 6.708293519197596 5.800157073366361
Ge 6.630022262252872 10.571174315560768 9.920904729203748
Ge 11.872553620856479 8.633643660693014 7.283794240139727
Ge 5.244381590652181 7.216350085274831 3.5725078757028013
Ge 9.930325661912887 11.666874567946106 8.323416447272722
Ge 7.765669808521109 8.20209134856334 9.83034106546771
Ge 4.15043541322455 6.676987657889571 8.519360814875371
Ge 4.842769481190061 4.229534103531219 6.938612131577714
Ge 2.567789122579529 5.031816245071921 7.056851252996985
Ge 7.806540387490744 9.396335353790702 12.253337401628112
Ge 10.108489391556951 3.1224545636389895 9.655138820873296
Ge 12.69725328698836 11.022119990633264 8.206052148976307
Ge 4.7071384613186815 11.359754363002105 5.6047661938868805
Ge 9.179092989284682 9.172207146666512 7.696338491755787
Ge 8.151165756921984 11.958993583001892 11.700173886278826
Ge 6.70606748191209 12.077549899897758 7.193719133906088
Ge 6.771076772864445 5.783295273377773 5.068950793976086
Ge 6.014219474272163 9.555902291005161 4.505129248602155
Ge 6.065921497093993 9.574094285088329 7.143886696116769
Ge 9.826602762539757 8.555728802607238 13.654348216997565
Ge 10.644126509835296 3.5768151058455886 7.115804752429233
Ge 9.979784918654467 7.762030152794487 11.186912890355377
Ge 8.004649153652815 13.069143425897428 9.216080132574714
Ge 11.626616606174455 12.123433703220751 10.310536330265947
