30
Energy = -120.08869885 eV
Ge 3.927621551400868 4.437965022685315 3.2157046889617575
Ge 3.8774775866886255 7.200367356009401 2.8367903892129642
Ge 5.951284412274219 5.922294465387625 4.400195672755368
Ge 6.000920635922857 9.069886569135749 2.4582627319233143
Ge 7.105038407049276 1.940645991916448 5.720035199666737
Ge 3.990782913920909 9.55379557728343 4.115104957513563
Ge 10.17285440761671 7.766011420678823 4.4653700419326885
Ge 2.040862603328372 5.896559540674399 4.4649524115757915
Ge 4.855897158102251 2.2019527930160008 4.443055274620311
Ge 7.500516486063824 4.459711783657731 5.873791076352538
Ge 6.497874022999881 10.207123860448485 4.78653991642412
Ge 7.628457492701141 7.808341116757407 4.022599453718436
Ge 4.869705811502532 0.2255363398971073 6.350108493880326
Ge 4.182656329158715 7.255360707215833 5.664208251030455
Ge 9.92523763341302 5.381764953307441 5.4144528104558
Ge 4.5432816087716885 9.664200371928793 6.709091489796508
Ge 6.9151672382963865 8.133173793319669 6.595831190625083
Ge 5.076255803787655 2.5495455423792097 7.375899100023285
Ge 3.3714290273399206 4.041553648131566 5.9151370218149975
Ge 2.7193732602685343 1.5267455139727333 6.06232974519306
Ge 9.820270796359008 3.885511009950734 7.339582302441207
Ge 9.512357870771108 8.20340896501151 6.89373820497224
Ge 6.668161804191065 5.856108316901204 7.949165821475756
Ge 5.618942583369357 8.194810838745742 8.991758301952476
Ge 7.926344554287793 9.870371918677378 8.476776760435401
Ge 9.202618705093961 6.069918353716767 8.427701885242884
Ge 2.433385546965904 6.108229719102422 7.179636281374403
Ge 10.108946399605252 8.297766556943852 9.468473074751921
Ge 4.417324890242854 4.770813279413944 8.596682762208886
Ge 7.727501648524826 8.089073863752054 10.375573877686039
