35
Energy = -140.43389437 eV
Ge 9.507225523921722 3.0679753044927462 6.408304093380326
Ge 7.459257829457484 1.467695151683304 5.771959124383508
Ge 8.215175392342655 3.5648630969776853 4.156124757340172
Ge 3.48303393543324 2.3172108168903147 3.5495823546689365
Ge 10.338059273421182 2.9046535561861586 8.938718355249877
Ge 7.749062188643543 2.264136103307391 8.35857706803744
Ge 2.345847318803732 3.35321737124413 5.909786236590303
Ge 5.639023227639869 3.79226629857728 3.1263004344079137
Ge 8.547067640206416 7.497183576369291 4.1177477633294375
Ge 4.57546133154985 6.141390877705267 3.4258617402547933
Ge 6.058158943596567 8.025037598551213 4.716777585487562
Ge 8.402071484879224 5.569509145698326 5.930099171654467
Ge 7.6427002288935215 10.294265995868086 5.117969675108333
Ge 5.89407677781769 5.066284181369573 5.538801971523798
Ge 2.3421747836196034 4.715409232218298 3.5138660853371135
Ge 4.350763078482615 4.273408568876404 7.478638482045877
Ge 9.979062340244868 9.62452301834302 4.855543945135159
Ge 10.003055941303222 5.570971167397863 8.345737294918811
Ge 8.763389552891915 4.193480198231476 10.514202635165365
Ge 7.20965940435693 4.909224068729734 8.403032757694941
Ge 5.070869732262367 2.5236486597363044 5.602393996657525
Ge 3.138732125326854 5.875172810686468 5.732661319184142
Ge 5.072288022523423 8.437749936056282 6.987819178419767
Ge 3.9324895978549725 8.666239661262022 2.8255488544417195
Ge 8.936175243579413 6.693320446912491 10.39929674011542
Ge 7.62852663481664 7.89936941444383 8.094119862863803
Ge 9.402865547553835 9.491580598894643 7.416984659656045
Ge 7.001402278546397 8.351935303164455 10.625911890894647
Ge 5.408936932681452 6.789979288432254 9.054523852436912
Ge 6.58597509304112 10.529235278241494 7.4431306358543745
Ge 5.495557582074493 10.552246323281818 3.640100830168885
Ge 2.449036446157485 8.13507250441061 6.749508851113487
Ge 1.7024619040506206 8.811403946741164 4.2375838792867535
Ge 8.164001821553779 10.498401351306006 9.482691320207238
Ge 3.4634587531432017 10.22437191213013 5.157016404883953
