39
Energy = -156.08793327 eV
Ge 5.997905303696136 9.670656591969475 7.199166139989587
Ge 8.715409323669704 9.21743680599027 6.664646287424825
Ge 4.909041270336414 7.917423263809077 5.640117719440327
Ge 1.7481369038881431 8.3740220448625 8.362201374414797
Ge 4.482874407839741 8.078917045617631 8.745049588562079
Ge 2.4601072811162195 8.31607281475535 5.8338851232504885
Ge 7.44237151717856 7.821849829462359 8.60754610201135
Ge 7.748205872138511 7.753754144900493 4.392070792599158
Ge 5.5741813454526925 8.315638363844602 3.0244707199344183
Ge 10.013608016751995 7.404718378181341 8.280940390928505
Ge 0.6380000720286759 6.532492903066464 6.638354474194825
Ge 7.426915077393934 6.361472699744602 6.469587839562036
Ge 2.44997401765543 5.844944668184143 8.574796027028613
Ge 1.589959089298426 6.82467828656133 3.9792075765444346
Ge 5.824483311873483 6.125498580093882 9.976835843713946
Ge 10.166120832547653 7.086772358141202 5.441289922532185
Ge 8.690126952298789 5.330324980814557 9.433519718952025
Ge 5.212192056909807 6.848013227929491 0.9755616606858215
Ge 9.01422189000513 5.896350643137045 3.1203840793845012
Ge 3.5110225163887874 3.365737246346013 8.495946717472066
Ge 7.700971887909546 5.998489914658842 0.757690025063805
Ge 0.6344552137476379 4.050046113742765 7.623899115343961
Ge 4.8425786358427905 5.652599545691132 7.331713097240367
Ge 9.596381115564192 4.8610278364409725 6.963959522277591
Ge 9.54950002722786 3.6994337494628873 4.4594645026889825
Ge 6.707881612156585 4.812928411485291 3.9965808804144847
Ge 7.801307769280032 3.492069835655186 1.901290234337065
Ge 4.219967542262195 6.056225718595742 3.4175429052530593
Ge 5.605546126747652 4.20360834346571 0.3733818244678885
Ge 6.400375819003691 3.8336962393093263 8.750098580554267
Ge 1.421229856569117 4.323234235614518 5.074340176261193
Ge 2.155539975226405 2.065405266564869 6.702565477572642
Ge 7.327167761183242 3.5905579594631263 6.180581382558124
Ge 3.890444924798081 3.824590691407674 5.672296883453894
Ge 7.393458111622256 1.8031177191093768 3.9424235013355045
Ge 3.7624971699724856 3.701231954812542 2.311710401685655
Ge 5.594970585172129 1.8925835194423863 1.6608081840476525
Ge 2.0622988517300658 2.1706012673692836 3.8195567619948037
Ge 4.723455917009983 1.8866627617903224 4.209404406318085
