37
Energy = -149.40307714 eV
Ge 5.129080700460383 3.6186179405650027 3.2989930752621404
Ge 5.723594427972607 5.548296159746647 7.236258496426818
Ge 8.322973317381228 6.09438139932667 7.433368180423868
Ge 5.813235611449037 2.2687319456216883 9.377477378268992
Ge 3.8361242431101448 7.776887393654689 2.9926788158229773
Ge 2.1930980651306617 5.7255337030619415 2.599636990981971
Ge 5.272987504409607 2.837324133142258 6.85894293734982
Ge 3.295057381672644 0.9302269670346525 6.30062696541365
Ge 7.679624140911313 4.01093442641734 6.152798421484393
Ge 7.280791659066905 4.539578913319836 9.356200252791679
Ge 0.5208419947514548 6.0804635314648365 4.587517622610268
Ge 3.845126966478376 6.203674729828929 0.5107455088147348
Ge 6.350359838790512 5.087355501745932 1.2850627470236549
Ge 3.9630930059689677 0.0179604967464814 3.816602198810352
Ge 6.685944406543582 3.059824395972399 9.562611792641711
Ge 8.090298643924273 2.1282759143920083 1.8066390569468254
Ge 6.766124509863069 1.7913994415290309 4.101991346800287
Ge 1.1903958642725134 0.08893605944088913 4.650018407770482
Ge 6.43174018277638 7.830296439694413 6.262391838699756
Ge 1.0251599442965418 8.172110803566076 2.830451772158304
Ge 1.04739935509596 8.477252127579217 5.504052782115113
Ge 1.5934333672689103 3.3722726446273397 1.3475904953226217
Ge 3.7998778548914194 8.143016687109483 5.8425747365988325
Ge 2.787918251947113 9.873086794442305 4.032011507951558
Ge 1.1593098273373645 2.540268231892419 6.042000488081181
Ge 4.517699046863343 4.5207526514733765 9.20807522974249
Ge 7.831835294238989 4.326783566245482 3.4690141940968657
Ge 5.977438548643712 7.662176994355506 1.5492993025697384
Ge 2.2838542986506285 6.159601288868909 6.601696696284966
Ge 2.0286850084275825 0.7402796066126832 2.165882260815517
Ge 0.20504540167840413 2.286299061404878 3.5744233938671157
Ge 4.2520963103500415 3.4668077778083335 0.7804303014046572
Ge 3.8397327257840184 5.609125965854061 4.600986199252275
Ge 6.359242535629823 6.57259963584815 3.986091635519775
Ge 5.60067063570115 1.302710960931444 1.6276767256773537
Ge 7.877992042737874 2.1162876149502043 7.860190440049695
Ge 2.8544478561901854 2.452198864391722 4.0744468725101095
