30
Energy = -119.80349219 eV
Ge 4.726996033108663 7.11052447719717 10.201265101975519
Ge 6.253195784631958 5.558698150938317 1.2108961592077143
Ge 7.9084043292367525 7.293553552263312 2.3172033943835855
Ge 5.494039053455746 8.140136056000284 1.8060135929045549
Ge 3.582069051153403 5.501767222631331 1.1707887596226534
Ge 3.1149557854513334 3.823748913232884 3.049053428276083
Ge 5.036302786645489 5.947943071990383 3.5269323629161224
Ge 2.259341202572988 6.077044367771058 3.9764494755721835
Ge 7.461115891180307 6.780760225754573 4.825036302688358
Ge 5.302325376537836 7.78018469481648 5.768991319416188
Ge 3.6984681682587626 8.369653820496893 3.783792735206946
Ge 5.451113937450827 3.3274356218894603 4.28928293430278
Ge 7.773703493447834 2.349750777043563 4.8663984590875025
Ge 5.152267731609385 0.6898438654682164 4.77690385014474
Ge 3.4591895612919847 2.5243552327253154 6.008404606733079
Ge 3.2765160207824886 6.276246023651168 6.324948083663456
Ge 4.995036652248443 8.328139779223415 8.346163939761501
Ge 9.164695894090285 6.98529978206244 7.113339299192388
Ge 5.126073212551031 4.507442697701029 6.90889180609708
Ge 6.387353026449802 1.6757516410181343 6.971657868605362
Ge 4.170226889678238 0.1870751513783571 7.102410703959785
Ge 7.489630527113519 9.141378787875336 7.8015894762149784
Ge 8.811487737462063 8.93249041577103 5.647465135081183
Ge 7.597548554411484 4.578424335364502 6.267070184433554
Ge 2.656963055021122 7.404889828782712 8.54834049967241
Ge 4.5055272103152735 2.4006427817335183 8.582556417507755
Ge 6.957762008944152 6.59696066431753 9.319043775806975
Ge 8.781169986133191 4.963763098423622 8.537718671781645
Ge 4.4995451063335015 5.646961459192803 9.240851102782544
Ge 6.788901173584358 8.981058744437584 10.201265101975519
