35
Energy = -139.73197729 eV
Ge 10.922167223509112 5.102483758298057 10.05829192281927
Ge 3.6248426106644747 7.736934586637998 4.56194177878596
Ge 9.241308276262425 2.5846568070142806 8.818972096757353
Ge 11.650259377792617 8.48172255187616 12.868020207985598
Ge 6.068285694561937 11.959473663523797 11.104522067303611
Ge 6.127695777878431 9.070969882947757 10.710144964858676
Ge 8.308373104958392 7.501939288312136 10.324189198954814
Ge 9.561343623758475 5.3301441392956805 5.168876167776785
Ge 6.874260307104269 12.476984505642823 7.259117007038982
Ge 9.271057379524313 12.399327479850845 6.187646626137148
Ge 9.211086824655116 7.729198288131184 12.830496065192579
Ge 5.176103819053858 4.676324346498342 6.6221221038952764
Ge 10.147012280288656 10.312303429204537 11.907839952074317
Ge 5.006502808900401 7.270638271091998 6.617598890343697
Ge 6.143957336811266 8.562585997063893 4.386255544951517
Ge 8.431349761593752 8.495886690804697 7.8940952664446025
Ge 10.557158584804764 4.713168805334158 7.618679992850418
Ge 12.092348090900652 8.553429097406992 8.00268948151651
Ge 4.970677570633743 13.010291523658141 8.941187114532637
Ge 9.354856976877752 2.7182051431753846 6.26109256848502
Ge 5.269429496509924 10.464890428020391 8.636532243041046
Ge 10.288809327478218 7.560047023419206 6.487281422920232
Ge 12.296897454702004 9.976605787060016 5.806120601439678
Ge 6.844513907287396 9.925110653896487 6.5584803555598175
Ge 7.7053271626193185 4.4769003445066335 7.240632992486889
Ge 7.86138129715165 9.927512355297502 12.876950620224553
Ge 7.175400284665705 6.430473424515821 5.256543670864022
Ge 9.753787130042971 10.058353838514012 5.457694050889055
Ge 11.230589308771124 11.493179836739124 7.580920878326909
Ge 8.405379495041922 4.991868926650451 9.601856413574804
Ge 11.04396955201574 7.773279499979195 10.474477704337788
Ge 9.922309707632763 10.057915014356462 9.279824280269477
Ge 7.84523466827986 11.547360173228775 9.419504326837346
Ge 5.3723510530277485 10.246060011586259 12.879634752257337
Ge 4.983144934728742 5.599953328141596 4.241149492259167
