30
Energy = -119.55601607 eV
Ge 5.7562356642289485 2.986779832854998 1.5700174741040702
Ge 6.729508100623508 7.685884637158557 1.8586054718648648
Ge 7.540091351463364 9.26641079076196 3.755446552008199
Ge 5.409358324362886 5.484499121445105 2.4800701856737932
Ge 4.880594664547617 8.671801378208487 3.3997960149000366
Ge 2.094961771472433 3.4878419622685093 3.6031454986951075
Ge 7.862427559256329 3.9078782109318646 2.8660427291291795
Ge 4.640317461653556 2.9027778322965876 3.881723636563462
Ge 6.983056629395182 6.358963672540492 4.523823269338942
Ge 1.4428720446669152 5.720532489192428 4.942291402313266
Ge 3.9244369595032356 6.279509832013792 4.5466332616515475
Ge 5.582075729948271 10.538151931089844 4.941828821888898
Ge 2.4265927647263994 3.52770288995811 6.070737497963489
Ge 8.487323975134144 2.5898754986258066 5.2072670624023845
Ge 9.363285351675524 5.126259882365698 4.980165760317907
Ge 6.914249326681183 1.3939991260795614 3.37466661451706
Ge 5.335986886013075 4.725935479110284 6.195312209614075
Ge 5.731716349819866 8.21317222662496 6.065041419087392
Ge 9.174162618889138 7.727574503078809 5.414746625835328
Ge 3.303479228000517 7.46895530358968 7.0944373825852605
Ge 7.788771388383085 8.23448270656534 7.769582725924177
Ge 1.521038444065645 5.542823939979969 7.624992807499725
Ge 6.027561446517531 2.2305225680949787 5.952960438050582
Ge 6.895996849625875 5.561893252380441 8.433684490219377
Ge 9.192928341100105 5.990228396256341 7.482388389882416
Ge 4.097169404202549 2.752084203364683 7.76030130698205
Ge 4.7881261999499865 7.73757734480457 9.25781572343975
Ge 3.965720810960328 5.267836608461076 8.597414273666207
Ge 7.044067570650615 7.758436798772097 10.288805857620964
Ge 5.68125371970901 5.444974518352478 10.645622033488218
