35
Energy = -139.38812245 eV
Ge 6.706515842541255 11.12886528007829 13.371827504339977
Ge 11.386000628180316 11.413660920038769 10.234368925581977
Ge 10.210381037577944 12.59545465045186 5.758474902345714
Ge 8.585968650178195 9.426687310764242 13.417924363186119
Ge 12.673988979468497 11.544549500204088 5.69936678679153
Ge 7.896447784392652 8.586978862690446 5.825229023792481
Ge 7.0044983747221075 7.969415560631883 8.229635026315604
Ge 7.702372854868361 11.20267585442334 5.790609629686973
Ge 5.166060798501664 8.014863725694365 6.4529071190398275
Ge 7.513947119158242 4.056407179270113 10.118617999823718
Ge 5.094478640390601 11.452240710740632 6.7112945336425796
Ge 9.816074373233981 9.275863859235807 11.03556188880641
Ge 10.464944909084588 9.966799762559496 6.027874645259612
Ge 7.648016990441051 4.590873618850154 5.8065619966549225
Ge 12.923665573488561 10.960992120735094 8.215995026542682
Ge 5.256287137968065 13.00686555867744 8.584251789046663
Ge 6.558139564371153 6.622623041330777 4.300158016995192
Ge 9.160947123895658 6.560119227110866 4.706866423760259
Ge 9.894182608854052 12.002936358489391 8.219622884984862
Ge 4.964690093342501 5.369839210447032 5.942362532875855
Ge 11.42020482933824 6.70455939044216 8.444775255492887
Ge 8.950195135273129 6.416327900584655 7.325905082289887
Ge 5.656243749793653 10.029015939012172 4.647325520566266
Ge 12.82176205243128 8.946775266281188 6.60992797442072
Ge 7.4398656657412365 7.242224126469963 13.065847939420848
Ge 7.33454423560901 11.668515576501804 8.358787435191642
Ge 7.471872910755817 9.705762075013986 9.969683188486739
Ge 7.538458536548222 4.673556458786468 12.773803868069551
Ge 10.070152697496574 4.7000014538769115 12.055942514200703
Ge 6.402382528960917 5.49588935133724 8.100893192764588
Ge 8.331349818284718 6.504180142349035 10.727116912918184
Ge 10.776343971091421 9.346064245135135 8.52313057874329
Ge 9.922617994558916 4.642413111706029 9.426766734762127
Ge 10.95917033426395 6.957096476381676 11.051003652626786
Ge 6.059525916545519 9.14993911263153 12.06013807592177
