33
Energy = -131.77998977 eV
Ge 5.452498383831718 6.202225624455316 4.325547197593923
Ge 10.34951840072915 6.851822087354881 3.5644415266721916
Ge 10.752458518009863 7.557566584235643 8.555508579543456
Ge 10.414235755525867 7.738512990066713 11.191713197661496
Ge 6.6167373377373755 12.000589761584004 8.574319727375068
Ge 6.990674192916832 6.547064858461034 6.340970269873893
Ge 10.44023134750766 9.1292451776455 5.1298714602391255
Ge 6.376246075333401 8.70013758860747 4.659824713230238
Ge 11.625205704234526 10.132165226637081 11.43569231471846
Ge 8.131633564685421 8.016329217768071 9.081467877371356
Ge 10.736107695738726 10.220827541007225 8.866973583053973
Ge 8.627282352659918 9.061457808077543 3.2817351395140375
Ge 6.59549271642844 5.729217535916958 8.756400176732821
Ge 10.836788162104378 5.043133918167233 7.70291432283304
Ge 9.150072573820944 5.443644552469285 12.068799387422995
Ge 9.284910982918737 13.106972576613034 9.267330210470359
Ge 13.170705237555238 10.8357789737742 9.489614281374703
Ge 11.887424410669226 12.880945366707067 10.545543447422022
Ge 8.338216155758321 4.248166668686824 7.137214851315122
Ge 7.250307244766465 13.174408241914765 10.934804071218405
Ge 4.8782898772492445 5.660273609800285 10.702898223891301
Ge 5.526683922167404 10.65859478577923 10.533131911246361
Ge 7.349469453021188 10.748916546358151 12.509062724895463
Ge 11.561701217115614 12.527424642842774 7.934530917436346
Ge 9.63881023585912 6.649113972962948 6.008051463945924
Ge 9.625001830127188 12.166080816378427 11.98244970043669
Ge 7.798215844421385 6.621305715467886 3.486023513954263
Ge 8.297221567860566 10.645440123375213 10.018319375312798
Ge 6.646197271407916 6.173567023915603 12.523347097142446
Ge 8.162404436853153 8.9847243369116 6.617233170585486
Ge 5.7484894388854375 8.018873294734027 10.368572595199506
Ge 9.036957821618829 5.412065111171589 9.563089413023176
Ge 7.998574801356156 8.248990051807935 11.860280872015936
