33
Energy = -131.67487183 eV
Ge 11.111994100962614 7.538735447862592 8.814668270411902
Ge 12.552679472863783 9.475977585821363 10.152068999261571
Ge 6.536190299045305 11.014649711040892 9.730481515158932
Ge 11.365980836494797 4.807047675870572 8.270781464611927
Ge 8.45459319500712 4.729848201562434 5.0508199222994055
Ge 2.912812707528106 6.59399351319904 10.044225423002569
Ge 8.345653708972742 5.725321237142424 7.708215528558567
Ge 9.400883004120214 3.3636881979527353 7.139109048896431
Ge 8.573802723422522 11.823991320107885 8.372347240512497
Ge 8.518930255369401 8.683134079560288 9.721269293024648
Ge 5.985849053355929 5.660467643704599 6.578016461731268
Ge 6.28263826061375 7.605971052294541 4.941054070632225
Ge 12.120916968632814 6.948821018199657 6.555070986029746
Ge 7.136379307193959 8.455765633041151 7.38648067517158
Ge 11.147794568985198 4.710567093977027 5.5307046297355855
Ge 4.697476434382517 9.920255509281576 8.252632232623847
Ge 9.901622372766964 10.53686521756728 6.09171116339209
Ge 4.222959709068765 8.265358062665006 6.280965733341165
Ge 10.491902525481777 10.200929023175702 8.794650490799631
Ge 5.295059583460074 6.715848089063751 11.297331316335667
Ge 11.484079142310026 7.5426722701204865 11.538248917013284
Ge 8.560170445213513 8.878492547794679 4.358306502291559
Ge 9.574334703122688 6.988710645788067 5.809941745133746
Ge 8.735887725915246 13.085265221574609 6.209877601175833
Ge 7.233528340526065 10.851573783837958 6.080938225773568
Ge 10.296079727740224 9.978846516998518 11.585546701795591
Ge 8.869013901480411 7.82987415409932 12.246717075652994
Ge 3.4431955407559838 6.060763264083892 7.366340682396606
Ge 9.39393257282049 6.040200218865701 10.191789330034858
Ge 6.4184887793770224 9.091220975236688 11.444779841164262
Ge 3.7186768600209885 8.988596415229832 10.492852451821282
Ge 10.81107376174079 12.547724432111615 4.97126780009941
Ge 5.263485803744511 7.323400544443896 8.87438240563581
