33
Energy = -131.59031223 eV
Ge 8.177842501580756 4.20077747921972 4.092877515891571
Ge 1.698249039843069 7.980758494527555 7.060462326305449
Ge 8.380666057535244 9.719266348404135 9.670119065704258
Ge 5.33713433373483 1.9357271252162833 5.775573348629298
Ge 9.374755727549768 7.225629712724497 9.85683417947451
Ge 8.192975120446672 8.63746858532138 3.5531134545813847
Ge 10.722511555497746 8.35041650975141 6.779278575449725
Ge 8.319158603862391 8.288840392203218 12.048439290011455
Ge 8.03851190987903 5.462453727478428 8.283907418266349
Ge 11.834400366523795 7.759195160465338 9.266168388882035
Ge 2.2574781275672637 7.047401860447166 4.567513632279892
Ge 6.464911578969585 7.777453720059458 5.27508443321785
Ge 1.4969539874585667 9.453592686867509 4.8761924591160355
Ge 5.388904888362647 8.857723573081412 9.203904894627753
Ge 5.520442265034174 5.36697348736096 5.030235127214788
Ge 3.7452100338007885 6.470051954240791 6.7072877439257175
Ge 10.485846942957739 5.745833764391956 6.807232164209474
Ge 8.655654806198342 9.698698089188209 5.984491942467222
Ge 5.630471683997686 6.223854603558518 9.25533675994995
Ge 11.957169417616093 6.83597906616953 4.921701928268599
Ge 5.777771770498746 3.237620434548385 3.5610678087621386
Ge 7.791032222903362 1.8038318914514522 4.835324989402554
Ge 7.345744500645638 7.95340372578245 7.767722937934851
Ge 5.629340304878945 7.553973693583943 11.610446517280657
Ge 10.739073857226039 10.323878814510698 8.703653895860672
Ge 3.9539008443654824 8.920670977633018 5.584591218539286
Ge 10.837347324510386 9.071324724496405 4.22253418041073
Ge 10.886034711361429 9.315391536535483 11.130522151086755
Ge 9.1919799693621 6.586880700148176 4.743895616395201
Ge 7.615983542324342 5.721807495282979 11.169184645256422
Ge 6.960223440583956 3.8161662274106494 6.40587904058341
Ge 6.420060138418973 10.143087692561645 11.259168582572919
Ge 3.294813037176013 9.865070682250707 7.85255815312907
