37
Energy = -148.6328401 eV
Ge 2.534653996883686 6.129892550612032 9.46010808647668
Ge 4.974537303086807 4.968948362647681 8.874989946902126
Ge 1.1060803661657441 5.262989150849826 7.169854032333154
Ge 2.8357339467232716 3.700035555992166 8.256379393054159
Ge 2.285609192581309 1.1716598620340286 8.064573122634204
Ge 1.6417201705857936 7.762282429734804 7.490823685826262
Ge 6.301677011644411 2.3246976477950456 6.348992863537103
Ge 1.224859216770647 1.9583449544416283 5.868944360868944
Ge 4.353287273100772 0.8318610418238489 6.475779472750432
Ge 4.328700149743665 7.341771937519115 7.859116043780058
Ge 7.317774021726314 4.371275552473851 7.482701882294964
Ge 3.7141560978357697 3.4884691931177643 5.838480443114472
Ge 7.190735374218729 2.336055164028873 3.8116416417719035
Ge 8.868804233173849 6.44758272317283 3.67326493967348
Ge 5.206787463158775 5.612184480468649 5.9954054706384134
Ge 0.7361584722050074 7.384424743426102 3.2381495457963028
Ge 8.060721890326512 4.575614426403667 5.025312443372018
Ge 4.02449313596385 0.575505128110469 4.000760145492796
Ge 3.090495964544755 8.553156299337434 3.7645012412193846
Ge 2.7214274599372663 6.599036819709975 5.359963345430801
Ge 6.286004403218173 6.5248845986991 3.784583956105092
Ge 5.285952684488697 3.9569162096136656 3.165769050099962
Ge 9.517733739691874 3.8060044670137003 5.856253577767417
Ge 0.9901436481600548 4.918682489910112 4.172768298241093
Ge 8.726268916381784 2.6141559971347603 1.645302838372256
Ge 5.090244642383309 8.177075109271696 1.9920771301607585
Ge 6.1335158531265845 0.09138810190737641 2.729068371265527
Ge 1.580552427179888 0.8628117047151278 3.5204098886675994
Ge 9.517733739691874 5.093762487397593 1.6241699421447997
Ge 5.336318370226916 5.703671187645023 1.2429179294827104
Ge 7.507307394429695 4.7276740949469875 0.2830166052548003
Ge 2.6944819781465017 3.1923647310425682 3.236002000669736
Ge 7.4587138907398876 2.3443553615424038 9.484110185908687
Ge 5.698430061477588 2.0887337333391396 1.1948708716377436
Ge 3.61830133960965 3.7912152207033754 0.8376179287292408
Ge 2.7070862639614606 7.202277433365441 1.4389051227652574
Ge 1.129555753597161 5.220096108414982 1.5291720426478985
