36
Energy = -144.34906368 eV
Ge 4.4614334244052065 7.762770506881081 7.824666728642859
Ge 8.838762897582386 9.853699830443635 4.184066923414571
Ge 7.112058084177765 4.7039954399225286 11.403401927710481
Ge 7.183931728069863 5.331917820801244 5.523915366939719
Ge 8.77997589182272 10.626956118007957 8.439927802690171
Ge 6.0362147246413596 7.432925186880526 4.082532664953534
Ge 11.199402302846138 4.5598489741388315 6.1141994990797155
Ge 10.219001222828185 9.677442546672502 6.5206427017413375
Ge 1.1384253689689225 6.263630880721445 5.259486430339437
Ge 7.493971321039128 8.779829320009062 9.717264894702964
Ge 6.671958487819884 9.045643835842524 6.939604820484977
Ge 7.943678904463731 6.2672296010192206 9.370954522410104
Ge 2.0311534667879196 8.339726353121744 6.693765723980654
Ge 10.804893354888593 8.78579064265624 2.70391378324688
Ge 9.061625698781665 5.379459510067533 7.259628494912281
Ge 7.272260303788298 5.263256179689184 2.9025568899251804
Ge 5.751554889144092 6.955038390076809 12.385811861888222
Ge 8.353719430232113 6.492409661973185 13.089606846151776
Ge 3.026786009986396 4.41141710310911 5.302850322745323
Ge 7.796666790973666 11.379925877047032 6.131786967310974
Ge 11.301586096896328 7.1413526270674375 6.983837859406464
Ge 8.964177874814546 7.12336588068642 3.432424292106738
Ge 7.757175654152724 9.022474984999844 12.441334023653233
Ge 12.212770727894334 8.87928579250946 5.046556756610806
Ge 6.172064516447108 9.99735849123225 4.436190699368596
Ge 5.334464946823034 5.424603886990218 9.6589660866774
Ge 8.577580533944214 7.6828802723065435 6.022613244626225
Ge 5.435155167424677 9.415201152607656 11.086233489018122
Ge 3.8572783723613733 7.463519448392207 10.37458336536045
Ge 9.652712661103916 4.51049793896891 3.922135361012055
Ge 9.706898430789431 7.805729100668772 11.06466710424025
Ge 3.6353183429360074 6.993365231779236 5.129622027628114
Ge 9.672011796045703 5.182626002344959 11.041395119118457
Ge 11.518961950072459 6.494360751180902 4.183700402212612
Ge 2.3775826894897127 5.7699600159195095 7.543908535419367
Ge 5.013182633723475 5.253370006823457 6.99134331275418
