34
Energy = -135.87246591 eV
Ge 7.246519846268076 11.464997823634478 8.227762459120207
Ge 6.8673706186437675 6.537595338743579 9.710965317168817
Ge 9.80324546544606 10.534742558287872 8.859543063044306
Ge 8.905671212042181 4.5720781910956125 9.717354818472437
Ge 9.030886097355062 10.880533694853234 6.3395535176767535
Ge 10.41909771459539 5.262262156992557 5.100297059324883
Ge 7.933389903053256 8.868414626241817 8.933681126362803
Ge 3.9194518625348196 7.695456994221618 8.570796418431144
Ge 6.265297441044201 4.05260121885141 10.306397670218521
Ge 9.442880918887381 3.833603464118064 7.132025692575255
Ge 6.950250968941146 3.487444761718139 7.863984247715899
Ge 5.800628451405573 9.24826622025188 7.502681832293029
Ge 6.473479514645104 10.837911531278968 5.554130772372313
Ge 8.714281223690184 6.274190978917733 7.737350666244422
Ge 10.051282033376442 8.449705182948716 7.009249491597548
Ge 8.716078170549613 5.783896811555121 2.9583571399592334
Ge 6.388614751652132 6.783091814132473 6.697126357161255
Ge 4.960832586495725 4.500385767927524 6.19986466927205
Ge 9.9564664253802 7.726148460643678 4.227505257163622
Ge 7.796738983362742 8.607207625537994 5.345243339001418
Ge 2.595362969393199 7.470943711229544 6.349547258875487
Ge 1.747160885198567 5.035422454109208 7.615151820802245
Ge 4.766588483968628 6.731635919333568 4.55445899659481
Ge 8.3517970461046 3.34189914946812 4.554733820358724
Ge 1.2947624570719303 7.329004426602081 8.872961430885278
Ge 4.457084074657685 5.091826293251377 8.720378135756414
Ge 10.287644756243404 3.6412208551692147 2.9338654066015906
Ge 6.356862031128385 4.934107302296831 3.58302333716649
Ge 5.9579888106258405 2.417644349768549 4.848802998480578
Ge 2.7009406984522437 5.095640909138212 5.022382033940431
Ge 7.953160412354062 3.600234476136232 1.5047516304624666
Ge 0.637454550535497 9.09446412713057 7.024889668877339
Ge 0.017908968868612374 6.6798680529680805 6.5730635637138874
Ge 5.6464439369147055 2.796965337866294 2.317886138077907
