34
Energy = -136.38990875 eV
Ge 10.659993283054389 11.651030185083403 4.047460219914101
Ge 5.221816780322965 8.053803856963627 7.294219831002044
Ge 7.7385773611602815 12.507084906551082 7.983058258264884
Ge 6.625341740542848 3.726023198178955 11.754282731697348
Ge 5.669121375927855 11.501316512749 11.120480695735667
Ge 5.308588452489375 9.33435778956298 9.792819845722748
Ge 8.081313262181794 4.5132799477662005 9.838809272020965
Ge 11.27160461582949 5.562275357315529 5.01176211029604
Ge 11.713882610343475 7.382057550414667 3.112448116766713
Ge 7.01166591056424 5.943460179462566 7.898988874403262
Ge 5.844322629426296 9.245235332310845 5.093330104891733
Ge 9.412864373120629 11.862085222005248 6.225359910075905
Ge 6.813531914976963 6.274052147540682 11.965885312058838
Ge 11.958593036687942 10.728439427256438 6.154128889270645
Ge 4.343988565053578 7.434396940865296 11.39412421595001
Ge 7.89212090686331 9.913276862702142 10.875842183638396
Ge 5.845915596338895 9.3088612863064 12.641967238792816
Ge 7.6083749679803265 8.461237888688768 8.741340211333815
Ge 7.370530681584172 10.202652110506245 6.871317807066183
Ge 8.603859200727026 5.6426592624225425 5.7717147794684465
Ge 9.975498244459208 8.904450337070756 7.013180762792176
Ge 3.204641262326556 7.83581094488072 8.894167003436046
Ge 10.569399462812337 5.155952670374489 9.732608125683727
Ge 10.577423953223557 11.030456841885972 8.429039868406726
Ge 5.101196726789961 5.16720377615929 10.238793756249242
Ge 10.186752250412507 9.141062341134433 4.052528669714238
Ge 12.528362428080996 8.096102037087835 5.3556028031211635
Ge 8.148214784116274 8.087608532891164 5.078286479946611
Ge 10.395589363097796 6.396614734821751 7.489481271544807
Ge 9.099059998982607 7.085040205649978 10.453227552466235
Ge 8.396489305748815 8.122390941821282 12.746633823109395
Ge 8.122585285117385 12.38126384582359 10.516028254037959
Ge 12.914167649174624 6.154890385022818 6.969993241164469
Ge 4.385170301212534 5.58221127286123 7.877847951201429
