35
Energy = -140.52061066 eV
Ge 3.7391196664733743 3.8816015339560614 5.830726607589967
Ge 6.5230357953466855 10.375863648846934 10.68857889205841
Ge 3.5448026831104293 8.264595116954046 5.867435841940529
Ge 5.7518655345804 11.133789230392782 7.656784296533487
Ge 3.362694531272666 10.552866843523024 7.160127730510697
Ge 8.38783457539762 10.417617373198684 8.895001407345458
Ge 9.716779750855371 11.763032356580077 7.131142115106937
Ge 9.577435314281754 3.6381366809291578 7.720952188469853
Ge 7.983774954906303 2.774586314554078 5.879071562627199
Ge 5.277895284911249 7.4649456172212725 7.750730076425272
Ge 5.936365180788511 3.7313141358649213 7.200721562882938
Ge 10.878958999741313 7.116492196716281 5.984397895612863
Ge 8.66016975618583 6.85373863352963 4.5522308474709945
Ge 13.027394576795558 8.428809266379702 5.685444864286586
Ge 11.368452075971696 9.758517634395087 7.032716950025896
Ge 5.500454113987895 5.161373741261612 4.420614589267727
Ge 8.399203989868537 3.589581520261979 10.044647819174958
Ge 7.859223433810471 4.4588171453256304 3.7954719936504677
Ge 7.869735214412654 5.390411297309003 6.558658157840578
Ge 3.0329901959820975 6.064968422306009 7.256573715487392
Ge 7.668847549791056 10.578571579300702 6.154823728446122
Ge 12.896779129160025 7.602294209436031 8.148651462009347
Ge 2.9617551650455187 6.1389017835085875 4.50587316759541
Ge 6.345821236810754 5.643254806184651 9.283485782649972
Ge 4.498898453111336 9.230976019806743 9.495311792228396
Ge 11.635769578525991 5.318732226024034 7.7006341111721115
Ge 6.803374491375076 8.172099013461779 5.807021446846391
Ge 4.7563567334957835 12.015185767943613 9.753989952168544
Ge 2.470469271754198 10.70344729255078 9.619535458353377
Ge 5.804478429822007 3.261972488192939 9.71645197610037
Ge 9.197233147908765 8.17537241304671 7.898016069816889
Ge 8.947633014493588 5.920578043029008 9.135057057881014
Ge 10.940909976119395 9.530984170700274 9.568126550602804
Ge 5.142924863366305 7.78625269711258 3.820527807707464
Ge 11.241971998351913 6.9075652762144815 10.031316961349253
