30
Energy = -119.76260618 eV
Ge 8.412478706466501 4.839351179478421 2.4532172154655085
Ge 5.933116064079085 3.751835018271382 2.693995793680001
Ge 4.781109628262654 7.910250916664205 1.8729555587597146
Ge 3.4777613156550635 3.994934280822421 3.554121431379511
Ge 7.997440914870069 2.399084566347208 3.7117412930782416
Ge 6.474937733393102 6.450810141600237 3.224809532692992
Ge 3.95698752070586 6.5561172935572225 4.035721042443243
Ge 7.1360968436196455 9.098055846741795 3.065539737181289
Ge 8.397381385275619 6.283745233507162 5.057878787384769
Ge 4.7677822083793036 9.850620546254023 3.680408425473178
Ge 6.517239595785286 9.25668177892042 5.639007730450259
Ge 6.022710872529788 3.107418064031567 5.335295512322338
Ge 3.2995276030162812 2.604952503812714 5.698389494759667
Ge 2.9515348087180318 10.682626649907865 5.323853873178132
Ge 5.890484585762811 5.574540042183977 5.921826867493587
Ge 5.092285061909941 0.9232901081102636 6.487932289343337
Ge 8.770019002479188 8.430015111050123 6.443110423074902
Ge 9.689778229663807 4.148309018747774 4.733265196373701
Ge 7.605324337580607 4.890765800859434 8.849824611814507
Ge 3.6167039662519906 4.808487430314151 6.942774649497154
Ge 2.2339023503847617 6.805280108656697 7.596390630149698
Ge 3.5652201159793107 8.327698860499458 5.875647990726462
Ge 5.162416577678712 4.027489739078056 8.867723284666269
Ge 9.368215790012007 3.6990431054464525 7.350470728564347
Ge 5.310326345853897 1.43617470926095 9.038969687362437
Ge 4.906634430908779 10.52358230429543 7.170650835980439
Ge 7.024365147855526 7.055859553545083 7.721162980773495
Ge 7.283927169889864 2.3610120649166477 7.807540556354157
Ge 3.6852078077897636 6.18406388612987 9.621343136232177
Ge 4.7865437412415766 8.135363998986353 8.341890565341767
