30
Energy = -119.39682674 eV
Ge 6.236625419168934 5.264016657768051 1.1314055521010005
Ge 4.881471570229108 7.434832843469108 2.459532816603058
Ge 3.888571424910871 6.042366633790369 0.6071817235875591
Ge 7.333138240523622 6.730853122184288 2.87086421483967
Ge 9.74838888032835 6.521649509792197 3.8564421538669915
Ge 8.426260119071758 9.104071799083954 3.190041153514984
Ge 10.901448428206745 8.826770340548107 3.320938179006296
Ge 6.245151024400882 3.2631347329975013 3.282110877451644
Ge 3.9595931048610664 4.794765194578085 2.8863822278858637
Ge 2.990117643435947 4.875691779205439 5.756911442468943
Ge 4.926020612223791 3.201279435413202 5.550247004232408
Ge 8.199437919279712 6.581513193535981 6.12649384499457
Ge 5.634240845366958 5.742402831726555 4.71780416470086
Ge 9.788162114072176 8.687547340458721 5.615811109007795
Ge 7.8787967183379966 4.134233335328593 5.333615380819167
Ge 1.6063874032026153 4.485790571026969 10.030788395274795
Ge 5.162323658048631 7.482918461567465 6.647635497061024
Ge 2.2838812866480662 3.3992125693043143 7.771634177150091
Ge 8.496857399590677 9.973049676870705 7.591920783489277
Ge 2.5966669711865373 7.357431149104988 6.343269823044713
Ge 6.980678303200689 9.10520969234567 5.567606569644012
Ge 4.367816289216978 1.7699482550256729 7.690155849680488
Ge 4.108919557758446 3.909006767697159 9.883587084067738
Ge 3.078030000223773 5.955688874501117 8.497232712535592
Ge 5.813965956650096 5.81240090241133 8.643666930922269
Ge 6.622874716611112 3.5968605095272244 7.531029860358097
Ge 6.048762350743834 2.2717136975235523 9.611538136847317
Ge 8.568332386412473 7.510716796948202 8.493459641067632
Ge 6.235591911849 8.970583420492506 8.557531098248642
Ge 6.975225347937005 7.1780775094701745 10.416899199225163
