38
Energy = -152.58948681 eV
Ge 9.554044390993743 4.2523267191615055 3.729782586347955
Ge 4.945327926272395 1.1007634738134449 6.584946678436842
Ge 7.031886842329604 1.6591915894253397 4.87726608684824
Ge 9.376781561171986 6.780535704769249 3.0644069316669604
Ge 7.134915009315087 1.5884803037513415 7.9003683639612845
Ge 7.5620865660578165 2.6856956743395606 2.364120419440868
Ge 8.967900400413061 2.883197188728877 6.043452280160964
Ge 7.439666037736475 5.198294369760784 2.095004372224125
Ge 8.68692741375921 6.112210077598098 5.650012810543618
Ge 3.646123146415548 0.9276532395764449 4.081896988472849
Ge 4.649117728778191 1.8939413433800039 1.829502955972573
Ge 3.1548547204128394 3.020443526245966 7.2567208480722165
Ge 6.199291604313514 3.2580522160408054 9.699538176910185
Ge 4.477925095197903 4.6668530695684485 1.5440681746802785
Ge 5.6170035519071275 3.8851417674541757 7.108272688368037
Ge 7.794441826830479 8.612525750162977 4.2837189981918105
Ge 6.791745616346582 4.319916920226699 4.61715257924374
Ge 8.082607795949349 4.3526476595083565 8.083171359180492
Ge 1.9960089757494885 1.003405073751281 1.815473592241895
Ge 4.209123878933701 3.5392997292318404 3.952131859145618
Ge 6.273749042864161 7.118593582537062 6.154945994863182
Ge 6.230188520792148 7.313952525524039 2.783529337929601
Ge 0.17954195382026417 2.9849943312499962 1.816634903364494
Ge 3.9311367631163594 4.695777785577356 9.156757968240514
Ge 1.3283889214391362 2.3350040009454918 4.06509181641022
Ge 2.4970734790448037 3.342608980168773 0.5846056118818584
Ge 4.160007155996077 6.670425732593914 4.836293932901544
Ge 6.1145716411413735 6.225002156992496 8.755656394576873
Ge 5.170108399535147 9.482731793732102 5.173627098346967
Ge 2.180540009031533 4.533023344464779 5.281551411199801
Ge 3.6842220428751897 7.24165309145756 2.2600303012497798
Ge 5.305654517730895 8.811918187648878 8.060851576779267
Ge 3.1675423029872416 7.391881258429831 8.569214258160311
Ge 1.824964492551352 4.99842087033892 2.649299750074323
Ge 2.7179843516157907 8.931037243141605 4.3182151185272035
Ge 2.000720854387387 7.106257690773898 6.213697209242644
Ge 4.942289739594623 11.159735691875197 7.140830400009333
Ge 2.8875180201838315 9.64445648778971 6.979044615053189
