31
Energy = -123.65146988 eV
Ge 6.033144505507787 11.008345402079739 6.471532896055313
Ge 5.396015206192827 11.010108040972488 9.063667609911198
Ge 8.632902162688904 8.537656803488863 10.778547916674519
Ge 7.889011234617392 10.337512826100374 3.5089639233405476
Ge 5.980264918837099 7.621060665202772 11.719558352161682
Ge 6.59222313362768 10.086379292012355 11.361542752314197
Ge 7.532600581113581 6.15386404380768 9.877614112254333
Ge 9.105236239992715 4.340316383291033 11.332260979320958
Ge 6.257262383163075 8.385772630896806 3.141228508879852
Ge 9.165605482642931 3.766577793681498 5.034191877206637
Ge 3.8570673666903295 9.003143902072674 8.673120663854398
Ge 8.173660681548533 6.615125551466565 12.534880764450456
Ge 6.8458038184764645 8.818783470919218 8.81373560641145
Ge 7.639549858237071 8.71515603352013 6.1010360356595745
Ge 9.709849720443149 3.1666665413125337 7.441632266178627
Ge 8.772965720930372 6.042956704075156 6.741993434912522
Ge 8.009100382376028 3.0200318691828754 9.348692302012251
Ge 7.143979663761069 4.078567520923492 6.659543072657547
Ge 10.214692009674549 11.475752011715935 3.6250683475814256
Ge 3.3918793625777037 5.434026299136883 8.200915183259152
Ge 5.712617883182384 4.476087834038815 8.88535152415287
Ge 10.485877622546912 6.167974802751579 4.8850350935110205
Ge 8.603055975366207 7.457576056815549 3.705252365569587
Ge 8.520623730726232 11.511202316171998 5.751263218571466
Ge 4.99314264886235 8.999263424818407 5.317270246280534
Ge 3.079379027368215 7.762726189873401 6.535743342729384
Ge 4.082465259070377 6.987626550391426 10.120887575551349
Ge 10.187724945818845 9.138434350906964 2.545120602924077
Ge 9.858240532863494 5.204582590277891 9.078701026414002
Ge 5.473359394892314 6.921756094747049 7.435486176580263
Ge 10.234262277473137 9.279940454107175 5.2469979214091955
