30
Energy = -120.68106906 eV
Ge 5.074328624100108 3.9531635702390058 3.457096619500557
Ge 10.113594995571964 4.937159324392888 6.168075853922679
Ge 10.194294286288295 6.876609241227491 4.228948661480321
Ge 3.2211825132224425 2.117821313685697 3.747518408653664
Ge 3.492986678670178 3.3914704778074958 5.866342841174902
Ge 11.481426875984969 7.285130162845653 6.591099850328115
Ge 4.0467680113196085 6.043030924499811 2.1536047403213074
Ge 7.982224045862656 6.380848006667374 5.692548080692017
Ge 8.121344520852432 8.623866493229325 3.9411275800803187
Ge 2.3477531201633273 4.608914533302281 3.682653720199812
Ge 5.728811975507564 5.29067489944046 5.558133977073755
Ge 4.374534708281003 4.994924319962271 7.743306606425758
Ge 5.169110191252528 7.327125483672352 4.075639438244615
Ge 10.53522875789426 9.42168490723849 5.191710610947805
Ge 9.381397313092041 6.4037448179309555 8.150814808517376
Ge 9.649028903497873 9.045595632626082 7.685356616381545
Ge 7.888577308623227 4.103342303545908 10.944385624735995
Ge 1.8692431515540746 5.4694837504726275 6.222369311053683
Ge 2.3533659571118384 7.173699839655118 4.204937445478612
Ge 7.015828768290299 5.525943101209593 8.93247088486647
Ge 5.812399716199899 9.580486118572484 5.233275846611548
Ge 9.3518253835482 6.192735429909095 10.75453338225314
Ge 3.9116949715209848 7.328914860097774 6.486685655365997
Ge 6.590849445287447 6.224652677460572 11.566262420144252
Ge 10.123939218844988 8.702551235727755 10.295166499808937
Ge 7.049836809921467 8.329363270076103 7.206112405698574
Ge 8.075401567138975 10.612125002770798 5.86331972664602
Ge 7.78960297403734 8.554663400713276 11.565030430922612
Ge 5.807535682901717 7.957566102742003 9.611957260033096
Ge 7.675565468379885 9.972197171433617 9.449262886305508
