33
Energy = -132.10976232 eV
Ge 11.45302973471715 6.363113991372938 4.9970951973185
Ge 2.510464365652219 9.418814130408691 5.912321516192144
Ge 4.272672149161237 6.501829304690727 9.122430449950892
Ge 4.3023534557653855 8.848839657666222 4.150095489393759
Ge 8.838818095669398 3.9426363975419294 9.190747929122882
Ge 10.110511188558815 5.600406545902208 7.125627953209914
Ge 5.2648013983443125 5.322719852270065 6.581792532225739
Ge 5.644826438421327 8.925321619151704 8.794231348446548
Ge 8.125396295260993 9.984925376749583 11.57728238311676
Ge 9.729091431793398 10.988831409183664 13.146808147884144
Ge 8.01917242354933 3.591523912865465 4.048391718173039
Ge 11.858916687524573 9.586118520641552 12.933914450323655
Ge 10.660026172114629 10.080612232297819 10.71439654507683
Ge 5.896288346622308 7.028430248630927 11.006011816292139
Ge 8.073015537025633 5.592845112962953 10.970109322752403
Ge 8.09498437341518 3.968477417896603 6.627977060119759
Ge 7.01093070841142 6.132964032910611 8.429912972257464
Ge 4.909380777065004 11.393655156932242 4.059837882216684
Ge 9.62845133312148 5.560858650023432 3.3191597844107212
Ge 6.93610097483905 9.61338442260123 4.309911857104546
Ge 9.520083141616869 7.807807438905854 10.06784276032709
Ge 10.844896603627035 5.628912957041877 9.599646106168386
Ge 5.614873410103629 9.602772554244142 11.268288310125536
Ge 6.899712676241505 11.627693862871872 5.88869456897816
Ge 8.037242684598823 8.458330231295715 8.121290441024527
Ge 9.700066942665801 8.235400052637317 12.755147382343283
Ge 9.000583845448636 9.763745200326117 6.128307836308327
Ge 9.009440633579795 7.288840861600929 5.514551295192843
Ge 10.577527431290472 3.8003186227953702 5.141493701252843
Ge 7.034876340867421 5.928776782020995 4.703309093558107
Ge 4.775348292214177 10.438680616399708 6.701132477425076
Ge 4.142203501100938 7.684985642207815 6.794635879234472
Ge 6.181630608873289 7.63015658335419 2.9561453215419857
