36
Energy = -144.9548302 eV
Ge 9.436536121922693 5.7050336350798885 11.020986783342522
Ge 10.0338557482111 7.97519560469788 9.910343836616468
Ge 10.089181627947466 6.583788413390645 5.126773472684039
Ge 9.934761373181203 8.33506645645998 7.165526981388964
Ge 10.238029276471012 7.322072127643526 2.668336946044368
Ge 9.03272532779152 6.05599938396173 8.287127405604137
Ge 7.334468508498122 6.9830159141124195 10.362836505384637
Ge 8.38266156964801 8.465122802817893 3.8472481881149907
Ge 7.820886939476137 9.863667932045473 6.80071334327661
Ge 8.363986212224589 4.462483553713102 4.959110225741899
Ge 7.814225771501573 9.316500223168509 9.60135476093833
Ge 9.469387644211455 3.645660922948217 8.984582899065146
Ge 7.892783019058905 6.549439328015096 1.6466012538251857
Ge 7.990311404896516 4.027576559287388 2.4802000765725962
Ge 6.367198382136547 5.8092223759953665 3.6047769406618713
Ge 6.776518009954664 11.384323848706446 8.717040650217854
Ge 6.367174022476633 6.083934783831737 8.043450422913171
Ge 8.252805030340545 2.307383710340071 6.714078456475305
Ge 6.847969477053079 3.5560335121106013 8.987614477912162
Ge 7.502579775698743 7.0420683891290885 5.810864789129565
Ge 6.1429437075423055 3.9732805888821527 6.400252267919097
Ge 5.970859036639685 1.4835571474265312 7.783110273338242
Ge 4.4949627511020545 10.074749039332962 8.639428556609538
Ge 5.393754725824443 9.047759447140585 6.33752575851478
Ge 3.573858547938986 7.182565273090402 5.542421419393372
Ge 5.584964858307276 3.1163385544423186 2.914852505167234
Ge 3.9109256093274856 0.9641716113870584 6.2675739099062175
Ge 3.549199404955395 11.097044104468848 6.2577742314297105
Ge 4.05528051934683 9.44048284699811 4.175633881621172
Ge 6.079693321808813 1.4502531971640076 4.882325696371833
Ge 3.814371964978824 5.37178518234878 3.6311287435438153
Ge 4.0426813205566505 3.310686684574526 5.254883425091862
Ge 4.188849572649258 7.5621172156120355 8.373451792324659
Ge 1.7616292783536047 9.205537799658595 5.44142608234794
Ge 1.8097637528111343 7.193874499953112 7.434953763230097
Ge 1.9026769892858932 9.788758820116373 8.053300455655922
