31
Energy = -124.47541049 eV
Ge 7.086277547651434 8.685481645031768 3.8140564135337365
Ge 6.969503518893411 2.7222390520385575 6.086527965470448
Ge 11.133393990332554 9.06786773557493 8.665785214211343
Ge 5.249877946573731 2.837121542224031 8.032780135710523
Ge 6.540607704187268 4.922361100026987 4.8641278197284485
Ge 3.9653469538247776 5.585684920993121 10.792466807995009
Ge 4.3544083309597 10.118265521343881 7.097339074534323
Ge 8.19470008471971 6.872877275773305 11.258712133459394
Ge 10.882237883185034 6.726616601870396 7.323189750417722
Ge 5.294616044286819 8.32426440123842 5.555873723392889
Ge 6.879035439077564 8.593048016852455 7.566968531471696
Ge 8.41526349758128 4.233803505944479 11.129458153517774
Ge 12.38411163758828 8.881977404102972 6.277425143676496
Ge 6.0758639523454026 4.304164779832192 10.014039286624042
Ge 10.923265685445731 11.023486731740823 6.885947028884582
Ge 8.279316581129432 6.462926043010173 3.6218752261161122
Ge 6.94371286815284 4.936389502672779 7.522886494420122
Ge 2.6705517526217792 9.438245129923127 8.88600966839495
Ge 4.30317307358669 3.65385966894453 5.711227533682376
Ge 11.153287001799818 7.129060353262313 4.48799404391061
Ge 8.23488895564571 10.949222682474245 3.825843356157465
Ge 6.4505612249451225 11.171082901149157 8.118652344505609
Ge 5.782127741315835 7.27838194126342 10.644774138093641
Ge 8.90049485349964 7.932901986846841 9.062941909414443
Ge 8.943311350804171 7.74710467413585 5.792862456477014
Ge 8.498348010376457 10.44884267999799 6.3226406112299545
Ge 10.509729377156942 9.608804499471182 4.437531097578389
Ge 9.019336396227745 5.335875986680018 8.916182419523963
Ge 3.7417783387763865 7.131367515514406 8.738755695358755
Ge 4.8289713752809895 6.100193704985754 6.6333196365749725
Ge 5.099416303662371 9.581799471653092 9.79346633957974
