39
Energy = -157.09117349 eV
Ge 11.581432527384393 1.870668547124969 4.074004637279183
Ge 9.193267128080294 2.3191150713087136 2.3418360258606876
Ge 5.293194583766589 9.4730949933991 2.510485755192721
Ge 9.718662602563715 0.11605366430945785 3.529862468186021
Ge 9.933846523106556 8.57437986384128 3.266424245426511
Ge 10.215854248196896 3.9560805741054894 3.978913117402642
Ge 4.163649385321086 7.615900107531962 3.9080365823317282
Ge 4.567942195120896 5.140850999283329 4.202923111670775
Ge 7.422138287263902 8.253329187378563 3.1092814119365046
Ge 9.76279132088704 6.350985933746791 4.648326659868321
Ge 3.010669496505002 5.256245092207427 6.21174221359819
Ge 7.0556698705614735 3.5567158373780883 3.7013664713310694
Ge 5.930565314724205 10.276626086895261 4.817710552187424
Ge 9.098698757947663 1.8814331055808937 5.183101621677159
Ge 0.833407460263796 6.304783604562609 5.406838061493914
Ge 2.117223192710414 8.62459185996293 5.157567204157374
Ge 8.948768678672993 9.751494253430588 5.317271121412755
Ge 7.58344868455576 11.79463213971407 5.964859213164297
Ge 7.031654941394152 6.066995505618645 4.301618591090586
Ge 2.2927577062985582 9.816299523259971 7.465642431538002
Ge 7.574893706707398 6.485792061082587 6.748696077628331
Ge 5.367592072451996 7.052170558400605 8.223677859596728
Ge 7.154966906738455 3.2495095720809615 6.262382434015365
Ge 1.4328000882490166 7.354729642447806 7.605982490011101
Ge 3.2712799493308977 3.303207611861535 7.7938705769145455
Ge 9.056882773537714 8.421905642184104 7.437266319315262
Ge 10.402154490511679 6.25631728289044 7.105306771370115
Ge 7.17461346468865 10.434279138450568 8.151280195836506
Ge 4.589179428486959 8.743716379156544 6.335385349073614
Ge 5.466813503695486 1.97654922924304 7.72594164594821
Ge 4.708925157897351 9.824094929310405 8.771295448974703
Ge 8.712475269740851 4.425930951737177 7.933045066021214
Ge 3.149848831891495 6.003104839600645 8.956648498915326
Ge 5.265977941365529 3.5339722184400784 9.681465073427804
Ge 8.713033279251391 9.400900069389996 9.807919046374488
Ge 6.983180739465802 5.385661768689988 9.539733966526935
Ge 2.7876769561446273 3.825939584157557 10.274642716797905
Ge 6.742251597502619 7.751173742408794 10.470127553729279
Ge 4.154832387019508 8.035790277829445 10.542542862718792
