33
Energy = -132.80241163 eV
Ge 12.665875078469155 5.774583597604849 5.763792148404449
Ge 11.329932173752928 7.994118045199154 6.024984217050666
Ge 10.742961596385594 4.0306165126614975 6.434852982892113
Ge 10.5405362741194 5.966926166681003 4.214150240278867
Ge 11.711916087950035 6.090394385067014 8.18498203077325
Ge 8.784247262140436 7.852833922300082 4.64183884500031
Ge 9.884798439319365 8.067412600572252 8.415001928340972
Ge 8.438926807967466 5.325754226638837 5.661057902623122
Ge 8.535347336858765 9.881344703853667 6.4517656491917315
Ge 9.172883684843294 5.379786508949485 8.143809089830416
Ge 7.9311818840226485 4.093881954002212 10.03802001391279
Ge 7.441374246108973 7.475630168333125 7.129284920575516
Ge 6.647693914016406 7.5781666965402765 3.092151446007085
Ge 7.284953883131072 10.34238040410465 8.739664007242641
Ge 8.334950295925902 6.81393316426164 10.471028296942311
Ge 7.189037953548376 2.791523410101706 7.59504341407943
Ge 5.478536077837145 12.071023600406305 8.045533789701505
Ge 6.90840266821117 3.4014122759434113 5.022696557519945
Ge 6.058317751077802 10.574416939040956 6.132672317228875
Ge 5.159067040962768 9.519361541344667 3.861010615675248
Ge 5.388883035501737 3.484012833410919 9.416716771920598
Ge 6.159596257807526 7.905944652379028 9.251608591829656
Ge 4.382979631587494 9.785738336147393 8.564903166747785
Ge 5.105471657879308 4.489905772398806 6.579485574386962
Ge 5.490144918067457 7.242879708982934 5.453905183310199
Ge 5.846960546614823 5.694350942929509 10.856266356595915
Ge 2.522480425679978 4.2611970429389014 6.1848937914649635
Ge 4.5217982973596005 5.91672532024236 8.526903960901738
Ge 5.24407730733428 5.295489612970846 3.7178324713309094
Ge 3.499349491186672 8.632947667899824 6.394171884036202
Ge 2.2933170655415247 6.504132331662342 7.449811693467022
Ge 2.9548619215049907 6.210956327242671 4.622307462110232
Ge 2.629874864191746 8.78807379530855 4.023977835923208
