32
Energy = -128.32123766 eV
Ge 5.79970280665677 3.729793421328848 11.413088095146357
Ge 8.329016271741416 7.060788262934457 10.310117183504577
Ge 5.678128033763851 6.208550133164971 10.925081006240015
Ge 7.995527181319835 4.460144056279487 10.348914150638228
Ge 5.539202012431495 3.953732616626265 8.87599680880627
Ge 10.081771827301448 5.8384605655927455 7.406345502318004
Ge 10.606292891373927 7.5993459675611446 9.237892755415489
Ge 6.504511418127971 8.713531720737691 11.190585443095388
Ge 8.208050916503057 4.014873648814188 7.752656642452526
Ge 10.494930121037168 5.556040092519137 4.997675209124742
Ge 3.237969534639021 4.61453182660563 7.7663963759196
Ge 8.96671401488738 3.4598540683202366 5.156909977389719
Ge 4.612724931614891 6.652492604999727 8.470646694098921
Ge 7.100963076846938 6.3985755998368745 7.939182381733025
Ge 4.2795389618404585 5.630306570934718 5.661920966309793
Ge 9.560197556038265 7.945639425973798 5.488269144041323
Ge 6.886653710062912 5.026507379974018 5.3024939948743866
Ge 6.7293957296641 10.099369629750163 8.852517445046944
Ge 4.338065579095613 8.962134804246432 9.466268019428712
Ge 8.614153009044701 8.558454532806035 7.949525344715698
Ge 4.8570659792995325 3.4584657937905576 4.324693138918259
Ge 4.798289960220491 8.165167680033095 5.4887777832093185
Ge 7.160373563672169 3.158223282914829 3.184330378802674
Ge 7.265769896936113 7.433885993123103 4.442804545176406
Ge 4.636435924968682 10.248830478297277 7.141369514372758
Ge 6.401156322655192 5.532506774308042 2.5462871449350306
Ge 6.875009548831711 9.924677222772837 5.889085598881021
Ge 3.5485089955425453 5.556696598621393 3.0061563006451872
Ge 3.2063565465986277 8.260158559216107 3.4262388374080293
Ge 7.457027367470068 7.914649395164263 1.9050590551046942
Ge 4.801623742361756 7.307941325526625 1.4554355321354333
Ge 5.619302673415452 9.36923650263126 3.129639976374409
