39
Energy = -156.95167569 eV
Ge 3.26308743402695 2.5216612882817464 0.5380484109518677
Ge 3.7883561065230005 5.652417784224028 0.04733747603807153
Ge 5.310398196596567 7.905883383252922 0.7363126109755868
Ge 2.734471385948179 7.329237914406906 1.7588410503180256
Ge 5.898755619593671 2.5358830246597797 0.7840181573016525
Ge 4.754172516644771 9.533048363974947 1.1997844863922222
Ge 2.9279732172796344 4.612070237222924 2.405427387972742
Ge 6.418206353785059 5.396472262040714 0.6984786333586465
Ge 2.403970685248459 0.7576388217629957 2.3510139012359845
Ge 4.799492548175125 7.83537081521088 3.3662997869523696
Ge 5.364829705735933 5.2931371001916405 3.1443289934900314
Ge 6.886203122729054 0.8158175234522833 2.5977041415918656
Ge 7.238171862519125 7.168353793465615 2.5078694201315996
Ge 4.544913962981577 2.365761420658785 3.0697381912034323
Ge 8.289696791148966 2.230431326382667 4.401579161262388
Ge 4.412278349830838 9.3058781286748 3.857548367895827
Ge 0.9048066141468502 6.05783102949554 3.3766232869296626
Ge 2.4041214039470176 7.058795321629957 5.1995546157479025
Ge 5.79842076383741 7.692856849610239 6.090685263140746
Ge 6.0935424170296955 1.3454289955161334 5.485551212972703
Ge 8.339189229099205 4.915699478834523 3.7778346303223054
Ge 3.727391248854529 9.305878128674799 5.188214502008215
Ge 1.560672402194651 1.0261080396222952 4.822631790866906
Ge 3.0659012220391584 3.1493957548582774 5.789493931398428
Ge 0.7289863040736961 3.544110762473951 4.551426834431787
Ge 8.332756602836774 7.774019506920721 6.439929114709322
Ge 6.3328823648795 3.9629502993929266 5.195718500775161
Ge 2.084232391223756 6.630403020751929 7.829193271082296
Ge 4.29886782624333 5.522395620922135 6.173902621930832
Ge 3.550823848999004 0.7464691563523587 6.653150706985471
Ge 4.039315128021753 8.740101182898957 7.823557406057204
Ge 0.9277456242891855 4.278262102371889 6.999565674060655
Ge 2.145880112784307 2.3689257941752033 8.246803937646945
Ge 8.608862285407444 5.044022649430485 6.361791708752909
Ge 3.5249462484526455 4.570134999711746 8.514497273917447
Ge 6.822192101796855 8.82842907700862 8.463341739513028
Ge 6.37836488481541 4.2678755965838295 7.96795106582638
Ge 5.345967447596255 6.675760346328543 8.941289872793266
Ge 7.999019581077457 6.36721425816017 8.69282677346994
