33
Energy = -130.43366856 eV
Ge 5.089593670324569 4.635421047315241 10.253554202492628
Ge 6.979989192015749 2.3970447091445037 7.046885069099266
Ge 5.798928147253724 11.204996315180136 6.202733422927296
Ge 11.467652788319818 7.850404587125183 7.480325155838871
Ge 6.6140189936638825 4.62469553757091 12.427909331557121
Ge 7.845849124153931 11.940480431048357 4.679102849082156
Ge 5.881963204726991 6.738962004238462 6.841064425621351
Ge 10.008754337299457 11.056434703113606 10.112612330043323
Ge 11.098214572958007 7.629052914225393 4.494235940472967
Ge 6.269999288483979 9.289670762202572 8.401983837027627
Ge 8.154507747128488 7.834336911628808 11.88846372167498
Ge 8.175010471973922 7.453812979247577 8.405472608807578
Ge 6.387066976474839 6.909474426029795 13.70689309131784
Ge 3.4378937057742385 6.959667839945376 10.076653699610077
Ge 8.705924794445215 8.658176563787444 4.326119516176719
Ge 10.146293930633371 8.495729341671703 9.912284665444018
Ge 6.6989413076215705 4.676563346293611 8.14763376869677
Ge 5.684447463534001 7.043864202142034 11.291121393897424
Ge 3.9559879825758606 8.248360973893607 7.805731967398675
Ge 5.9984305722767255 9.161146644761144 4.32128974764767
Ge 5.537229542692305 11.446190602750345 3.39435226242016
Ge 6.426304191034138 6.673704010955247 4.339716545159436
Ge 9.478687996767864 6.419547795305452 6.488404559338389
Ge 8.035639095617954 9.806537015356183 6.450101332738175
Ge 10.161280411127212 10.358319634150934 7.659833258567242
Ge 7.7181134168743615 9.997947399214128 10.53292377491671
Ge 9.174738252516224 3.9262208848939815 7.1885504201212465
Ge 9.241475321100594 1.626391103104851 6.481107820415685
Ge 11.826090281681232 9.75439594566466 5.807454891460339
Ge 8.917328857451256 5.9165292342742966 4.057563872739981
Ge 7.770461859267952 10.320506595784547 2.5258169574626437
Ge 3.8017303020606024 5.470486293466733 7.936563152765121
Ge 7.858640553060182 5.628896348276991 10.383237637539874
