30
Energy = -121.33466866 eV
Ge 5.744224765263472 9.932565024442724 7.839063938519329
Ge 4.192286797821825 9.290888515665415 10.825581051426276
Ge 4.081868270479444 10.75598556193751 6.087250586841013
Ge 9.770874374593628 10.107684558389288 8.060783070973402
Ge 8.818703159008322 7.963001708622021 4.178234002131323
Ge 6.768051477112159 9.05569389043981 10.211981502451229
Ge 7.9707430360934275 8.881184045764204 6.550044104830512
Ge 3.5178967977058577 8.39088112176225 6.746506989548117
Ge 3.2286426601464218 6.898639561459334 10.941820109183823
Ge 5.7273816414905365 7.17857942678769 11.606010109967578
Ge 11.196072585195697 8.183623607255551 9.414827309654822
Ge 5.668967786477457 9.034241598606108 5.007107683523903
Ge 6.823598646938152 5.98801933073714 9.485441775117216
Ge 10.26138076035803 9.916239273337029 5.414249445562355
Ge 4.7321129545154035 7.369592261146292 8.897803151489729
Ge 12.032619181783918 8.794324428996278 7.012835408723288
Ge 11.169688834711874 6.166353617238096 7.567299054784824
Ge 4.885093844554679 6.513870130665272 5.38095103403821
Ge 6.734733796001618 5.036979893085026 6.28371569070268
Ge 8.941026146302166 6.337194310415792 6.247826253457341
Ge 5.793568886241125 2.684493885807854 6.783390514960497
Ge 3.618027793947456 5.038704730622835 3.6744747885314792
Ge 8.825981379128512 7.509060199840829 8.64155064789293
Ge 11.291508046079075 7.2249908304825565 5.058672671538126
Ge 6.485799529955244 5.569711075916345 3.4370278829757224
Ge 3.7304413075798437 4.440393183132328 6.6682978507355966
Ge 5.394575087585265 3.314627712224099 2.6441176115486598
Ge 7.4869296124677955 3.3389788869845853 4.4567854347607385
Ge 3.8635527019473614 2.6895355479289424 4.871736226391597
Ge 5.966952994991539 1.2464978117896985 4.465044837627682
