35
Energy = -138.60815434 eV
Ge 11.568292856248355 8.110785181807042 11.067821341096835
Ge 9.27033273465999 3.4582624119311043 9.114959835046568
Ge 10.518543666367682 6.970813694448843 1.7657730607117426
Ge 11.925242218045423 7.295053959991579 8.498287320214617
Ge 8.476401731767364 8.005967728746265 5.380464801851894
Ge 7.280879709914309 13.558145252377189 6.309736865951316
Ge 5.992837244090374 7.538588194133485 12.835012579938763
Ge 9.830072834130615 6.1431758281082445 3.9270449703487222
Ge 8.32050224986401 5.3860068066530955 7.420976379934428
Ge 5.100857710246048 8.973810576492166 7.242413149790603
Ge 3.6905026469682203 7.931571585540844 11.748943194113435
Ge 7.357894225991606 6.495301597980133 10.735771981634679
Ge 8.663091232281346 13.904189625342086 8.394064518699409
Ge 6.104916084212247 7.133959816526836 5.687640434034193
Ge 5.054805013840769 10.087394808086747 12.081470325083819
Ge 9.118865059492586 11.553170421657498 9.17612016935874
Ge 6.757667554987704 11.941938785214408 8.294627985676081
Ge 6.705780344345926 4.320134036622812 9.163326178684338
Ge 3.815446317459258 7.790950682324401 4.994557732767157
Ge 9.361656152315737 7.948165459065453 9.405718148651793
Ge 7.325466174705548 10.139195276889867 6.409932997518096
Ge 5.494229635635587 8.242123886884153 10.01838744409208
Ge 10.562399657863022 6.102218167237953 6.432524518284769
Ge 7.747126780423758 2.5519418586934424 6.971208206079221
Ge 9.269101111759324 11.882606795478239 6.635430560114323
Ge 8.23462506048574 4.117453609951278 4.898223940616063
Ge 7.341206757026114 9.373965957942039 11.510538007450068
Ge 9.692162941227231 6.580454914146356 11.962902538340426
Ge 8.983778788081304 8.503339419500778 2.9396112375066603
Ge 10.79444894119634 5.565802192858935 9.908944326604301
Ge 3.46055077691957 10.246151022004822 5.83476471952533
Ge 5.97425060472239 4.5656333075535755 6.44842042778077
Ge 5.63879321465484 9.742778819737676 4.472053574122806
Ge 9.788551392579627 10.096249483389833 11.151126770814512
Ge 10.293929905460901 3.4294872955485696 6.609588136404522
