39
Energy = -156.06028699 eV
Ge 2.1938973792365934 3.0409820151997207 0.16269859366759373
Ge 7.718258351443561 7.30610128850104 4.858566554180651
Ge 2.5307921406894707 5.959129256444063 0.7814899282673424
Ge 3.9035337339352933 1.7131244604480078 4.171224199452182
Ge 3.7414849543896085 9.37008021497594 4.6583114598363595
Ge 1.2110500538271871 4.162996681910926 2.6060188031768052
Ge 5.026470954733473 7.10905209704959 0.08021583957374405
Ge 4.611126953308823 4.574995660397075 9.39973056245902
Ge 7.34637287701313 9.37008021497594 5.76974145180659
Ge 5.399890176880976 7.7631990376899145 8.64200208691299
Ge 1.3961667243512383 8.980405179495245 5.743079582554753
Ge 5.9793409773201995 8.882718208982634 6.2150638994641225
Ge 6.776487381773629 2.107348584220727 6.527587653430991
Ge 5.710754750641762 4.93793809228405 8.205025834122203
Ge 4.50231523438292 2.583677842221858 1.3569291284942018
Ge 3.239366313205215 6.148148616383835 8.806454407152643
Ge 8.346061982525741 1.5213601643443655 4.422195964659219
Ge 7.02431027561881 2.0961594288736305 2.0801021681121465
Ge 7.633030273630549 7.053866058473586 7.64333073276535
Ge 1.9572505893402716 6.817797636231993 4.36932986112739
Ge 4.554360442064894 1.8970191981764568 7.935018528487026
Ge 3.7526219796749927 7.723728289167631 2.4845238649883594
Ge 3.0561143537693143 3.9023020216533904 7.341460594685676
Ge 6.920605147649898 5.18045313359954 0.8619035962922531
Ge 8.388194766236557 4.7799245366441525 4.245378144232681
Ge 0.7624196874611112 2.3988346497237703 4.570675708120921
Ge 3.6914656276841877 7.32002011048272 6.351544898364671
Ge 2.007304141642037 1.5834430767735168 2.2592977981976543
Ge 0.6896693675832932 4.287964653088813 6.41241888537597
Ge 8.02412791040058 4.5421604674591585 6.804591491800102
Ge 6.1415094389708 3.2067409766884554 4.257678426887733
Ge 6.378496300257839 7.087450668276851 2.5236701326078523
Ge 4.7573375828335 9.784678673766553 6.057088562993847
Ge 5.8200755794718235 5.584198389691703 5.486206268165849
Ge 4.568244040117387 5.10026352122521 2.3826646847856887
Ge 1.1529632395917193 6.847556054516712 7.231400469188162
Ge 6.093113062229563 0.04215702110727698 3.521800755007335
Ge 2.9188867499463873 4.319896407741682 4.700722654357354
Ge 2.4750969148713717 1.1086592584332364 6.371445953258358
