38
Energy = -152.52327096 eV
Ge 5.629287781811446 1.5289840202300071 8.285887329672128
Ge 2.861880293826357 1.9819333557441 8.412741931565545
Ge 3.7040504442303597 9.517731673847493 7.1083279768072964
Ge 2.4747388600800595 4.275161940367603 6.774476486827015
Ge 4.3477320295122945 4.294259027183635 8.767426769202038
Ge 6.194332451425342 9.652875929998618 6.198576807153772
Ge 0.13464352885192124 5.2046210535752735 5.091713520022092
Ge 5.660150685070692 7.1805973309962114 7.688166632926188
Ge 3.009461485655362 6.591153760890448 8.177681772511185
Ge 2.1596444933232815 1.5922771318787383 5.57631623876292
Ge 6.9667593748017795 4.15499278332404 7.762900671345166
Ge 4.712929471811037 2.1134051441615953 5.948652861544563
Ge 0.7902506936664869 7.662313245359511 4.262727125479138
Ge 4.071402337265756 9.752363150845948 4.384756686628647
Ge 3.253232588254779 7.340941019438068 5.564010508599558
Ge 2.452743396598508 5.573153805301563 3.6643173443093713
Ge 4.824189232943743 5.163190578952002 6.237452656684622
Ge 9.567537842182736 5.917461669504739 2.4364491070919216
Ge 5.627577897669935 9.16938381058817 5.886344937400383
Ge 0.8460051038354228 3.471680015500692 3.2159758162003715
Ge 6.508233201557067 1.2561590414573451 3.842813292348482
Ge 4.7292219812539305 8.183314293294695 3.389953661860828
Ge 5.2888463362237115 4.006415917975105 3.7750763207415905
Ge 8.314080080707347 8.550508963838801 6.284375123759033
Ge 6.592668532190151 6.776637149162482 4.659209751113459
Ge 7.426629499166485 3.461213793361683 5.261348764098637
Ge 1.8987641647465832 7.504424623178847 1.8443449779657022
Ge 6.3044679654654106 2.7383415578275043 1.4165180548992822
Ge 7.218056466731112 9.438095629047824 3.8393126481113193
Ge 3.4905293656975234 2.344892945896265 2.9217664270937798
Ge 8.575352000273972 5.90810253485452 6.195738540934686
Ge 1.9094224214797586 4.919796877574775 1.1014447278592108
Ge 4.933612613143071 5.316127218269332 1.5605149834782814
Ge 7.656376810280236 4.689909002679301 2.310265656665224
Ge 7.144313934055871 7.267682739549713 1.9703545001868403
Ge 9.190422026623713 7.411071525537247 3.8749992579007078
Ge 3.8541953676406924 3.104576908536471 0.38515071986733923
Ge 9.567537842182738 4.586242735137815 4.111651934504153
