34
Energy = -137.66874436 eV
Ge 8.843522243179432 8.283233936833104 2.9777718181423523
Ge 7.58513174855281 10.107632868520588 1.623682197875071
Ge 7.228184988050391 11.174411449798841 6.031043312219582
Ge 7.822879481598477 5.954920213854949 2.516731944596257
Ge 10.60186781804319 3.0859346545859383 6.231247064687319
Ge 10.572600726446474 4.374462429585701 8.498243412431629
Ge 7.990445579186466 8.314872742363836 5.415189195845525
Ge 9.58453263179494 5.73789988661182 6.425409650961023
Ge 6.377675832635611 9.970872068743276 3.8498177531201634
Ge 8.60410021465949 9.513927078951617 7.560931508056189
Ge 9.450914717963213 2.027376267281926 8.718369875813613
Ge 8.080366549617446 1.9357261433764938 6.532877991986865
Ge 8.643113860330413 3.89256452521605 4.6111713642280625
Ge 7.212969345182822 9.89518495911726 9.933187106293182
Ge 6.9086044152128725 2.9828479649574726 8.74676171652541
Ge 6.311376406423042 7.849745485730927 1.6269725981665741
Ge 8.188904930368313 5.252544077979244 8.944521229354784
Ge 5.646337605447745 10.127600318033176 7.6814943469163435
Ge 6.794831163015353 7.49839734136363 8.719389698523084
Ge 6.231482346327686 6.871111427652723 4.338051844642195
Ge 7.098646168434876 4.636814078375648 6.61209430249093
Ge 4.599560459219962 7.738065912762979 7.252127276302364
Ge 4.516758291227874 6.352712901139434 9.675404610282103
Ge 5.698574553878915 8.134673373603817 11.254343828212267
Ge 4.689774373317557 10.677883994498567 10.228959922417173
Ge 4.791925759223391 4.489368506770547 5.5284315575063125
Ge 4.377751463168257 8.54046007145792 3.221062425757578
Ge 6.095842237636902 0.5330650471967467 5.5972352562306655
Ge 4.942492263559344 2.354687495378196 6.9570998077886665
Ge 6.174621976567854 2.720174253564827 4.2661561943519795
Ge 3.5517666700358923 6.752358440536675 5.131554036563208
Ge 2.3401032198533547 7.364800369156857 8.514124146505084
Ge 3.1526565799371147 8.625727140381608 10.743167857142133
Ge 3.066121900556817 9.895528432178281 8.20917562210262
