30
Energy = -121.11351772 eV
Ge 8.216432782805324 5.0422714131347455 10.982657529054256
Ge 8.460757588611381 7.331630370012462 11.952470072943948
Ge 7.579727115801127 3.201102480464189 9.300118063700294
Ge 4.372022759261326 6.121256318130719 10.699516783542036
Ge 6.2094585009290215 7.8423873405092275 10.941515648566813
Ge 3.726233657999645 5.776199490338767 7.69417264407749
Ge 12.02996346900625 4.587470752691324 7.655953901963294
Ge 10.392106455435854 5.154087708192433 9.544032861353921
Ge 2.2258529517201695 6.93258927471576 9.503014978127991
Ge 5.988767239460957 5.120999072117298 8.946040286608984
Ge 6.055418563692178 9.880575024863354 9.58184510972938
Ge 9.428675716656455 7.6911671400542305 9.467109785498863
Ge 11.949348813789802 7.228567663635681 8.695635364742646
Ge 4.094837447191186 8.378411498753382 8.808965715785487
Ge 9.4685301734809 3.719591342104183 7.373781234685017
Ge 8.144898174471953 6.080151370734321 7.909256151574607
Ge 8.250430339652617 9.982029007195251 8.187030958462918
Ge 11.795776704142595 6.666688401919754 6.095706366072348
Ge 9.352221600612035 5.641600199980305 5.625235735858326
Ge 4.857109793231902 7.573357114603115 6.217203867175893
Ge 6.7459846655909 9.401925948101502 6.22437412055862
Ge 9.861909218785927 8.216123005415923 6.702936864763864
Ge 6.944277768509533 6.638437830908914 5.041723469635635
Ge 3.9014007353091444 7.638995932463941 3.7644201090349876
Ge 4.383813210285737 10.145851836830525 5.245726700357685
Ge 6.307685387896362 7.25470833598369 2.620985415597812
Ge 8.298120092627451 8.732070717946202 4.234414076443344
Ge 6.7860970878625855 11.068897650243967 4.206240103865352
Ge 5.012501910908591 9.687994840782062 2.715136638667121
Ge 7.495724034868765 9.507521988913645 1.888617851292736
