32
Energy = -128.22706521 eV
Ge 8.406724193545195 7.616896771665501 12.493436832736817
Ge 5.637665417566602 7.2474978155870335 12.738602481987321
Ge 6.770692364593039 9.615209654390492 12.081994315383664
Ge 9.648497574680832 6.876857157322709 10.28459425660978
Ge 8.863593880257515 9.393701910552586 10.436083985346729
Ge 6.814679502725376 6.154347085975788 10.729066488591645
Ge 7.246002771259645 8.117280541444623 8.87527502243622
Ge 4.067675322454089 5.914380766718674 10.676967018795967
Ge 7.7193515121299745 9.35730413353423 6.54382693658449
Ge 12.216956601885101 5.542576793431614 4.9938514350894865
Ge 4.108325076757617 6.242730874702188 8.05441088631837
Ge 12.239385727077726 6.31072112986553 7.604956016335769
Ge 5.721025255609041 10.63983395328822 8.296927553673488
Ge 10.310427003389856 8.466352143555682 7.418401729179603
Ge 12.164417174408147 8.178890804310896 5.555090477292038
Ge 7.083868597076407 11.876734985189051 6.298817827145656
Ge 5.027140055618031 8.389796333748833 10.28022569309369
Ge 4.3230110416789 11.36932135794861 6.165944438249171
Ge 11.026063405148232 3.9837260467816824 7.099893830183145
Ge 5.656140806257679 4.241091137012668 9.11809136585344
Ge 6.720262533510538 5.952951313794386 7.36659457647211
Ge 8.342845350147634 4.567687899031285 9.173688954510066
Ge 9.485301966861002 6.06224167233491 7.15452104294291
Ge 6.307006165552647 7.910786980390419 4.830288213686834
Ge 6.086678796917312 10.712327188204751 4.269377912474
Ge 4.737296325929362 8.546215704320483 6.8781740713693145
Ge 3.7136293282709247 9.245618534567026 4.58492891904887
Ge 6.253826924941496 5.375649775187618 4.924272903839951
Ge 9.954304732741017 7.232454389131249 4.677782696613826
Ge 5.512991316515261 8.972675292397966 2.617592899348459
Ge 9.777927036455042 4.536524892387339 4.888479044592497
Ge 8.264359768668825 5.873936450965334 3.289100647973976
