30
Energy = -119.1672071 eV
Ge 5.8859189510163406 4.70537513302444 1.9060643636842842
Ge 8.47722974034923 7.703319276632212 3.6237302544392653
Ge 7.895078858370506 5.15574545156074 3.3748771322776814
Ge 3.6067908853279924 6.259483681853186 2.1531588860889825
Ge 4.564142155982007 4.591308120367172 4.16397719438184
Ge 8.183050056175976 2.7162093703930177 2.502119797393127
Ge 5.562456324408982 2.229880111348674 3.1595537720582687
Ge 1.9807063808405438 5.409826838903985 3.951361772601598
Ge 6.687155048620483 9.537775346687212 3.521774226685719
Ge 6.443099116922944 7.700558014094179 5.492466074869495
Ge 0.32414964180799616 3.4820600864252738 4.467210613464712
Ge 10.363087199240042 6.157761553652924 4.008116867724846
Ge 4.553631296716 7.995526569714161 3.7257318704444584
Ge 2.7661472194026713 2.678703714594725 4.422803716118275
Ge 7.91283624047036 2.65340558561877 5.073395316267844
Ge 5.825986041407592 10.258741755507703 6.063641892395315
Ge 3.533776814528087 2.473976388174688 6.858873189358056
Ge 2.387080267722393 6.114030107802002 6.390016361973321
Ge 3.607206510183283 8.429584328571883 6.07990750980521
Ge 4.598384512730028 9.166385102290846 8.4454158094927
Ge 8.822506428574421 4.981575648203971 5.797545108675404
Ge 4.95093772801147 4.8940283267081695 6.658365380010768
Ge 6.0825263608460505 0.8982982424166325 5.349344350949501
Ge 7.092217409983097 6.067680263890045 7.352470073566622
Ge 1.3367777464020572 3.8049992686562115 6.828950568296773
Ge 4.954708683782414 0.5632035449916704 7.621485334452639
Ge 3.8897570250990317 6.557955990711055 8.47039201634234
Ge 6.362485109062623 2.747237207689099 7.426303544018147
Ge 7.24618926317125 9.016579837029775 7.83200713454712
Ge 6.341641792822643 7.2864459424652965 9.516600677595203
