36
Energy = -144.65013014 eV
Ge 6.717745814266714 9.371684118056752 1.368726005092593
Ge 6.689917764295443 5.198036376420442 5.038698970531005
Ge 2.632408391850258 7.7963707280735415 2.1489602561968377
Ge 2.266351056198997 3.60007290552846 5.645085022636862
Ge 4.414841483965691 9.835438246761143 2.611050516228363
Ge 5.541690026491583 7.079610521105414 1.5777508483629625
Ge 6.131216298465902 7.354184525894222 7.291867925870765
Ge 3.7092810241520957 4.978771428889185 9.651192253332061
Ge 3.7585290113391614 1.8456832857075625 1.7886780509781093
Ge 5.151564290280971 4.0489186533792045 1.0977024934083157
Ge 1.5369821040684695 7.007773146894582 4.258608540037873
Ge 4.44283548694596 1.8950477453248862 4.2327969019878235
Ge 8.172524415767768 7.448477111069267 2.418260936683877
Ge 7.3063952729033375 3.5858234634490493 8.758660566995609
Ge 2.85403429204286 5.276550829395308 1.160493853695488
Ge 3.8098141502870835 4.307693994099461 3.4559291346485836
Ge 6.935185406842727 2.2733290645316013 4.451919335449949
Ge 0.9164432779898083 4.501049833995753 3.7637491160965326
Ge 8.764739045708556 3.8644618733972624 5.714567329857477
Ge 2.3651938126565835 5.3547983518670685 7.431180037822495
Ge 7.17213383485471 4.935621871116894 2.4132091100372004
Ge 5.331855552346476 2.6848302125879053 10.271280263370873
Ge 4.96961208016408 4.926565129739998 7.034147048182354
Ge 6.220989482974228 5.826297576589726 9.373211589018743
Ge 3.072602124899615 1.2935877989173952 6.359955012493624
Ge 7.4409903361566325 1.3428588655478657 6.732825653941577
Ge 8.925486838784606 3.1290193100059507 3.1475418158950808
Ge 4.359573864802398 6.87656251323863 3.989220387641805
Ge 6.322008582126868 8.71323115426682 3.9208721855998494
Ge 3.0866360790248306 2.371494471374291 9.167491361526421
Ge 9.424263411298769 2.5294505481678273 7.8401982907053975
Ge 1.508689384589776 3.1456291811324526 1.6138165224006806
Ge 5.220220422760697 2.3697403955574274 7.553783325775336
Ge 1.2796587812793623 7.653330643501851 6.782078289049443
Ge 8.003044313996327 7.439255396743419 5.508361108398469
Ge 3.7729249010821158 7.586681309853648 6.37653762743318
