32
Energy = -126.84506245 eV
Ge 11.830988521895348 3.17874736202913 9.050843363206749
Ge 9.522641961956369 9.355610544540818 8.27875636417051
Ge 7.428444523839025 7.273584445388108 13.287387760373521
Ge 9.497399160170565 3.1900934071320055 8.144691868048657
Ge 9.256242174206873 4.734978120975742 5.8581725032090395
Ge 9.147982997322606 7.221231224237623 5.16003230791047
Ge 7.849886588971342 12.735803082235382 6.797587977577673
Ge 10.580324612585683 7.127556642287114 7.347579151523003
Ge 10.43572247736241 11.003417548111745 10.145856499690657
Ge 6.5788687350645985 9.337985763034808 8.25087531344227
Ge 4.491936477338489 11.073721672676601 4.751627828743004
Ge 10.464350082374148 5.437025057923914 9.396563383355694
Ge 7.743546353996043 2.7384862196756985 6.211581592758813
Ge 4.767814095532873 6.092098459253834 7.29973898287795
Ge 11.633424717994265 4.565465051254191 6.896072461043055
Ge 8.386662262720877 12.968548474128273 9.453792343888537
Ge 7.853494634725607 5.23359839690836 9.144412355597954
Ge 6.5919716997356606 10.494229984985974 6.074070026151059
Ge 10.077626673210716 12.703716704856763 5.413524538562872
Ge 5.493725483523511 4.040466129626116 5.836330323551932
Ge 5.832592106864426 3.8055428152658632 8.430385835183229
Ge 3.137182607245081 9.292664004360326 3.683748004042693
Ge 6.668997829418046 6.367064671347202 11.114519716578974
Ge 9.152240303521335 10.31163979576119 5.811616946897404
Ge 7.7954972170325405 10.602530909544386 10.09046526546755
Ge 5.056777475153304 8.196222795110312 9.876877016360453
Ge 10.276474928016274 12.044266909291728 7.828247157850987
Ge 6.558827408104312 6.45991853681935 5.261319276361338
Ge 6.587574883669351 8.999732473351525 11.716429281698117
Ge 5.096571013507993 8.521451495268922 4.803056743495947
Ge 4.383218360188015 5.6487675553615695 9.912674974553964
Ge 7.682975995585063 7.163073958253542 7.524700381214777
