38
Energy = -153.04764445 eV
Ge 0.3182544175627339 2.683831208463732 0.09850029992163085
Ge 4.491259450831662 3.0114575786336064 0.5766654321448644
Ge 2.408725688798916 4.3829182286839075 9.818225087843674
Ge 2.5223399058799654 1.2886072585017778 0.04267728236105683
Ge 4.258763902509705 6.655430260822319 9.787036365952074
Ge 6.98698970864688 3.04864707294057 1.5637637091083034
Ge 3.6617285774261474 0.836068293184553 2.2440328563318412
Ge 6.540192545258973 6.485777401672942 1.1902514523470231
Ge 0.9097225285658838 4.640378826267204 2.0530249610679876
Ge 2.406350045649372 7.787885586307241 1.4381697232779864
Ge 8.846803332638528 3.109871296120392 2.3236528144344435
Ge 6.312256285227023 0.6230351700078889 2.3541918607948196
Ge 4.918709207379411 8.797997866765291 1.3730741850524493
Ge 5.986657028030972 2.686064067441371 4.07261834656835
Ge 7.931705687041391 4.3432827212938765 3.8464453632466657
Ge 1.0831591755816092 1.8314860296628563 2.8781814367033323
Ge 3.230430897438831 3.5805878194415626 2.7106015415971156
Ge 6.013635857962762 7.661151582123358 3.513384179558156
Ge 3.520468650973816 8.397782249059784 3.763247269959397
Ge 4.2110444342395725 6.105231404434427 2.4197003699540525
Ge 8.425993560160874 2.2301870876670877 5.235438237160388
Ge 0.7323954844464046 6.205012189195126 4.221205646797776
Ge 6.844080263190276 0.11986272616137514 4.816735057593666
Ge 2.5157867092259543 4.407966011902714 5.081265711746463
Ge 9.794035760303961 3.792989728543924 4.776434618007242
Ge 4.269734011722877 0.9636868695367157 4.823727517800866
Ge 7.415278945613891 6.440722253020252 5.398329166057297
Ge 5.188936093271331 3.568198963920855 6.8849015413230905
Ge 4.911562962102596 5.898898522053707 5.94880601256965
Ge 2.419743352682665 6.584951419531699 6.557707959253785
Ge 7.74705647677787 3.3785687818549177 7.589360454833226
Ge 6.016500688625511 1.3936342806705706 8.02035031460864
Ge 1.5334954145214181 2.1825580483652494 5.867081604799888
Ge 1.621387989355038 4.301441432569035 7.680147127743945
Ge 3.6161565879488093 2.609270276368377 8.769848774673259
Ge 6.752310761713941 5.728446380061128 8.177660315797825
Ge 4.13990324866158 5.295358963489072 8.840891216406918
Ge 6.04081654338274 3.486160908789255 9.787036365952076
