37
Energy = -148.26905671 eV
Ge 9.028945966715405 4.817207217611975 5.688492306864194
Ge 8.085284805413778 6.992654297050402 6.569030188402536
Ge 8.678868721985072 2.831299980157853 7.158335688167456
Ge 9.725821865111538 5.003378678852312 3.286399119374332
Ge 7.38489614289764 6.970555957100561 9.040897201527873
Ge 7.103817062963596 4.4926491913477955 8.372509188631344
Ge 8.054495206751245 6.915702664414558 2.977588742772027
Ge 7.952139183211157 3.2744488736432973 2.931634302363303
Ge 8.169120189546263 8.851159014672104 4.627770834762916
Ge 6.842116258506402 2.2706254892480167 5.41775553459074
Ge 4.874226459566713 4.708878350856741 6.920077116126128
Ge 5.314384951150358 2.7845516007472537 9.151605878101972
Ge 7.138811681248938 0.8734418385020419 3.236559770810576
Ge 6.225126593030359 6.408782126703471 4.945225462041582
Ge 4.540330379294329 1.9504383877262115 6.633972955076241
Ge 6.618329141273299 7.024002259049555 0.8248316998050101
Ge 4.88609885335828 6.992581833673759 8.33516074880799
Ge 6.2729371513528065 4.406532675395612 1.2528892897758415
Ge 5.3923920632605125 4.124607545722416 3.9767984022217044
Ge 3.660919648387 4.715933945673939 9.412964847272255
Ge 4.481760212620486 8.42766278473074 1.3579533261904255
Ge 5.786258166175095 8.657080713279974 3.5352358558991597
Ge 2.649938462425551 4.532355384578987 1.2105842695491174
Ge 4.377771525819624 6.0754301748139286 2.329683880318244
Ge 3.0211709790553734 3.015418654004967 4.42384022266612
Ge 2.627741222956384 1.8981875883289792 1.9103180643394928
Ge 5.214224160085588 2.257617729361977 2.052872097670812
Ge 2.4002067103895275 6.09907232886384 5.8916309214529345
Ge 2.401391472350989 8.096503586059935 7.789748936071357
Ge 1.211087696817841 5.770520471108074 8.38723839747112
Ge 2.4380030808164577 3.5732732473878914 7.3518061786979825
Ge 2.9327857607136365 7.027251630875317 10.155813149715874
Ge 1.1399779734034097 3.0414208514393533 10.155813149715874
Ge 0.682148216052588 3.7970100260158466 2.618338636752008
Ge 0.13402265136512884 1.4552623792181931 1.7501920162531648
Ge 0.7405427204501814 4.326375589845614 5.291595226733873
Ge 4.215914132850504 7.944132401310027 5.694918842137865
