33
Energy = -132.28274447 eV
Ge 7.674181327984444 10.091152190212945 4.398406245005771
Ge 8.658430314137838 7.6761442051517275 4.407388068386629
Ge 8.039574287220118 9.492869258393696 11.062603238863694
Ge 10.47186420330319 6.836399450676541 5.973004022546318
Ge 6.359858690459712 7.825260913707597 12.1331552963286
Ge 9.920569700966052 8.317067092585448 9.505098754852527
Ge 7.862531712614332 8.380519928524063 1.8903516956556095
Ge 7.8979967634326504 5.929954510713075 2.5032812427866498
Ge 5.4430323682649995 9.56418000212394 10.249128150805124
Ge 9.532396050980324 4.513630847410486 5.598208226907999
Ge 6.264562272449443 6.958613239026655 4.885862672715498
Ge 8.5615149869723 6.923381988219671 7.790871897464913
Ge 7.1794989281415065 9.006724358061524 8.403744372046122
Ge 8.567457478356177 6.776795409727897 10.942151870463311
Ge 5.304243446422761 9.303263621436578 3.9109532611688285
Ge 6.8855090406540125 4.597231471769961 5.68724503573325
Ge 5.206162862109291 4.826387454183751 3.388693195114625
Ge 9.834606243850967 3.8552441457151527 8.161919247288667
Ge 5.903429551052593 10.444123979303603 6.53266385720089
Ge 5.447104194818091 7.175259487562031 2.2650085186802458
Ge 3.396592433153743 10.08909301365631 5.535646717281494
Ge 4.826096100184851 8.01638231349615 6.665169982798389
Ge 5.344333156934828 7.111200344136487 9.462381504710631
Ge 6.456326813462953 5.283204355193086 10.905473069804327
Ge 7.361609190054839 4.708662166529555 8.531043473748126
Ge 8.241751920665434 3.4661808853860347 3.5876840995998425
Ge 8.393428669204045 2.2955094565772827 6.910198424588779
Ge 3.5329854559921263 5.626462955362021 5.371577701263123
Ge 3.158366250360986 6.520307969385634 8.16938550397219
Ge 2.2202605799661757 7.73128479864613 6.032770686637266
Ge 5.585660909548346 3.1027488921692936 7.44875304884612
Ge 6.463647335663532 1.9978931351913845 5.215520117560698
Ge 3.161770838114623 4.095307520389023 7.279014225446983
