35
Energy = -139.77869735 eV
Ge 9.739842150864202 11.901093273513567 8.311087708795766
Ge 6.56072163453306 9.460862295306876 5.442558228441403
Ge 8.425518276472205 1.9353625744496121 9.30844733896931
Ge 7.786489860363853 9.58184896600398 9.051349666357781
Ge 6.855998301795306 3.869898404191256 5.2043861204963395
Ge 7.56420401929196 4.3369002899011235 10.125691549139606
Ge 10.197266715798765 4.018767502785805 6.0704893042413595
Ge 10.548624414978365 3.2565814848191827 8.463953862069436
Ge 10.97775137423612 5.8850491226609565 4.618231097384616
Ge 8.19609744030492 5.913902828101581 4.056268971713945
Ge 9.358138368386248 5.500968160704912 8.83516274286676
Ge 11.08236442207977 8.010310866802387 5.977977492344475
Ge 5.503259721389999 8.090060698514097 8.784287683209133
Ge 4.08475443253663 9.503602525073811 4.8485335652393005
Ge 5.5234555256934 12.63748301132738 7.766017909254732
Ge 5.190615775653386 11.892975218828804 5.311217954434524
Ge 7.683869328912863 7.275652362818599 6.145761464952771
Ge 7.893013824202338 3.6386427179800584 7.568901053678206
Ge 5.529052434845033 6.135200272987883 6.986118895108465
Ge 2.731375928227497 8.37010736374722 9.399853889491604
Ge 11.530835575433848 10.349083104224544 7.427220819997769
Ge 9.899575454161752 5.159221215231604 2.386287714430143
Ge 3.4837943197718024 7.550990016551676 6.727444342609293
Ge 5.319928173263343 5.423282895370748 9.55952875800158
Ge 3.5296383188257523 4.564825953200705 7.73679293138733
Ge 9.447978483408438 7.86518857359345 7.910114949564283
Ge 4.543622266315276 7.489180575824642 11.096439803146156
Ge 4.560600602981893 10.246116068216075 7.3894117025793395
Ge 7.484705361025697 11.195208781375126 7.065362863733828
Ge 12.83571731090633 9.614944428604216 5.522181846842264
Ge 10.709602537351039 9.524326795489124 9.708650163552077
Ge 1.56614285753204 6.391174518120726 7.973294707327929
Ge 9.052145460070962 11.167298943643335 10.669604380333114
Ge 2.770190537569021 5.685451051656392 10.247810058242454
Ge 9.03687175917045 3.2511262863833683 3.9820856338403616
