30
Energy = -119.84251935 eV
Ge 6.28823879162834 8.220360028956012 2.321549435226775
Ge 7.749808455387206 5.893478247016968 2.467444482778951
Ge 4.809756719789737 9.00265738473573 4.3793988421059415
Ge 4.154989406178899 6.569090603142394 3.072071410360079
Ge 7.46962078099002 10.092585250667403 4.072648944601175
Ge 5.836508184686379 4.564670465843623 3.9714064587502187
Ge 3.400539894421594 4.753026356674449 5.054218693207048
Ge 9.261031749029742 8.040427780250655 3.3248861706088673
Ge 10.886349153005295 7.303502105699488 5.480319326682747
Ge 9.087145550280889 5.635392940153493 4.758066697489522
Ge 6.590989744221388 6.967003657366391 4.85098176520288
Ge 9.679268359197314 9.639736235150124 5.431048215279365
Ge 6.8289388792598595 4.074449721261873 6.347511755473336
Ge 8.145911166044888 2.322762832187408 7.6422161173821985
Ge 2.5818194013306894 7.336179897812476 4.989239121720483
Ge 4.731010162606251 7.966306693470384 6.904628726073956
Ge 8.616428482628661 7.238971929304694 6.959513459612943
Ge 7.390529522506072 9.481433526454644 6.749231541127588
Ge 2.848629130413577 6.21751309737412 7.376019193515778
Ge 6.214502830574892 6.075986266877579 7.867616236057667
Ge 5.580835498039098 1.7944842662023115 7.77300766708416
Ge 8.162640080185696 4.348176921685401 9.280094481174045
Ge 5.386138918616312 10.060958832349238 8.301418543884933
Ge 9.189414923267673 6.770675586434565 9.550242434064723
Ge 4.351869886299802 4.086601058579886 7.57094792442771
Ge 6.68436647665444 6.936006450702802 10.400498077678636
Ge 7.889244428293363 9.28499368282017 9.518247949451073
Ge 6.605397364813485 2.5579914276657374 10.076713620178047
Ge 5.656311921780335 9.252704943074795 10.729483937711088
Ge 5.184426029238997 4.774533701455419 10.041990662457676
