35
Energy = -140.18239874 eV
Ge 8.965419474448273 11.311630159292072 3.8448858992782817
Ge 7.663554635896556 9.20353438701905 2.8449765326025305
Ge 9.790627760919264 10.482552061944544 6.483152812512364
Ge 5.432351494646235 8.814777084351503 4.285072873235923
Ge 7.324713018628439 10.463777701711507 5.535098804544059
Ge 10.21257325865687 6.430283825382492 7.4293141089205985
Ge 8.443756691791892 8.371486712434772 7.111309306366071
Ge 6.518378656704846 8.516506068871447 8.861154841513125
Ge 9.925076472579654 8.865720061589075 4.46747646509119
Ge 4.980366100681316 10.646127458919644 6.655908868165543
Ge 7.411810166297667 7.1417280010901285 5.054672525962258
Ge 3.568201648150594 10.53081930240994 4.5208015915184285
Ge 9.088098782310764 6.928836458832188 3.0873703490660285
Ge 8.476706580704212 4.334183025787371 6.704124468970474
Ge 9.104439579269721 4.854779240947541 9.204034314388734
Ge 5.478812503507031 6.144058665353687 8.2272145047514
Ge 4.293387547146586 8.19098539098914 6.711619622903584
Ge 10.293824663688275 5.368286431224941 5.1231027096627955
Ge 1.6828732822550012 8.66518915518215 4.416443585422077
Ge 3.4889676306963215 6.905324623590436 4.300995806075057
Ge 10.231370681247679 2.6584775871753723 5.643988142344236
Ge 9.339651934110313 2.1730751088247366 8.104423411657459
Ge 7.199850805969596 6.375729820854838 10.242262088632895
Ge 6.014018570334352 4.650271233690575 6.2407873006970345
Ge 4.079254491574769 7.349064630475894 10.264033771258836
Ge 10.809820313850514 3.194208698125471 10.017704943580014
Ge 2.8027101077480063 5.839521603005022 8.651047846836942
Ge 11.574123651664488 3.7574467855454943 7.655801875711036
Ge 1.9313573692932362 7.211431195445907 6.546429674764392
Ge 4.610298602349293 4.609979123070329 4.08225339841093
Ge 5.112092199424689 4.985190811413421 10.695234223483627
Ge 5.018835967440323 3.1847663488580737 8.541974335442927
Ge 2.1912271914895682 4.577733776517368 5.457400591369102
Ge 2.430059773142224 3.3839110400124346 7.9983424333677755
Ge 4.123730158163606 2.7422669671927755 6.0397779248476775
