38
Energy = -152.49479659 eV
Ge 8.574783314367673 7.142218226713156 7.125207665952939
Ge 5.9971692278808195 6.419957491439635 7.8839668681861665
Ge 7.801923027399804 4.674926001919713 6.879095051911798
Ge 6.581126541791561 8.73997671935452 6.531429070224961
Ge 3.2099847809008217 6.431989843272338 7.786735345626154
Ge 8.458265806832872 8.475363603818307 4.780105211613785
Ge 2.2720866644261704 8.761898309339127 8.31018535847918
Ge 5.52474138265288 3.55265622726701 8.032223485474896
Ge 3.220633239653535 4.084040109487525 9.03030138193153
Ge 3.988711964831451 9.219661892792129 6.396195230872187
Ge 9.060436464653424 4.405149315816672 4.612773946311458
Ge 4.684757690687048 6.67066471323125 5.494012477425566
Ge 7.784857781098457 2.318305176213488 7.91470002920942
Ge 6.038730330905844 8.036002900453338 3.502474565815139
Ge 0.573987878990354 7.143505092261274 6.951546793482366
Ge 3.5154127285325183 1.7187502005694726 7.6133627283671315
Ge 8.33110644321428 6.468130027155525 3.0524606277507043
Ge 2.1440531500416853 5.445532235109116 5.563295586746571
Ge 1.2694236613683487 9.437783495308867 5.845259757776115
Ge 7.486572072291207 2.3151251914785087 5.22007642029821
Ge 6.329913136943888 4.4475619427821655 3.460064525191455
Ge 1.3540475860506227 3.494543514872698 7.170813099337157
Ge 8.660925132505843 6.118433312698084 0.5341577124590059
Ge 3.290363891128065 8.455421437617867 4.05608511441449
Ge 0.9179069829988862 7.295487966481335 4.2419014226916625
Ge 9.198360556295933 3.9523057016565226 1.980651832953992
Ge 4.868946974989384 2.1427327968429184 5.367362709303614
Ge 3.53773416637467 3.85053578582541 3.9647086035007595
Ge 6.0737095386181155 6.388596288615223 1.3779462301486025
Ge 6.793299349268203 3.952310086492874 0.6501150174068467
Ge 2.1005889843349403 1.8562912027046439 5.2605026487122295
Ge 7.52039087138814 1.9422255429349844 2.414813054196753
Ge 1.1575735038745236 2.82324400987314 2.9339716480572573
Ge 3.2085982359989123 3.6533878938236155 1.3863383701511556
Ge 4.93848700757611 1.9209072860602752 2.2642333927074487
Ge 4.192529056528969 0.040737586419549214 3.8894660389471487
Ge 1.525746330565204 9.437783495308867 3.7132330795710082
Ge 2.547965319996188 0.987360631855861 1.5440786747503792
