37
Energy = -148.78010893 eV
Ge 5.954367587307892 4.435740615141409 0.3842801226863431
Ge 5.486363719901344 6.757623766843369 1.450761799304763
Ge 7.499808349269446 8.159959861627312 2.489429099560748
Ge 5.09087254666923 1.0904761620909893 2.666494316973177
Ge 3.795166419230553 2.9075249684042337 1.1876933446800475
Ge 7.870494451246225 3.8985049272274304 2.0226805650945945
Ge 8.446145557075496 5.907661489543607 3.4520436160325225
Ge 2.9730429977979322 7.199207354183907 0.9859953855842725
Ge 5.396585274890758 3.8925896927614754 2.9915230582062176
Ge 6.079598753063474 6.777968121814075 4.249848069655726
Ge 3.54592020773408 6.495235142084398 3.5924491982893656
Ge 2.1718390633950437 4.878977908659569 2.0431452240509276
Ge 2.901756776196343 2.0901235168018246 4.171405157392834
Ge 7.246352727682855 2.1050412510187644 3.7813088135283697
Ge 10.113102441666626 5.437093028641755 5.333396192997503
Ge 2.043728757918485 8.654943237669618 2.956972699775371
Ge 6.3923045133526495 9.34798499169463 4.753405926814189
Ge 4.29406855824269 9.602954298942091 5.0033620133355905
Ge 8.38170689931585 3.6981842831103435 6.23795419098317
Ge 5.588112146724735 1.919412547168739 6.082101774600077
Ge 8.576056418834693 4.580247421416274 9.044791112126159
Ge 2.87981266625392 1.1987780440680111 6.769461507562592
Ge 0.3947852958092185 7.537785139167629 4.693838740249955
Ge 1.166728072711417 5.119631785787333 4.445111232026543
Ge 8.721519429344836 6.435136333719824 7.230925840327229
Ge 6.309096377386381 5.254663723263696 6.3374698159347576
Ge 4.149977578992596 4.053931055417655 5.40248357422905
Ge 3.80644122132324 8.810290279072404 4.8120352061917675
Ge 2.2950229934370285 7.4696039548004025 6.340265552974516
Ge 6.656178025297133 7.861032185421464 6.952231884655955
Ge 7.230983721634007 2.440027040947994 8.28007813711353
Ge 0.9125088159735274 3.0513359629250947 6.102723044928351
Ge 6.023147299632266 4.519430232177657 9.795936792039699
Ge 2.5516281763707958 6.80815488355885 8.710710993077782
Ge 5.079936096575634 6.435339137445864 8.38502982221092
Ge 4.351895230235788 3.071894163814745 8.19672863479459
Ge 2.4165444251524026 4.607428231070715 7.457527133658039
