31
Energy = -123.68462537 eV
Ge 13.066318270624357 7.527632593790105 6.340164256920059
Ge 13.493188967245652 5.950336163436524 8.254360540881141
Ge 9.894100366329885 6.9873577209927396 2.8393146908062032
Ge 10.834631868432451 7.220996452777974 5.2178019956094825
Ge 12.217669609091736 8.25687504374226 8.778670517953415
Ge 7.724931335072235 6.410628261630592 4.018263952342564
Ge 10.921469627884006 10.30850482960687 7.981738887938277
Ge 11.115623211535171 5.848323091833148 7.3486944948867885
Ge 8.212633918655527 6.304320385932764 10.573629526926283
Ge 6.161906618447893 8.520445114822266 3.7932386270066902
Ge 9.823112854646634 9.461589142560475 5.719991603682919
Ge 7.164828813716309 7.490683855224193 12.754622344496376
Ge 5.045168598920461 6.098753174106146 3.0715723082964597
Ge 7.1781203291017155 4.0323693988644 10.400558858376746
Ge 3.563300730359661 8.091657793586196 3.9199394894416173
Ge 6.198824166366511 5.963748709112303 8.854287310755428
Ge 9.610321623652034 7.788459221554371 8.69552733441524
Ge 9.238636384858154 8.58274892201861 11.417026275942074
Ge 5.581404642795649 5.596774566461657 11.700763798309723
Ge 8.588721095856966 9.202958741392713 3.416325606937009
Ge 4.515463755667957 6.099613183652191 5.62256779911946
Ge 3.7319253977873097 6.824810058006382 9.377856042082398
Ge 6.949211227827823 6.6018639836480135 6.452241643942508
Ge 7.830558360380324 8.887753299322577 7.190169152971523
Ge 6.746620722248664 9.890262496333895 11.49176352120778
Ge 8.470621030378194 10.266384431690794 9.304885766591854
Ge 4.582340898276524 8.005382669789878 11.70800136056221
Ge 5.955005681680576 8.521494920316911 9.386042772917806
Ge 5.246981898082522 8.77264381735577 6.212639000934702
Ge 2.702591871163495 7.603314675221646 6.660410010079919
Ge 3.85006717069794 9.468413154444063 8.262188295987775
