33
Energy = -132.17079024 eV
Ge 6.714919479626439 5.435179268694915 10.807197201787623
Ge 5.50527018953888 7.725699607454956 10.111575407936462
Ge 6.40831239026316 3.166418776357006 9.32256170604113
Ge 8.850367944574273 4.252832483480912 9.261081615477732
Ge 8.360053141006105 7.008140901831811 9.487736080457017
Ge 9.510052155213401 9.158150701204642 10.030873286920151
Ge 3.348581839629653 3.0876063971950307 6.1984903638534785
Ge 4.98174160390083 5.53088117776557 8.60312689765246
Ge 7.393537441115002 3.6134832392059377 6.985537515027992
Ge 3.57032389830325 3.3132572423699753 8.816945526742085
Ge 9.821803428511636 4.204436350338224 6.593108089450422
Ge 8.514023810978566 6.366072268377104 7.021093686713021
Ge 9.625068195268566 10.068431368528072 7.596901617442288
Ge 10.099137117686684 8.186222154444566 6.002447532665161
Ge 5.519687452820455 8.66944307129711 7.311804223561594
Ge 7.115236298192024 9.680717414427619 9.098011079310119
Ge 3.08839360299928 7.799337085126119 8.859785185810901
Ge 2.3889842272676067 5.44276494368254 7.907954991195434
Ge 7.456672200257434 9.627534360660214 5.785435077250187
Ge 3.13819910920436 9.554794558536758 6.966797781582261
Ge 8.846628386332092 5.292052121343739 4.209357062698786
Ge 2.484443600884836 7.27404858881323 5.9757760081828915
Ge 10.615933261941256 7.276147871069882 3.658280263625837
Ge 5.437255569854471 4.065610338739072 5.099046219511693
Ge 6.078326577474659 6.242645775893475 6.497926820514138
Ge 9.185642846037824 11.453509046179823 5.450093837484531
Ge 7.022824484829026 3.7180805881834686 3.0483264530174226
Ge 7.867062172795995 7.770078883199411 3.97802248266629
Ge 6.9439130665825735 6.195036746647778 2.1051301459903784
Ge 9.579360544465063 9.680773754391213 3.4885383828021252
Ge 2.732309382965292 5.135146300308877 4.6263229107871675
Ge 4.769097320411742 7.1464265695167475 4.477505074341491
Ge 4.6305991506207675 5.135917184241895 2.640232921599809
