37
Energy = -148.22550951 eV
Ge 1.2592382733498666 6.255102121058328 9.306695651262439
Ge 1.2882870690003847 5.772462909143209 5.291362515304237
Ge 0.19829470513100186 6.051596281506201 2.8976019713706527
Ge 1.597006864112328 7.906834246877811 1.8200671389445762
Ge 2.1214291654377515 7.0255453296781045 7.451159980545779
Ge 3.6688472904249174 5.587018264425547 9.297438567666534
Ge 0.6897332023797335 3.1264481283001797 5.5972527511476935
Ge 2.2965039425108147 5.06845499196478 9.297438567666536
Ge 4.610058192749998 2.1236949601553214 1.379960995453585
Ge 3.4681973127094268 8.988331782545496 3.132530845559329
Ge 4.598600269718832 7.409784313788129 1.4703338466331772
Ge 3.1804631707516235 3.6673079896979215 5.45263543448631
Ge 3.4583709280823562 6.494759853473494 3.918331641944885
Ge 2.5442190927675012 2.3769219658177727 2.85561943412791
Ge 1.9472387760792362 2.766257448650347 7.887747832851601
Ge 2.356322139045569 4.911044100900934 2.0479245501920764
Ge 5.0326519933559695 3.5754222547820156 3.6472483619874896
Ge 5.713013836430252 3.925697101780054 9.31281355728655
Ge 5.862296759477644 6.507469472620611 5.4455300417848616
Ge 4.139753725325203 5.396232722059532 7.114071460213244
Ge 6.352185379679311 5.149837411780279 2.0423965454842197
Ge 6.701272690924973 7.515411535349436 3.1425090720623494
Ge 3.707257291534704 0.8000007129603465 4.93109704324221
Ge 5.082125809696382 1.8907023721344858 6.812022393641061
Ge 6.865020428770812 3.603217652845108 5.699091421376677
Ge 5.795068718181897 1.0675415307236689 3.39697003830765
Ge 7.0213525466850495 7.491680529345071 7.487971279708653
Ge 4.521260675540173 3.4144939773658702 8.942900855375896
Ge 6.279928432041419 5.374887871817 8.905816315129869
Ge 7.5814799838859965 1.2457840967030096 6.975200786625402
Ge 7.98499131917504 3.460530891474688 8.389989357477447
Ge 8.447269848246641 5.443016668847286 6.9102737479661425
Ge 8.36821634114692 3.396413138302071 2.0327069523199643
Ge 8.795743594566408 5.839334494263697 2.722001213163431
Ge 9.304419485894012 4.089912718463246 4.6146313671692845
Ge 8.250772660726998 1.688051329594133 4.354845437495467
Ge 0.2520862724051423 4.933775016746739 7.62864453152477
