37
Energy = -146.56359446 eV
Ge 8.553365902985606 12.130109487126584 6.602688127601245
Ge 11.67914385893112 13.79959517820347 10.857820651223792
Ge 7.578061691868593 3.84159554272526 4.906057605348952
Ge 10.81926953795812 13.13336797196318 6.292429475211134
Ge 7.797220869097322 8.002896940056424 6.799092641303431
Ge 6.62237557330893 10.963679049663835 7.668481082471356
Ge 8.711501181362836 9.93648009494293 8.708744331342514
Ge 7.8083244378060295 12.185179088634296 11.522859276462663
Ge 7.639850357991885 14.9698476722454 11.169569002578115
Ge 9.981158301180042 15.779342737428406 10.299986589323495
Ge 9.67330679889025 13.94312314672241 12.434471940648342
Ge 13.439228483011071 4.326135424649782 9.180154180252963
Ge 12.760660954022105 8.923257125519326 9.21972966437154
Ge 5.354624069903485 15.833347036065847 11.560082683572967
Ge 6.106594527331735 5.595813931880237 6.190269836662309
Ge 7.604296087291602 13.07129220438172 9.097624249930401
Ge 11.502839563505525 9.532733704472111 11.61393482263774
Ge 10.418701475865133 8.524989304393326 7.1907784254799205
Ge 10.754449160022352 11.436562814594463 10.049058176054649
Ge 7.512134747509693 3.5828854026600654 7.6690003696752385
Ge 11.64117994055796 4.652496671876453 11.251482796164334
Ge 12.023309953322707 6.398070784383903 7.954449982113032
Ge 8.781677969932307 9.749995476988518 11.315081040453235
Ge 11.188426310892407 10.907526987741669 7.5733003897086295
Ge 12.609423091970381 2.483122659183597 10.554736390022093
Ge 9.902581426406083 5.42185111266476 9.402053386707628
Ge 6.203201773342928 1.9125648944305789 4.31703722899974
Ge 5.507450093279918 14.569871036257014 9.06944713752455
Ge 7.462536502508259 6.097998918588669 8.51280932925399
Ge 9.068735909298612 5.428302540637699 6.309219309520235
Ge 10.379700074475029 7.870319822647261 9.84044648190764
Ge 5.815314076306691 13.279935780697896 12.824253532821098
Ge 13.15074109348175 6.57829757947034 10.474028782812322
Ge 5.41647752158729 11.775245101065797 10.31979486356445
Ge 5.319834906824568 3.094249691392881 6.3518110420052905
Ge 10.05242991791212 13.843629850685916 8.612851192017839
Ge 3.902143011506034 13.723054566516401 11.091662359610217
