33
Energy = -132.21374222 eV
Ge 9.19809696160483 6.429924724936803 9.751630672366478
Ge 10.89898675132312 6.176729276004623 7.788696676338492
Ge 7.389475579765408 8.46654296532189 8.917682362017507
Ge 10.435249108203886 8.544287202979792 6.8520422219139085
Ge 8.409482927271482 6.823315423663505 7.197818781460165
Ge 8.686823932163591 2.6755646548900494 7.637027371436004
Ge 7.785942644575117 4.184096808362909 9.605072019868851
Ge 6.476464998061875 1.7429068320390637 3.8764319972687526
Ge 9.339097655502378 5.191420846016939 3.6751290870746516
Ge 9.687372956746552 4.589044227066295 6.143241083180773
Ge 7.89681889788946 9.622000569587561 4.300702240849841
Ge 5.08590633251105 7.454622680580265 8.366515685076857
Ge 9.49638419170589 7.550589753239425 4.7365313724407025
Ge 6.9245669218347885 4.523648625521314 7.077680467200562
Ge 6.5140725037520175 1.8957748836387849 6.427464879758204
Ge 6.981233507093715 5.402171232993929 4.630804830463359
Ge 5.290473633932374 4.890281378741669 9.103389216727
Ge 6.021171065402571 7.840710726229292 4.86883027467381
Ge 6.956527389437044 9.83810210337734 6.717588182702526
Ge 4.458408573711797 3.0357627051154044 7.463819880250213
Ge 4.970862526915752 3.635460771219565 4.534294572171973
Ge 5.744339691325147 9.260765196105694 2.634982855110742
Ge 3.7513102995073697 7.385916876474777 6.010828477291816
Ge 2.858278176983089 8.609876329537764 8.122719486828837
Ge 5.675628337101927 12.050106940781244 6.705340883329095
Ge 3.8220148923518824 1.187044822867572 3.899970105265058
Ge 3.9036128584574747 10.287800957006352 6.473546239383414
Ge 5.492749748745582 11.174514792461732 4.303552623049926
Ge 2.467918118753939 3.379480947879475 3.6042502388347937
Ge 3.4563282242898534 9.14774669112067 4.100624866712412
Ge 3.218347024805387 4.843455814337454 6.067362103699815
Ge 0.8616479696715028 3.8746197693632936 5.466010696913318
Ge 2.451233243244236 1.909686281996796 5.993708075624747
