33
Energy = -132.10554629 eV
Ge 8.68927810887476 5.55245125079241 1.5063487610884745
Ge 9.822145940039691 7.58411311905585 2.77401389803067
Ge 7.742657813935143 8.17240839701811 1.2007936208211003
Ge 8.192598286100752 6.071105916640367 4.169447175049901
Ge 9.54489128483813 6.891013480390132 6.475817505588121
Ge 7.5768505698900945 8.679536902439413 3.8898896925184983
Ge 6.324440884793314 6.115622082827845 2.2307772196840236
Ge 9.074681545539223 9.499514963318344 5.840967276934781
Ge 5.325372179667708 8.617091305922619 2.58433000825302
Ge 9.209952516390011 9.267513643313709 8.631536701519737
Ge 3.913279019961396 5.825025632453907 2.990246594306221
Ge 9.629022181273166 4.674401369321465 8.250129485408035
Ge 7.199035160731106 7.80033975410473 7.099001409303916
Ge 4.470685285163595 7.736521347910716 4.976016948631563
Ge 7.189315577005888 10.446285641039948 7.563615059662447
Ge 5.314897444007633 5.356826479264902 5.383562701237908
Ge 8.597124076844619 6.928056555524938 9.25680283003743
Ge 4.854020257035705 9.19464810635015 7.185103083335569
Ge 7.23433953404904 4.595798451958447 7.240128149759206
Ge 5.978531691412742 5.767685545378397 9.234803513133473
Ge 4.814695846678456 3.3813299411803386 3.7308241743570383
Ge 2.036569376385362 6.987958213122806 5.652518103335108
Ge 4.767670418171919 8.118093179131241 9.574305889596053
Ge 3.113213338757545 5.191302903705823 7.034575348543795
Ge 8.063004407966819 2.4690715595533423 8.98884865774958
Ge 8.021847313621553 4.710188950548657 10.57093107074298
Ge 7.330074014486764 3.609118867992345 4.616245934924734
Ge 4.214649882857228 3.0067520022902734 6.334039580703763
Ge 6.802361698642868 1.9773154269768032 6.7271556753878015
Ge 2.4893930471328027 8.00203843389211 8.048374479922824
Ge 5.453508702233158 3.1270568753616748 8.853221228197679
Ge 2.3535823335509307 7.746156820343347 10.50300130839789
Ge 3.3408401163443138 5.545840373217347 9.56554252962188
