36
Energy = -144.96280877 eV
Ge 9.53155507963644 7.011098629298296 8.69550054624102
Ge 8.537187137790538 1.6442976516795043 5.054161892623797
Ge 8.106867095804718 6.044107942050541 10.578986277521578
Ge 7.802529945522882 4.947399012409053 7.928998251593737
Ge 10.390444666454949 8.206664026610197 6.63941929043386
Ge 6.781557111585922 3.5390989805363073 5.877351439665342
Ge 3.7396861854439543 3.844315095215882 8.981528435032077
Ge 5.875332808805505 7.539707369634464 11.114113360488385
Ge 7.999881716542831 8.770927647337444 10.036892110620176
Ge 9.510854142709201 3.994548090166152 4.606767426747175
Ge 8.90177921968302 6.316584631345436 5.692055234823611
Ge 8.085560991589885 2.5606322296925796 2.578585824359539
Ge 4.87868272825137 8.18020640517865 8.822676862452429
Ge 8.087911212984961 9.083700472355174 7.447194725172242
Ge 5.663279855146314 1.1776486922494753 5.674889747117805
Ge 5.695140386480766 5.444554347477176 9.438606664323686
Ge 4.274129018898301 10.167390796171745 7.20310389668922
Ge 4.142000121554091 3.0627260541892434 6.49466897101922
Ge 6.242966570214365 6.847369458047155 7.028120612412931
Ge 6.624177591695981 4.766904366576282 3.5091408428621285
Ge 4.396326524189845 5.69451534717267 5.656440951458951
Ge 9.083818706874426 5.037838251561406 2.262270849149359
Ge 5.602236135653973 2.252848214555228 3.3441712288969896
Ge 2.2184656813371184 8.508183912177103 7.988160617598311
Ge 3.129194550638419 8.803945879989799 5.261208031789331
Ge 3.0963687805281195 6.104159137056127 8.077750284197842
Ge 3.1761000870801297 2.974655121184063 2.6250687091118077
Ge 4.459436480762901 6.8517326303550625 3.3869599350779933
Ge 6.051829524653831 9.063782994605843 5.671256935602305
Ge 2.2096402919778644 3.9628138448026076 4.861489569358023
Ge 7.756950998529463 7.060661913218 3.5146889120626064
Ge 4.843980767970464 4.902312317291763 1.504067415504581
Ge 2.7138944257692064 4.243208839684723 0.39407131769441023
Ge 1.8670109233207166 6.577734632948106 5.862828128660247
Ge 6.002390867116382 8.861831374825485 3.069593367788757
Ge 2.299419557271068 5.619808523971443 2.5355926671478946
