34
Energy = -135.76948295 eV
Ge 5.968167996110518 4.015296410108881 8.803031912701165
Ge 7.504948331119165 7.079655836817817 3.1595800621975854
Ge 8.321506010596488 9.183666643342775 4.758535347078305
Ge 5.763934090212567 4.763991484368941 6.016872965941239
Ge 8.048397236087508 4.416056231485392 7.264030624877832
Ge 6.110300607859846 9.236885428818864 11.207759707891267
Ge 9.72273176697639 8.42572163140449 10.315550105857106
Ge 7.969521192389276 10.801376983119273 10.08169523834473
Ge 8.320135933763718 8.75904595529709 12.51069035247468
Ge 8.99744656102082 9.470463961044667 8.079722702796841
Ge 7.251574522777086 6.194954351464557 9.275628631948635
Ge 12.082468836163027 7.244446316540269 5.150628735706975
Ge 5.498330383468533 11.477722888680105 9.55213489735167
Ge 6.454167994909684 7.335600274064068 5.7637900990510165
Ge 4.702498759359153 6.114964496921296 7.919912714984729
Ge 9.105707965478091 6.924608181240339 7.455376461108654
Ge 11.476939345032525 9.765774189459353 7.403431394058989
Ge 11.91317625137102 9.79204021733779 10.034393023122838
Ge 3.319799159139457 8.272866599466289 7.640683896835913
Ge 4.8979517771837875 7.513701837112534 3.6356150646533374
Ge 4.534533921247164 9.295975668059041 5.454196522241428
Ge 12.040207987176503 7.239833202211602 10.942703991862187
Ge 10.380345215040961 5.292928950082789 9.289668714015288
Ge 5.988307476347132 8.452049865111622 8.605586119458598
Ge 11.91857167917984 7.207850313315735 7.8708029559423025
Ge 9.630825007520828 6.853219620654912 4.927312075580819
Ge 6.723111108213424 10.111937172280642 6.7143161146407895
Ge 3.754533824221186 9.055153630382012 10.044626616430214
Ge 10.890687187977006 9.524977574672867 4.834817431514306
Ge 9.89674917616172 10.766277670680822 11.791906861182163
Ge 6.474412566735285 9.625226671106553 3.0835057967578363
Ge 12.973304883952537 5.485042669091002 9.28721821253808
Ge 8.854747516950022 6.244458872375714 11.396451949470505
Ge 4.280827924505836 10.984669342882402 11.715595662159785
