32
Energy = -128.21738161 eV
Ge 6.56761233740224 10.849852947256032 12.768605970409954
Ge 5.31355170562121 8.76306748053745 11.475692741735575
Ge 7.40276772471979 10.127162655673812 10.558501665227556
Ge 11.271865676589153 8.517368589743699 4.197034506810762
Ge 8.262099662613993 8.730237597666923 8.478569832821439
Ge 8.896414478738565 8.978434496935623 5.785419174634917
Ge 5.833107386232594 8.614432671990208 13.978077901142143
Ge 10.552316858420724 7.283808055646169 6.575797033740003
Ge 4.4312633819027925 9.858344512727111 7.729950091760358
Ge 6.15267934566469 8.072114188989381 6.994546288710864
Ge 3.11719020086576 9.174297243112006 5.5237637028701405
Ge 7.144999775160653 7.2383173560635035 10.422632659104336
Ge 9.693021832813576 6.831227387923969 2.957587245951506
Ge 7.942522357178997 8.464578759732252 12.569265774705308
Ge 5.599016611662747 10.341972608436736 5.329251061452843
Ge 10.557741732373529 7.643409299701592 9.054937809574888
Ge 8.889873676778071 9.255052776841557 3.125006083572769
Ge 4.658256546799865 8.705025537861394 3.384309638404771
Ge 3.627604042546549 7.287969412270627 7.614554346416232
Ge 6.885758203397156 7.8992800323204 4.419577466733432
Ge 4.146209794902364 6.745033407596319 5.138534853378944
Ge 7.348083036981006 5.603110344220993 7.184633008190641
Ge 5.125913349106554 5.048307411846534 8.508723842634765
Ge 5.464921439053722 3.6913641268205892 6.360682433231694
Ge 7.032613496697706 5.342452393915647 4.484277767474288
Ge 9.216804067395742 4.311720603735797 3.6444208129458384
Ge 11.33551552558622 5.738098399100055 4.737354238540916
Ge 4.625398392661669 4.474504651942845 4.096094166173455
Ge 9.603104306951998 5.249742299541388 8.521721558569
Ge 7.400400329716203 4.54326952738687 9.76833174178149
Ge 7.376021439314022 2.725225489888524 7.689966584279273
Ge 9.283928707876125 3.8649343364689948 6.322478299230281
