31
Energy = -124.08640309 eV
Ge 6.413972054328458 4.885072082580328 10.706390356720886
Ge 4.5031250191791905 6.8500429698078875 10.781166685595032
Ge 8.04186576002234 3.6698712123215063 9.055026626130468
Ge 7.7577128403520055 7.031368122987943 9.28626827864011
Ge 6.986612233454089 7.139794091239797 11.714897051169164
Ge 6.010140327050497 2.7430936256978042 2.945751740391809
Ge 5.693055874417859 3.677401148743069 7.925414478468145
Ge 7.754136997710409 2.503958047245857 5.031623519279115
Ge 9.76627185071087 5.658921868487882 8.51922518924692
Ge 4.443975111849924 6.308180116595107 8.071502928865591
Ge 3.9151112450924304 4.396785807925159 9.785773796337537
Ge 8.73319877402571 2.8530791571816314 2.62124564479645
Ge 5.057110921149598 2.715499885729044 5.409353347389273
Ge 8.262686636802206 4.632924455236592 6.530502514811599
Ge 5.168798000368366 8.835464890403623 9.180872243580296
Ge 5.030294828453921 5.015861992327424 4.098707402110629
Ge 6.061145417906761 5.812957517256575 6.208662759974427
Ge 7.461256640636039 9.269923044405033 7.881881703902373
Ge 4.376228513235794 7.017751892262027 2.559562910374593
Ge 9.392548944529906 4.903336367169677 4.07290051699246
Ge 10.18784127208053 6.543177364182143 6.012547142682991
Ge 5.214288108608274 9.613757187573103 6.553009414135078
Ge 3.0186984968849204 10.108393784294746 8.163747267547288
Ge 7.776971719193128 7.690677760343113 5.733883003014851
Ge 7.13426808724523 5.190176186053085 2.5820615393200415
Ge 2.904423343032227 7.987098390759705 6.766055487072773
Ge 3.816215037419875 8.654181990635918 4.522190455059206
Ge 8.745885306319437 7.324259559155972 3.1758672555159175
Ge 3.2678466871439333 11.029473975151195 5.712835880328033
Ge 6.730941659638778 7.498858152754929 1.335293374369189
Ge 6.446442552763918 8.686650896513498 3.6741864390975976
