32
Energy = -127.96911722 eV
Ge 1.854259378722893 8.776080780183253 3.5660271048885384
Ge 7.767048196172264 0.6543476043483406 5.8014053439703615
Ge 1.1194086159071497 6.331038712782199 4.246628427128682
Ge 6.895886075282389 5.820837678967952 9.111137668998158
Ge 5.097096039856902 2.4932490178176425 6.729840930033716
Ge 6.70108178745808 11.342789764298688 3.697462369711768
Ge 2.5164164887046074 10.03455751661704 5.93619693297824
Ge 3.664305449801509 4.689691470855847 6.403164057996945
Ge 7.5830309560883 10.518139895400127 6.039775144372714
Ge 9.429166539460146 2.516596914199104 7.302296606125324
Ge 6.317325288991417 3.8179830235243473 4.482404759054803
Ge 8.307792324805414 3.6686044213744236 9.77544283667741
Ge 8.341697718351949 2.232315285786431 3.8665354089868127
Ge 6.922800493229688 1.7517900717973178 8.540678863009523
Ge 9.090207553322724 4.3444518428076915 5.42253232943659
Ge 1.5658722032784345 6.087951745405196 6.799046896524915
Ge 8.838425338396025 0.049717148881152896 7.901787900837502
Ge 3.8998577601984663 7.306099275670084 2.724998569830811
Ge 6.115091821310956 9.181227561765777 7.80598214098083
Ge 7.090852872478096 4.202007770706015 7.1363748921773364
Ge 6.006141704729496 8.624445782852804 3.696884831442816
Ge 3.904817900737614 4.514826990593444 3.864390761499625
Ge 7.586244455041545 7.6624945313601245 5.809956712738621
Ge 4.969880136452662 10.21629012099815 5.303383384578304
Ge 9.476128834756022 5.403916111680924 8.080860773086078
Ge 8.44075758771301 7.831280577275793 8.225555013867977
Ge 3.253538435481763 8.190704607058398 7.756343547909804
Ge 5.660382136866931 1.269040763830817 4.530276786071097
Ge 2.2995822507816905 5.328033960226033 2.14934425092116
Ge 8.508980872795412 9.360809698362356 3.8962473804964426
Ge 5.43971794950305 6.5768670891826515 6.8490897189317534
Ge 3.37134624916195 7.4871332873102725 5.278480138787207
