32
Energy = -128.19272157 eV
Ge 9.179362296249908 8.308765178526759 4.417008610308372
Ge 6.0279190281753 1.3035515683841936 6.59361273226109
Ge 8.485061445533232 6.552481890585766 2.6091895466680515
Ge 3.9965380459311532 7.2049402233931295 6.354951808644886
Ge 5.816109753616178 3.9723187496911154 5.216959635021825
Ge 7.406052155205867 11.954183077723526 8.201722365579593
Ge 8.469245553936108 10.705368017250025 3.9287294884838424
Ge 8.910639135347099 4.804321309968999 4.473437541562527
Ge 5.398593170168904 10.755461667763393 7.322814815642562
Ge 2.4425409395940063 3.9953032577323913 8.26704083694221
Ge 9.312695702761221 3.7197615303352007 7.966029432609146
Ge 1.8600294605733814 1.924332634318921 5.503147640388003
Ge 6.809199183366774 3.6078819744392967 7.781063494679134
Ge 4.344568961118361 1.805705957234467 4.6488555395795235
Ge 4.646592703860025 5.05447989990955 7.64738126446699
Ge 6.8058054084562585 6.667022582106501 4.709278659951931
Ge 3.5656029552329755 1.8006355125997278 7.320898090351263
Ge 10.427445497864078 7.771062861712083 6.580325516268012
Ge 3.1754729257050824 9.594230176450967 6.787629080074668
Ge 3.0596522300443176 4.2846206971067335 5.523623762886297
Ge 9.280126445348905 9.485233495605732 8.606943264787521
Ge 10.93151603033072 5.189125657683093 6.201004499863855
Ge 4.923591613719808 8.452259106649267 8.719728778038213
Ge 8.869301683982291 10.691214885881315 6.370454476191624
Ge 1.6378010753217984 6.267751347203974 7.010567439559306
Ge 2.393630104433134 8.024808132896796 8.745850962072351
Ge 6.510681060943674 9.460870041722757 5.211518739104627
Ge 8.33897107997179 2.5277258349043032 5.759327805070988
Ge 10.978529882468688 6.40701998704286 3.82153563484927
Ge 6.825579358609708 9.971817057371108 9.80101683275347
Ge 8.376468415676273 6.0313281552130205 6.825846394393547
Ge 7.2655443947148814 8.28009945523656 7.498143059985292
