37
Energy = -148.81218365 eV
Ge 0.5070291903661244 4.543627361339804 1.707051142490573
Ge 0.9315581889004426 4.174908042322655 5.765755493532646
Ge 10.047253265603349 2.7745156328741927 3.7135538049196066
Ge 9.339908878537589 5.3859988068631415 3.9819028244491657
Ge 0.893318151978296 5.509869589796598 8.249705861739029
Ge 3.6060586471184872 4.108402959554148 0.6198021904574875
Ge 3.1792917307603576 1.6579974477765334 8.305202950855453
Ge 3.459096767872619 6.157969311850367 8.683846613897442
Ge 6.217111111930395 5.248465529228536 0.3658080364362827
Ge 1.2351638851429974 6.80210980577574 5.269092576075312
Ge 0.7597065845395666 7.020840083854098 2.6053056307938074
Ge 3.4112593078483284 2.6757275443672923 5.973457205381416
Ge 3.2936443898970813 5.408458285329873 6.263285384920629
Ge 2.4058201294400146 3.113253907803628 3.2577688584008593
Ge 2.4023810347075596 3.8558270159427677 9.753076842614394
Ge 2.8711441010673457 5.588022475979146 2.978581396602833
Ge 6.101644626464917 3.370807164549214 2.8240580441096523
Ge 4.011472446451687 6.699863994748441 0.830402027158886
Ge 5.26975823417154 5.3689426857812 4.542999035101885
Ge 4.719547757942763 3.829942593378834 8.330726831211235
Ge 5.44016377132234 7.582226269196844 3.015602166439371
Ge 6.2531955422084335 9.3947133460427 4.582915218424157
Ge 4.108565164383328 1.647305639414124 1.9334436706685911
Ge 5.178374174688637 1.2409523221157908 4.3770404297836425
Ge 6.1700652045878375 3.3514317049978453 5.834947590710955
Ge 6.10719831245289 2.669585310078281 0.20725048373799523
Ge 6.774512025221692 7.175343487368534 5.703210630564368
Ge 7.3941814729585715 3.708491227254736 8.301976599800971
Ge 8.331596946057903 5.952240569619847 7.285156455739701
Ge 7.805134505464317 1.3793592446706735 4.438459691228139
Ge 8.844793622414743 3.4030366396324556 6.055422949077894
Ge 9.339908878537589 6.162039587684577 4.905184031701645
Ge 7.456486014830396 5.9051106984512085 2.478916038261858
Ge 8.266433320163037 8.21242669452948 3.377600955740488
Ge 9.04053773505956 3.9880753805585885 3.3755413440644806
Ge 8.196455405107942 1.9808404091412641 1.9289583965261283
Ge 0.7166591108751549 2.77527098633919 8.000990352592892
