34
Energy = -134.5969756 eV
Ge 5.261156430834848 8.130453605585842 5.399874330906331
Ge 7.999067112381664 6.230662988441708 8.516606449248272
Ge 7.307242723822986 4.682857325125898 10.41119616852695
Ge 8.929823183661197 3.842102529216615 8.236142721908681
Ge 10.461833289491038 11.171013919999899 6.2976362358369915
Ge 4.775813546398883 1.384933571533124 7.305953899360568
Ge 9.571473049680813 7.790586959976571 7.316484147134859
Ge 8.013759226156392 12.56507791757839 6.703664026375413
Ge 5.6711646925640675 4.02192906070047 5.630571124533702
Ge 8.879962885603227 14.151647655665034 8.537644337256046
Ge 7.458381708122477 2.3494146405909357 6.613452159526473
Ge 8.447715657667466 11.736433783730227 9.452191971598705
Ge 7.345512467029855 1.5866101376285267 9.518919964629454
Ge 3.1293299823623975 3.708754974438758 5.603357684674721
Ge 5.655642614144769 12.188542044101657 5.69969454774536
Ge 2.605372169415936 1.3445659049752816 6.147177045927912
Ge 2.690471127116277 7.216703220724148 6.276908229298353
Ge 10.697988811714612 10.07167196634039 8.912967088304258
Ge 9.1572755058239 8.764485567671395 5.000474521767687
Ge 3.26306248681891 7.842999601026609 3.836995048489902
Ge 9.326375600960306 2.9429979439223817 10.520087858610413
Ge 1.9318604722229005 5.684959074011221 4.429122798462092
Ge 6.855509736838244 14.151647655665036 7.546941694266009
Ge 5.804476397216591 3.4231005570228277 8.677540854837813
Ge 5.5359719582617535 10.080909438741003 7.26855473321734
Ge 11.409459145274269 9.82260726477297 4.405967927082737
Ge 4.326748807002515 7.762976657817067 8.159330029533304
Ge 3.90325281720885 4.968431069786548 7.729143863837607
Ge 6.194360459735193 6.241396995614515 6.735806352734539
Ge 11.907485449354594 8.790225397135497 6.792987508296988
Ge 6.8870881275004425 10.083944203583224 4.909543236072869
Ge 8.098519114834955 9.918133757834587 7.556022665110501
Ge 10.250856867311784 13.741443920788235 6.148688355057747
Ge 10.97394289145082 12.688096862336987 8.575892222230381
