36
Energy = -144.39576329 eV
Ge 10.736436126449615 5.189981763374087 11.330976928048903
Ge 8.375054193632666 4.313031101632243 10.96215657479022
Ge 10.668988716885421 3.530575849199959 9.422786163331251
Ge 9.668722535806657 6.217334038183231 9.13230131709886
Ge 11.098148960257381 4.961766014747033 7.113759318676618
Ge 10.069341177436813 2.3982019375230847 7.136020555276534
Ge 7.696254784196562 10.907718222044963 9.107831786090163
Ge 7.495993920109604 4.940757491023375 8.573712661667026
Ge 6.061432516577677 10.164398403266729 11.151937593363407
Ge 9.533857744850302 3.9163982103790818 5.02366488326671
Ge 6.188650962271045 7.482079705881348 11.454781089391547
Ge 8.182170488011103 2.3326966098754975 9.093903657511401
Ge 8.323587966666196 8.535179877879672 10.259787851121024
Ge 9.441981151494051 7.232698913582772 6.26029562855424
Ge 7.3577600401132734 2.993910339021008 6.505786487577106
Ge 4.881600154640297 10.709976860037012 8.863792224460411
Ge 9.871307798804851 8.369904494983686 3.986286504623866
Ge 8.684534738935694 6.124688176275065 3.5053718580067152
Ge 7.475497939219337 5.56435256992966 5.872743954572996
Ge 6.151389970304668 7.060160907723137 8.905896855198863
Ge 7.661688989452531 8.701513973823182 7.560472194929182
Ge 5.146951234995403 6.7103857209606215 5.538077627628655
Ge 4.0592647967888755 8.548318564522805 10.263302390849027
Ge 6.954988018376578 11.30029396085378 6.507356846171572
Ge 7.772994300675516 9.402059216710043 4.947674339002183
Ge 3.8708673785171506 4.34746744810273 4.684781093162737
Ge 2.531142896598768 6.209548110449967 6.107960524072146
Ge 6.377413765283269 4.481057367063244 3.6586334143043824
Ge 5.636748554746581 8.527022960061442 3.6903413184243874
Ge 4.056871005378792 7.986599091737299 7.625085358778654
Ge 6.7189389763159095 6.994618858643035 1.8708275951893458
Ge 4.720662783730256 10.047387680888287 6.215044843342648
Ge 2.017543979104545 5.5755798440245465 3.123579932375818
Ge 2.723398267844675 7.8430304909175055 4.172061184078174
Ge 3.6419126601418434 10.18144770038013 3.8834654520557557
Ge 4.4436274896415675 6.076579316349126 2.6237948209538082
