41
Energy = -165.5071169 eV
Ge 6.288742176842867 5.401940626819664 1.1624623617452998
Ge 6.940758697065479 7.392691035900969 2.6876104653238397
Ge 7.557194386585462 4.0376316445626825 2.9301575091290815
Ge 6.113539308856067 9.83856709931463 2.795175589439673
Ge 9.90191774735263 4.858376467163996 3.4940490390528853
Ge 3.7405401723542835 10.589127712226853 2.2975366984736074
Ge 4.6162961800277404 4.530553285180258 2.8596987727851837
Ge 8.82694723853747 7.105889661614471 4.272421362632016
Ge 6.694461934280479 1.6930713353590465 3.4456384767079444
Ge 4.1792119209181955 2.362988201725447 4.0877746738155345
Ge 3.662477596671952 6.181589781175 4.525665163197392
Ge 3.018957824132258 8.47194584414598 3.624860288335446
Ge 5.573474079029001 7.85942057957594 4.857323627093546
Ge 7.36668524570931 10.13088086617298 4.999478440009579
Ge 9.691953760423807 9.174353397887469 5.422617723424731
Ge 5.973534889381816 3.5431801509646603 5.420225027583498
Ge 4.050014769495502 10.333782009165672 4.891361513976362
Ge 8.083994197823463 5.06609339741022 5.6711799554581015
Ge 9.985923748571444 3.2554251468594226 5.535899783584805
Ge 7.911213156261254 1.771902185111859 5.644714178461142
Ge 6.519674938068175 11.331822542982554 7.037251242189574
Ge 4.026938318302269 11.819101894246751 6.954907159542246
Ge 2.7970118326376134 5.646793488404876 6.870705785680803
Ge 8.157886695264251 1.113675216076319 8.124390423368741
Ge 9.50495705888278 3.321421492524865 8.062327672606841
Ge 6.283504460583664 8.269258029906048 7.291359861157876
Ge 3.9720924243861138 3.8168208226037503 8.621954840392846
Ge 6.4879489361500955 2.9401235351767383 8.795560986692529
Ge 5.080536580916728 6.104345322960664 8.030560296350657
Ge 7.713163212574297 5.254451607356804 8.591307192228918
Ge 8.405371820460937 11.236737906734188 8.74824600806247
Ge 8.770393799481246 8.76421237113218 7.81421953163679
Ge 4.489173694961263 9.725838528609096 8.437432799598426
Ge 2.9206195779519644 7.584456383395321 8.61701877771454
Ge 6.715632828499065 9.734615918809697 9.78428809374548
Ge 9.030456020407573 7.14116939334295 9.789269866281597
Ge 9.8972651471134 4.6949458548362735 10.238734899716874
Ge 3.904788144176518 5.879840638588448 10.338402128561011
Ge 7.503325792517184 3.9507680242143137 11.00477829671199
Ge 6.362863987681327 6.203470457122246 10.90243684558471
Ge 7.631735327235802 8.219899771211116 11.672176270518957
