43
Energy = -172.95216196 eV
Ge 9.76896362669794 7.054286174842002 1.9559429369226882
Ge 8.874822484725053 5.444072726705971 3.8018578629986672
Ge 6.835812302927076 3.033702778403963 5.328782215604268
Ge 7.633916967390269 3.571711312619623 2.076415351223353
Ge 9.665510687280998 8.347872201283662 4.194821903019223
Ge 7.271590055849164 6.236644696128722 0.9551078571556323
Ge 9.2035264783243 3.919267814649405 5.938058878609977
Ge 6.070005756351187 0.4874236811451286 6.061916980793104
Ge 6.63975816246818 2.2399459673241267 8.063150136851942
Ge 7.342679270584811 4.215937156167871 10.094184827458198
Ge 5.7770274062983695 1.527975090762513 3.4927899212371507
Ge 9.130803442799857 7.705798468657811 6.681888495173206
Ge 4.848655167436278 5.454715704890983 10.16672591041262
Ge 7.589052668984785 8.72236945006847 1.8227970387028902
Ge 5.230627597837084 3.1085256280427114 0.841065273611834
Ge 7.138212741035984 6.958865145440242 4.870672501156322
Ge 7.653127185138292 5.609273909164869 7.1398104177933535
Ge 4.351481058516842 0.9003990346494738 8.340349862426093
Ge 5.627738236807893 5.045747004557165 2.8380740132533435
Ge 3.6446443568588807 1.1919410956107406 5.712232531197716
Ge 7.691628822301255 9.710244997653758 5.319230215337183
Ge 8.133325342602609 9.756968121618058 7.931061466798847
Ge 4.953414877748284 7.389196407651503 1.3271897086822895
Ge 3.2145199464105927 4.769493669597194 1.5269775998462267
Ge 4.576971758137687 3.5853685075353043 9.232996286201244
Ge 7.0489797948629755 7.318607690580964 9.063063454918595
Ge 5.302508950146167 4.439071661397776 6.847317613151444
Ge 3.355971604114374 2.5519178083043625 3.2316966065411297
Ge 2.552102152231668 2.7728638243219024 7.676571020377625
Ge 5.704802909827038 8.774708289253171 3.790213253714995
Ge 4.440466101858026 7.243653487771291 9.690923206616095
Ge 1.5498687922876266 0.868052612238709 4.25292817603666
Ge 3.842056409280008 6.596970988539056 3.747854330240345
Ge 3.255394875751014 4.011135707219309 5.3660426326609025
Ge 5.6373872608843545 9.190776722618853 7.620991419791231
Ge 2.293872421452874 5.28924640626992 9.282967057272755
Ge 3.5366942303177007 9.595821239021111 9.078231742488613
Ge 4.6113164361536665 7.0326231648122475 6.892137665165873
Ge 0.7431787776572769 2.9565048245306165 5.516942061874624
Ge 1.5182885519528506 5.61337822606653 6.615230802464159
Ge 2.2652466877333493 7.703489820009725 7.9141959270611135
Ge 0.23968212832337965 3.7215097094527954 8.41231093856053
Ge 9.76896362669794 4.684312533369038 6.2616530857741495
