42
Energy = -168.59666458 eV
Ge 8.691885750249499 1.4621829489843083 3.238357045914298
Ge 8.725375759903148 2.831835909944708 6.13719999725467
Ge 9.91379323138026 4.38477456518414 4.132824160303952
Ge 7.334977490366098 0.5730721716904557 5.496137165506547
Ge 6.673306648540097 10.376169056645368 2.936806453107022
Ge 6.366831290353322 2.296569134498041 7.587099376256028
Ge 6.891295779811521 1.5246297997270408 1.0280409159986046
Ge 8.462083678461198 3.7727998351386174 1.8767128412904976
Ge 9.363055223378563 5.607391067571495 6.9103436997142005
Ge 8.55567442307256 3.6321556820412146 8.615559353831912
Ge 6.242037721484488 2.5202965345764037 3.7019135101975893
Ge 3.849288078078148 2.4341529050108197 6.564404300054912
Ge 4.67913669267742 0.48618403131094545 4.735435319473773
Ge 7.291676733584533 4.861466558872826 5.2455123308052825
Ge 6.997702749480927 6.442712932728281 7.909190529331351
Ge 8.072928912715142 6.182179065110862 3.240615935362887
Ge 5.876394924890024 4.46550577187316 9.111900288043584
Ge 4.450731489618827 1.0929639293028126 2.1578290877905215
Ge 5.070696266393996 4.689451678755199 6.555937195785214
Ge 4.9889372274496635 3.541997240858842 0.6808650427118802
Ge 6.499762585553617 5.612878230587514 1.1707939400101959
Ge 2.1470758754763604 2.157241773765118 4.3717477764698325
Ge 7.987455361934696 7.5618435655224285 5.6070793541005814
Ge 3.1105665327346546 4.561858520541194 8.349277880468355
Ge 4.802937097255227 7.272540009582196 2.405288454393813
Ge 4.475517758443332 4.721138078046267 3.1130185303410016
Ge 3.6327444364360373 7.23330475968806 7.839289261871526
Ge 2.073279961041938 5.1492559352666065 4.688678989954343
Ge 2.557714616564385 3.276049007176052 1.8206308173787693
Ge 0.7983612658322857 3.432790861035752 6.366572047823404
Ge 10.731475204225502 3.575367947727109 3.664086648947465
Ge 5.769381389235997 8.623121862432233 6.837953074358192
Ge 2.6382920781816703 6.199636009879957 1.4678142789470925
Ge 5.860062468509348 9.041055472865864 4.124991945823302
Ge 4.118179133085906 7.215518671466565 5.169374577395581
Ge 1.0200996109327742 6.088380836782452 7.226772490990459
Ge 1.9078590848977823 8.712312221638886 6.486744228285961
Ge 0.26053191635282497 6.217354347184474 2.831955359575127
Ge 9.91379323138026 5.456645819822944 5.35187094290293
Ge 3.517767628834343 9.999647448707226 4.75074464967972
Ge 2.1334078628931303 8.268289305644812 3.442795427193211
Ge 10.575896610794343 8.005453773991036 4.853833246349837
