46
Energy = -185.44613704 eV
Ge 4.784657298613063 6.476043675453923 9.6290350278842
Ge 5.321011646154264 2.584743632101054 0.8087526390693353
Ge 2.560860890425693 7.899891348198928 0.29796891955470467
Ge 2.6801950194859607 5.133209668391964 0.4853379062694883
Ge 8.09654292158723 2.0325138091819968 0.6073533422634044
Ge 6.894158501582231 4.334143219902492 9.857879343572902
Ge 5.219861662764633 8.77008657709542 1.1788930700499851
Ge 2.537782832698086 2.412866418147502 1.838291644762149
Ge 6.6464450386044955 1.6335087886825488 2.8568505813509835
Ge 3.0685332589090595 8.820618914096334 2.844365254337813
Ge 1.4767653587213498 6.638331822705595 2.3474526452023676
Ge 9.181849605053218 4.372673966507602 1.2787381145574217
Ge 6.805630127285997 4.274904574040065 2.4823547005782913
Ge 8.971670299612649 2.784460953306223 3.411390311478774
Ge 0.6339836176806605 3.9009004548003907 2.989706366318768
Ge 3.359719275935825 0.8705109218201945 3.912972207793958
Ge 4.310179861645235 6.501417659711495 2.1889309752102912
Ge 7.324182210906353 8.26275871242247 3.282359193794559
Ge 5.725105054006007 9.706757980867792 4.249121376505943
Ge 5.280831178466468 9.706757980867792 4.3903381596869036
Ge 0.30604425032496396 1.3131427977365757 4.04509477079173
Ge 4.9608618120217 2.6591139983429217 5.11417210170623
Ge 3.3887476284110405 4.301628162779895 3.4845665318515473
Ge 9.217111001744447 3.7055207900127693 5.256439072435429
Ge 5.179366446519184 9.251585294146977 6.985838376065989
Ge 8.767780800601054 7.122243249313425 5.232480736764039
Ge 7.66430114856327 9.546809793436426 5.693325185370515
Ge 1.8626624734975745 0.08926202384378716 6.194535532805344
Ge 4.209358590844813 7.276167197430153 5.348262241510978
Ge 1.5037063630424632 5.563838665559197 5.03028531050322
Ge 1.8069125684690788 2.800424636217584 5.763540916180907
Ge 6.3642154157197455 6.125175848903818 4.465398460653514
Ge 4.635962314232106 0.44632338720225423 6.574640114097944
Ge 5.131919547200057 4.557033282785564 6.984122675650907
Ge 9.454992947400964 1.2242622194581367 6.58725759432721
Ge 2.223696385731404 4.73442278723779 7.663212893134441
Ge 7.320513763366174 1.6658682129490638 5.697209457163201
Ge 3.983702932702645 6.870425753222365 7.9991241739918
Ge 8.055949095101385 4.399101097772407 5.510270033197327
Ge 6.862123423840469 7.290996466269537 7.118418233463903
Ge 9.901166080462712 3.549723797073416 7.921065123096429
Ge 1.9310739870348166 1.9003182052580938 8.301697952504574
Ge 5.9265161617291335 5.722299501100944 9.309390038519885
Ge 5.799435294708837 2.044597620524732 8.226168315252767
Ge 3.9723453077287427 3.5211803742108803 9.371500508327973
Ge 7.555286525520063 3.988628066672382 8.010347987599213
