43
Energy = -174.09647595 eV
Ge 10.1784150794917 7.2966432336151765 4.863655968868226
Ge 9.86598397935185 5.123138532777375 6.419953398174492
Ge 10.088892552441324 9.439112139193293 6.498038903877616
Ge 8.844858725891514 7.495314870439007 7.562792522340135
Ge 9.17074712206415 2.192046485676766 7.119789762319592
Ge 9.477106406469195 3.150381178942939 4.545082324506398
Ge 8.111973164387068 7.006187077289617 3.1893161208209535
Ge 9.014565657045354 9.529579055531249 3.9818901055003817
Ge 8.855305102088842 0.5741483058922527 4.970712369694301
Ge 7.321759414861835 6.606781332511394 5.642253242866836
Ge 7.52899491223201 9.988838426375365 6.478771406722689
Ge 7.393167649388028 4.085114914901347 6.004137069805914
Ge 6.493560128667869 8.50764746174229 8.840923090887632
Ge 6.7897816488413385 2.8383607177320744 8.198387886000424
Ge 5.714309918932734 4.827391404067477 0.481868238322753
Ge 7.0331389850123776 2.9494230122703518 3.671823028149258
Ge 6.874221242859492 9.120027039012403 2.0681626836874525
Ge 5.218172583315866 4.858927915641024 3.1587093805137862
Ge 5.259084264152454 7.16711580734051 1.366621110346383
Ge 6.277199039982872 8.854038190417244 4.485253977093281
Ge 6.29766500472144 0.5276872196985597 4.267790178131056
Ge 7.104292032771892 0.40788396020952467 6.987066631863506
Ge 3.288150708124741 6.050782684804068 10.411598619407917
Ge 2.8879280896179016 8.04549535601653 2.0070912277434556
Ge 6.507610888301275 6.029776092177273 9.808594174501408
Ge 4.1365769554228295 9.035257654328806 7.680500710179918
Ge 5.263725572387737 6.5930476571958545 7.433024540167494
Ge 5.407926152550885 2.270205358354789 5.969234225270538
Ge 4.163230176302848 7.1083325368300665 4.134210060879285
Ge 2.0887764758049006 1.351475431707052 6.078741081902492
Ge 1.719471189266112 2.1193705433238863 3.5747782881454584
Ge 3.3688980131361568 3.5253558114330485 5.027982076616013
Ge 3.5837041333441833 3.6200082889072336 1.383493582181987
Ge 4.244315412293881 7.8274548654694565 10.20429625474487
Ge 2.346854077389727 5.567691736587628 2.4892363047733013
Ge 4.131975886479337 5.188432700663064 9.505586147968163
Ge 2.600597494282184 6.993158792886426 8.124300148573639
Ge 1.5817583329363187 3.636811503395887 7.139619713069338
Ge 2.1663432879477935 5.825497008197278 5.482441215890904
Ge 10.1784150794917 2.5806394435170468 5.4730461244752755
Ge 0.30851403226982477 4.478042808873836 3.574773291063413
Ge 1.629710959009249 4.913168054130804 9.401780763680582
Ge 10.18323729495399 5.275602725787047 6.006396956134659
