46
Energy = -185.60129678 eV
Ge 0.05975852427719023 4.269430657122816 6.687370436367138
Ge 2.782561546087058 3.2022016639466444 8.933238425490126
Ge 2.1423085045227968 5.459405364001189 7.7641628441529935
Ge 0.37282698126554187 5.911707799108115 4.749438983967529
Ge 0.7454548628957794 1.8993454106869474 3.5129759982889697
Ge 1.4619373781316503 1.9851813335045414 6.140686430440128
Ge 3.645551655564722 1.0814844424722434 7.595509277129329
Ge 1.75635275652935 8.378395796712184 5.2996181123803
Ge 9.857905415343382 6.237064487157768 2.2632095030613995
Ge 4.8087854972473725 4.7818095045561035 9.555362788953742
Ge 5.176441311794821 2.0849031501688193 9.620707534882513
Ge 3.96237250492157 7.157256164129646 9.060875273979056
Ge 2.3924372014207833 4.035163540868993 4.978386230162468
Ge 1.9465562916414985 7.651052415792845 2.832862604169197
Ge 3.347009668172476 6.40925417161033 5.559333536522582
Ge 5.014380130316958 3.450260464761142 7.071200692395028
Ge 3.0266333327231516 0.41808521428547313 4.10392385533662
Ge 5.399389775670577 0.4924447780578096 5.241081168553187
Ge 2.916377679742439 1.7144409437873103 1.75586166967805
Ge 7.109372483117625 1.7664000766630108 7.707844172079081
Ge 6.51650014169675 8.194829577488623 8.918243135176898
Ge 4.503758978674698 9.298626203775147 5.342743555120007
Ge 1.4033714828422712 4.220295395989493 2.5042650316445783
Ge 4.620214355537994 2.701492688254414 3.899746296659588
Ge 4.292599384411465 6.1236881534935526 3.1205737807558216
Ge 7.208271719384391 4.026963421806228 8.985142386944094
Ge 5.094453466671896 0.15965962077228096 2.1925258729075994
Ge 3.9005654876399167 8.27787148746551 1.448603832544937
Ge 5.54236710658414 6.436618926033532 7.043206069114666
Ge 7.967137971132474 6.311905565417995 7.955142749129177
Ge 8.588779362723976 3.0749518438785532 5.961115364346422
Ge 7.243156289888754 4.736369124780792 4.462822529249763
Ge 3.7768213680789646 4.532369934274324 1.2858562837268834
Ge 6.828803497706833 9.074667111480943 6.4940929180934495
Ge 6.166827390229628 7.473742956401943 4.197846739383106
Ge 7.064611864752584 1.514157856097549 3.5145040847339524
Ge 9.583541036120614 5.434101753324665 6.098389939643924
Ge 5.746460220943926 2.6688470549031615 1.4076813250552405
Ge 4.487229571885939 6.512358594550613 9.620707534882511
Ge 7.800344706866588 4.456175921727661 1.8126783885796374
Ge 8.691511023279254 7.7337740150805345 4.784414181776765
Ge 5.416873339886393 9.768297237859972 2.9350260607438505
Ge 9.407296080940323 2.7309591945773457 3.55156151616832
Ge 9.697824485299614 5.372311967344352 3.3590282428994205
Ge 7.693793980968504 8.609227123625555 2.3404877704291787
Ge 6.404604012284953 6.591199094356509 1.3145774696290715
