43
Energy = -173.16256803 eV
Ge 6.279156604290649 1.3761910827330155 9.045205432145567
Ge 8.778276587842166 2.075938982867416 8.418842964449425
Ge 7.673854485300635 9.93919684023872 7.182303655453759
Ge 5.376570607507154 5.542781624536825 9.588413839708029
Ge 4.28939089446064 3.13199050261648 9.195254663549557
Ge 8.908275072450651 2.6267413810401905 5.863956443515291
Ge 5.025983052597785 0.5900044112590977 6.829371568163739
Ge 6.81599424022681 3.771218583761806 7.8194562636287115
Ge 7.799908454769414 6.077232195595067 8.539636529597242
Ge 3.353493093237013 7.1622313269822975 8.601172643173635
Ge 7.056800447137726 1.1056002190132215 4.9559870324863455
Ge 1.5094891001516846 5.047413580637268 8.342821866906906
Ge 6.190122244175494 3.5682770395915377 5.372139451570626
Ge 2.5296105001864877 2.7157887976214865 7.277479175787664
Ge 8.323789654230392 5.1310502099953315 4.706695009974414
Ge 4.052290062602791 4.934724765099514 7.119388962778408
Ge 8.633043177168247 3.5643872266047887 2.3638867687399765
Ge 4.573079227554469 0.6594777785366029 4.051819794295946
Ge 5.971468294319862 7.87025807550666 8.057981395472769
Ge 3.5925358644063783 3.010208864099395 4.8637001794466626
Ge 5.9017617994839595 6.276763701781505 4.711018465138459
Ge 7.979688120824175 7.492127385931488 6.1511175734670545
Ge 3.259745360106458 8.986640075281953 6.56339949365192
Ge 0.8235691902583574 7.3918678229911725 7.007368511718555
Ge 2.7839137729599024 6.78788081013873 5.09658111667616
Ge 6.984124116016013 1.299233367129015 2.3851542209101684
Ge 7.562783311879252 4.904760841656395 0.257120041584915
Ge 6.058197365288286 3.8477596714813505 2.2621583752421115
Ge 2.255629600724808 3.553058171634743 2.669476822497201
Ge 7.533104295035395 6.534781045674155 2.4835960169789892
Ge 4.132808281336072 5.548597040691065 2.9247824601015697
Ge 4.382380095058242 1.9506122625825966 1.535196965096435
Ge 9.943539486764374 7.192690597280817 4.50655990238475
Ge 0.9583140701894762 4.956009488079209 5.69477044982142
Ge 5.680880532563889 8.756120416152516 5.258877326086061
Ge 5.329102391681113 3.548902110596551 9.588413839708029
Ge 1.5944414124372344 9.227611441613945 4.401490315349361
Ge 5.59813985122793 8.476930789337999 2.619165469495372
Ge 5.333974234315408 6.542579651906883 0.5097629970811796
Ge 1.082220515900525 5.898432731086749 2.5786694785362965
Ge 3.248876047001711 4.9419867089242375 0.47084679632682785
Ge 3.0057050992301866 8.134729525039281 2.455627519759196
Ge 1.7406004713035579 7.125151949339798 0.43938193426283817
