48
Energy = -193.92814157 eV
Ge 2.890058476427066 3.560490868890804 9.576032331934929
Ge 5.420254393206136 3.5434379864108037 9.89229768576016
Ge 5.064636611453374 7.743746192373968 10.557300781584866
Ge 3.479813202064891 2.6354276081676336 1.451689384386962
Ge 1.2704283765300997 5.524989379692976 9.286074122328026
Ge 6.859467213385105 5.639288160258812 0.16474548345215584
Ge 1.8173617106122208 1.2783457601859185 10.124587378730732
Ge 10.456299526985203 4.149365495562046 0.38331331757504505
Ge 3.8937505943941426 0.07367119392904849 0.5859052779268296
Ge 9.98769986320713 1.6819205801441084 0.7068679870214332
Ge 6.055219185795915 1.5027337857688616 0.7951155400251891
Ge 2.8338731747129855 6.450027283501019 0.5363858430972319
Ge 3.668958270155759 8.49027457408139 2.1544095588656162
Ge 6.512906119874569 7.542814645080909 2.2426624974038973
Ge 0.8176662277951866 3.0007446144615098 2.709061169184497
Ge 7.891247910751133 5.172900034156219 2.5161887087931616
Ge 1.7195915056681679 10.338817900430342 2.379296579219291
Ge 4.081514717583288 8.875382906669824 2.612910829281615
Ge 1.807534079436082 6.381728922810353 2.8926073244945076
Ge 6.469208566055802 3.0411728807165814 3.1056467376292125
Ge 9.168993722858284 1.5620779792954822 3.3021724747434575
Ge 9.998402074582806 5.506525788965812 2.4964300362587766
Ge 3.718699798333259 0.8965972768359228 3.8369232541590286
Ge 4.683841489673419 5.06624427036667 1.7565917369332253
Ge 9.168993722858284 5.845378257343015 4.618799062348625
Ge 9.156996624340758 3.161745335019548 3.8949047262843037
Ge 6.360101112456411 0.18259031651382363 3.2683595655763806
Ge 2.8193251398100276 8.143483135781684 4.702453240026713
Ge 4.902869881504807 9.496622661485857 5.310520548819425
Ge 0.4910176076508136 0.5094746831006003 4.80991393238857
Ge 6.725011750117464 6.219650256099799 5.959602945333926
Ge 4.954550349177767 6.766105545901321 4.131260587953317
Ge 5.466353529383189 3.9503577100030256 5.414380214034381
Ge 0.40357731220257165 5.930414984562328 5.751112050595614
Ge 2.949535709729692 4.890873140392161 4.684165370127772
Ge 2.0867641493574336 2.508356282732569 5.358562444262685
Ge 5.155994426833248 5.353835820961389 7.948325328980054
Ge 9.367278578200242 3.904836335675682 4.463205141574602
Ge 8.257033761110787 4.023307658629756 6.313428102945003
Ge 2.386941340229779 9.049829466472833 4.746004282309391
Ge 3.545311631280558 0.6482963366747743 6.787598540866914
Ge 2.8941723391973304 6.198167855812423 6.928694461454733
Ge 7.242420940956434 1.7893863405618502 5.389042124366932
Ge 10.514306286015362 3.3393941219230636 6.832378301295327
Ge 5.2665720425661 2.5658259820364213 7.631874891527499
Ge 0.8041293799733008 5.316556664991562 8.372338067704876
Ge 2.7342731503242996 3.6087928867722496 7.78102319898623
Ge 0.871255392256528 0.8862613233052589 7.357077909738943
