44
Energy = -177.23344285 eV
Ge 2.9477768193385905 5.648892176727093 0.09733200196879979
Ge 1.7717140396151205 2.2186411622988813 8.063272818094612
Ge 8.790893136883922 2.480708583434098 8.148878796342816
Ge 5.935360427496804 5.536100290313105 9.69930378246609
Ge 0.6534097504430882 4.789339641037567 8.378624332457681
Ge 4.205292403814 7.549355403069409 1.4489892040540837
Ge 3.882170807435924 3.96615901345319 8.19819384995891
Ge 6.256359021015546 2.7890961006051684 9.747819552322753
Ge 6.461572597167848 6.449837796097382 2.5200685132401404
Ge 9.761671514711914 0.0898438155351918 8.662588857029542
Ge 2.520388490248332 4.281372135929921 2.3295352045751976
Ge 0.363157525077559 5.589713252200915 1.1911442698821464
Ge 2.2301284709504987 9.74813639398314 0.2315043325072159
Ge 8.059382776080271 4.634945753808448 1.3412882134697857
Ge 0.7448137411858496 2.978315201684748 0.7021950563112214
Ge 8.059382776080273 4.102527365662525 0.3179492745065268
Ge 3.522318346629187 2.2042382134758958 0.582373672728074
Ge 5.267482691241737 4.057886158174871 2.0935323470177383
Ge 2.9908748210924085 8.780175392006651 4.094259752646235
Ge 8.515109987074542 1.4485041840490709 0.9274249996598549
Ge 4.476007485037822 8.765950401915967 0.9334341851525453
Ge 2.2103719414950658 7.690840250129624 1.9418221061510588
Ge 7.314467956852058 2.2353346315782763 2.3923833883444727
Ge 0.733407430460897 0.16317835909507805 2.46893600678798
Ge 9.216942282274172 4.248404578047473 5.1566754415791305
Ge 4.980172781049044 0.5852457691075488 3.131414275410631
Ge 0.35531503024512767 6.681226082138148 4.233439844048572
Ge 2.5802884126130023 1.8395359488614693 3.526823621924044
Ge 7.001826998616737 4.322231290243897 3.9983375943690787
Ge 3.2156997794646065 6.461191521905346 3.713294536756786
Ge 4.507299884578432 2.825491398740972 5.146593290107906
Ge 0.963197605177753 9.509742009056508 5.567026288192825
Ge 5.40474563353906 8.277098786945826 4.813337890538231
Ge 1.8835229614846416 4.6777781359163315 5.442061691356673
Ge 9.767184545723019 6.308454970693335 6.89184383491584
Ge 0.6319019210303853 3.6821331738854846 7.59649019872299
Ge 3.2230208882875027 9.021124238429326 6.843957298364425
Ge 6.425921408530797 1.069356114842402 5.475703754690825
Ge 2.1968147377775873 7.607588982996259 6.017708967460183
Ge 2.2510333452442453 1.8072065379519877 6.414027248427135
Ge 4.345119896526138 5.4449709232274826 5.84237473721009
Ge 5.743277949552199 9.08435528694939 7.3448562723808495
Ge 2.4907711850654297 5.703709777187596 7.932351516627639
Ge 4.5812589993854615 1.67727766583645 7.634850215653498
