43
Energy = -173.02416636 eV
Ge 7.937663645962452 8.733698456814864 6.632223925562422
Ge 5.807750176163905 7.577450862690778 8.190448673254426
Ge 8.210192124571005 6.037573588039145 7.3683650714653295
Ge 9.221330034205595 6.974108089224021 4.949050017668176
Ge 9.453186035458945 4.339095695929983 5.648009129702781
Ge 8.251884392508277 2.796670041247758 7.463446987703063
Ge 5.382962183915953 9.908025504856818 7.030975007413581
Ge 6.668529018368637 9.803405057731515 4.489364871321603
Ge 6.3637014481033605 4.458278960773376 8.557238713734861
Ge 9.195843936528748 5.9976500740403536 2.4982911124654397
Ge 7.361561569167667 7.758697824795077 2.862818465515165
Ge 5.549238674303238 7.467700622680356 5.38923524382143
Ge 3.877000580323564 5.490841839698 8.397095341682112
Ge 6.482435556557536 5.23027784589469 3.069486781013559
Ge 7.088598384835594 1.715194061771002 5.410199156253839
Ge 6.595094940226304 4.362021181967893 5.831286525391142
Ge 5.083427317985803 2.119232777027552 7.9815868461886765
Ge 8.595960036246884 3.6110123244446397 3.3160589580179343
Ge 3.2863117375215865 8.172153730288747 7.1088758795123965
Ge 3.950570845042699 9.926381887366398 4.886141390670364
Ge 5.546896012013424 6.841635967032539 0.9861296906937062
Ge 6.413894014378929 4.351711201083012 0.4543254281184828
Ge 3.603793387457565 4.295126501522178 3.5930921495444905
Ge 2.5030705464910943 3.0696305511325592 7.7501297049295985
Ge 5.2971691288076235 2.751354354795097 2.253148649095641
Ge 2.954961901471095 5.374678135836165 5.938073395842105
Ge 7.410289698434443 1.3777031350260664 2.9128882694265905
Ge 5.374477617972082 10.076388445717287 6.430315910276586
Ge 3.278052497666935 6.499390050249244 2.2120802123937713
Ge 2.612926914871772 7.767755422520777 4.329043941198757
Ge 4.050453912354966 2.2742785225065503 5.525535381449572
Ge 2.8494542001014262 0.33614951155635825 7.504711859166971
Ge 3.853211782955076 4.496379257747412 0.4815390356157333
Ge 0.6451211691473967 6.513927045652866 5.413829839193642
Ge 3.192399337516891 9.942723468872396 4.847748057029386
Ge 1.2994856731629738 3.2189310560843665 3.1403520617231186
Ge 0.47736857354512385 3.9989896264614053 6.267552047459324
Ge 2.9820764853788093 1.8033165673531675 1.5316196533376738
Ge 0.876645121207584 5.5578279152401056 1.8121782467753942
Ge 1.2087680532761569 1.4875901615322484 5.638358658142407
Ge 1.50788665129486 3.5264463013072485 0.2071427124267783
Ge 9.453186035458945 4.845694135289807 3.8082708900018694
Ge 1.2014976347417587 0.5909479682315869 3.0458082946198877
