42
Energy = -169.74594037 eV
Ge 5.893432239532586 0.5815189974524871 6.162689331986988
Ge 8.362574874391724 1.1570216887640656 6.753796425140273
Ge 10.567102943620757 2.381305023098707 7.2204365330926805
Ge 3.1548670507651395 0.896128577514877 7.176863422186367
Ge 0.56795866529994 1.4997943471107147 7.094046233711495
Ge 6.931461549864384 2.570162036411987 4.765506342373454
Ge 6.186673917803118 2.6817544319522355 7.581795480266249
Ge 9.600032550802794 2.753658985111907 4.654380820902818
Ge 8.421353088800554 3.129334526107173 8.870758199122488
Ge 2.720104811506658 3.2983328346928484 8.454367738907848
Ge 2.0304459357986824 0.8839407371350844 4.802278522658678
Ge 7.724012641593584 4.856527980397147 1.8614276743170977
Ge 6.1676962364102295 2.7949587820304025 2.066846141997416
Ge 0.560541633540206 4.283738449576988 7.196871890945554
Ge 6.2257723341614 4.255034432772762 10.428768342911512
Ge 2.7813090639423987 3.202657662448332 5.8347148932812605
Ge 9.379057676761022 4.550669806057086 6.594993009250148
Ge 7.383569336367935 5.6660166160913175 8.399426419921562
Ge 10.567102943620755 5.464546861864637 4.761960294571354
Ge 6.659120443421601 4.920701816413246 5.80910230374147
Ge 4.794164543319186 5.303287250264257 7.759981968143272
Ge 0.3402210005268616 2.8727968598058724 4.8282140354405225
Ge 9.092035560782872 7.126303854250393 6.68622625061015
Ge 7.723969471498604 8.247195709159923 8.634417607030173
Ge 3.947046375757146 3.6503167292181873 0.8434559902004813
Ge 4.983995024311786 5.1177540321522175 2.7174337827929818
Ge 9.674324811032943 5.2683462815426845 3.5080111543064865
Ge 1.9204901117320252 6.547952408479424 6.3281980524331
Ge 1.9302656356096441 6.239994375986952 3.579132720544899
Ge 5.157076096829588 7.9852881249937955 8.112614306291922
Ge 4.5521728552585525 7.979987804187503 5.485904051081423
Ge 7.182848270778195 6.772451268915338 0.1338745972958414
Ge 4.00644127367204 5.468096467250693 5.080809379340019
Ge 7.71457294057019 6.750332923748411 4.352326575434273
Ge 6.992065963490407 8.911114915928495 6.029538513823216
Ge 4.469109293489749 6.213250485546716 0.2153314367313087
Ge 6.110677763339178 7.411669148895817 2.364038154808887
Ge 2.6701110954884815 8.918126224663876 7.156495306114596
Ge 0.8042927941406024 8.459311210310373 4.770863123416883
Ge 2.5422915776559276 8.550517833616434 2.6310554544743145
Ge 5.060806681477146 9.548938840746015 3.480340958196201
Ge 2.8803823828020336 10.186987869581566 4.811286421047412
