48
Energy = -193.70703743 eV
Ge 5.170472506221603 7.171598794509554 11.2252874753759
Ge 5.424389166866399 4.730790778945 10.254138748878672
Ge 7.8008880117242505 6.487898435532071 10.664723588638234
Ge 2.8689230577578537 4.241761206319543 11.615175060610447
Ge 7.848154250429672 3.8198390553117907 11.143685291892657
Ge 6.087584874543953 0.8651952510557074 1.1300450696599964
Ge 3.1778056322730315 6.6449056888688665 0.9947501262500807
Ge 0.6192656451755884 6.2372541504384715 1.3016055794136754
Ge 7.057779860687738 7.7458955785596455 1.1227846211593788
Ge 3.788278207437107 2.1887790190930336 0.9202240442099946
Ge 6.167406811208825 5.241985583262164 0.8642068493650421
Ge 0.6446990694980959 3.641191008787032 0.9406580974031482
Ge 8.837577836964691 5.72448725852688 1.0349512845484568
Ge 7.920857804390102 2.6884116725689773 1.64615380338751
Ge 4.052995080158976 4.383890948788602 2.33484396586419
Ge 5.6741769773378445 0.024531045223663436 3.558545020817888
Ge 2.127824358999065 0.7219265410634637 2.2302064439754807
Ge 3.604322093746133 7.852046221236177 3.2930955942996367
Ge 5.858784016189393 2.623666024035995 3.3336341000181062
Ge 0.9659844465153343 6.780797104790419 3.833865051136762
Ge 8.344759830966291 0.5143528968626606 3.201849406846136
Ge 1.6512876678883934 4.3795225055849025 3.3347848164939298
Ge 6.283371239223897 7.965034139271203 4.04550330963192
Ge 4.676613968299142 5.78752304438094 4.464405379457655
Ge 2.9208503155415415 2.0914787631444693 4.409286154590188
Ge 3.1410620168877252 11.011299978865871 3.9992738128427856
Ge 3.1588570111640313 5.48925345652618 6.499122610848413
Ge 1.8379137805027759 9.02455632050957 4.867243575921402
Ge 8.437336404638556 3.353882160104136 4.126452478016483
Ge 0.22924708316089348 2.129635726316039 3.3167757230828756
Ge 7.087737742779877 5.634657091990572 5.29493526036889
Ge 0.9569762372462515 0.3563104253481813 5.155274375745994
Ge 0.8676402459876634 6.792753042004411 6.428114607760839
Ge 7.252332899575323 1.4378761911146953 5.396337515590753
Ge 5.69886457446054 4.6653548034429075 7.270096671634014
Ge 5.913739915381251 7.686293387125162 6.765298958286881
Ge 4.444638389190416 9.580777409468825 5.297371619932128
Ge 0.49704757891781515 3.761414132244537 8.144055381860962
Ge 2.9509123659516168 3.050636902967412 7.685254784814007
Ge 3.5013218413338785 0.37069212053013156 6.450465759909544
Ge 3.0949664623732094 8.133382599873718 7.228345545009186
Ge 0.9881234992355606 1.1225441637179483 7.759216240717337
Ge 4.480022515876071 6.3030272230199875 8.833898508992444
Ge 5.388618804984914 2.02916157715954 7.5269133989942425
Ge 2.371917022544259 4.74748386886633 9.820918765175787
Ge 1.4602634470779094 2.187497601261624 10.254138748878672
Ge 3.1937537293353926 0.421086644299279 9.214395206085662
Ge 4.190876852088108 2.7988178659694927 10.106586007089577
