48
Energy = -193.46220596 eV
Ge 2.546451348490478 3.789720282824793 0.7799887984604583
Ge 4.564369346398365 6.3271197584940495 0.24586437769989425
Ge 5.278935393019412 3.4350548414352 0.7597362814332961
Ge 0.5089984287435098 3.2108153669551074 2.394508105374264
Ge 1.853589568459826 6.448928577549295 0.6843285858311832
Ge 6.252492627832552 8.655217231807844 1.1053748209069283
Ge 3.7180254507417785 1.2462607489649637 1.5623801879609958
Ge 7.182052898470829 6.144418239249944 0.6652493868107604
Ge 7.5493364781204475 2.990249000801451 2.213669844234774
Ge 3.530281685846288 8.506500320206491 1.5423434434429242
Ge 6.313297833319276 0.9717915886513596 0.8972620474724464
Ge 2.4746956531301647 4.979928133474802 3.2168657356279726
Ge 9.25711946731468 4.904326454816491 2.5787703739270396
Ge 7.897860259773679 7.373388457025436 2.899807299205052
Ge 9.860992139638823 5.858756296405241 2.1625912865071864
Ge 5.339392956987152 6.298061388310796 2.7690530842469556
Ge 1.4094710083807538 7.356270747692401 3.3516571842394094
Ge 1.78376775479516 0.8192976155886231 3.7844882594032394
Ge 5.15065242616804 2.70862064239759 3.5123324299463525
Ge 5.406988470092403 8.717743727046482 3.728997037237889
Ge 4.998937723974117 10.01451457152136 3.285549867594978
Ge 7.284711760051863 0.9037537976206605 3.731560106622884
Ge 7.212044067527261 4.845933379875121 4.443083742783338
Ge 2.8672838261304783 9.37179351184321 4.030956228564517
Ge 1.02211233627575 6.5999461454170945 6.331433794436953
Ge 1.1876277168878384 0.09968361645901407 6.3893631965072215
Ge 5.548993502031633 2.404190301871171 6.391153027852566
Ge 9.860992139638823 5.08240106410358 5.2218759084223185
Ge 3.070719901867654 5.091191757563199 6.424983498398925
Ge 3.833228217875932 0.2444718091153493 5.834339440879823
Ge 5.550804730738658 6.075129449976663 6.263673435974686
Ge 9.52072271508271 2.2498421216254183 4.472206369019086
Ge 2.616015444203488 2.6434536509609616 5.452450889459926
Ge 3.2396290372926333 8.123555611305209 6.5637761918897315
Ge 10.213895486041816 4.913989442135777 4.52211252399158
Ge 7.901333572992616 1.0144122932375594 6.3607787538641976
Ge 8.063505607098774 7.227571533754463 5.638736810132841
Ge 10.013929278799983 2.2269891400356334 5.064817765904497
Ge 5.17256460960086 2.7429638449388998 9.087377272581861
Ge 5.908708389732132 8.747063701599108 6.357649782119905
Ge 1.041470616245618 5.074484136806389 8.516165482462153
Ge 8.430595414075803 3.485981469449637 6.618915145882783
Ge 3.02700862330327 1.36089326663879 8.067916394778296
Ge 6.739643564267536 4.67211255720624 8.188571017815919
Ge 4.504018726553493 7.120941149920545 8.69187248379595
Ge 0.83860533200359 2.732066068034947 7.42589939055598
Ge 3.5474776511993564 4.734963193622328 8.913009094129558
Ge 7.115254692331539 7.219181128736495 8.39811557644529
