47
Energy = -190.45764745 eV
Ge 7.52998333184152 5.695711968039605 1.5759372533580807
Ge 4.982410094753734 5.3222686791421605 2.3020743592420745
Ge 5.902436549140115 7.80392582912932 2.558950920043856
Ge 8.470294720786221 7.862841142852439 3.2423984578661846
Ge 9.22969112267892 5.186702886108691 3.7183620534341904
Ge 7.002190036899041 3.717672499535063 3.1493069833809844
Ge 7.823091455231367 8.644563596307822 5.723858772840764
Ge 5.1167141042055695 8.439915346152045 5.236402295373732
Ge 4.7006723549507665 4.583386977449506 4.8560562773488245
Ge 10.48606319575005 9.107527619982198 6.2255160793561775
Ge 6.814033216138082 6.097216198590672 4.409139748200563
Ge 11.974915649371033 7.106894388336854 6.238860474203748
Ge 2.571377530587539 9.021179411405697 6.0200629812976425
Ge 9.668413204629163 5.8756739067326365 6.411230654248599
Ge 7.690197012981076 10.659341606826532 7.374731934940515
Ge 11.953623576718673 10.894301161660085 7.861275689406033
Ge 6.144416557610531 2.8303181953076395 6.0875417852137375
Ge 8.68763955150401 3.53615496238906 5.802852606029754
Ge 3.823828024282154 6.477611750784464 6.504243817619609
Ge 4.442325388730745 10.823033127663512 6.126685309360434
Ge 5.615193169974827 3.019432408875033 8.70276677133417
Ge 6.165235259879569 5.0853254654862265 7.238739431755675
Ge 9.982636084045154 11.638983173186736 6.259227993654034
Ge 9.082950861219338 9.205693204477518 9.050504100717166
Ge 9.66992735373187 11.876854168857104 8.949570343581549
Ge 11.506116115522179 8.068530171536029 8.679099388569517
Ge 2.892091344420793 10.403469905457833 8.264853374424153
Ge 10.257744899452234 3.669466526900768 7.86905106234706
Ge 5.480562266431493 11.249143128686832 8.70754625208457
Ge 8.00852028017781 3.6338205151191656 9.11890648912389
Ge 4.909807780697809 8.689101246835227 7.955313790002589
Ge 4.259896220958481 5.2135904784973865 9.0392199600584
Ge 7.679389334097641 7.052670320996489 7.732079833779519
Ge 2.5180666400902068 7.760297507428925 8.617995806922302
Ge 9.732442664482061 6.0372954460618455 9.110023801990932
Ge 11.260166419049852 10.113381788786196 10.303729395736688
Ge 5.405538935829534 9.779821705654681 11.114627662704283
Ge 5.5573299636494005 7.023806831516619 10.38376221480529
Ge 9.065359113011619 4.583386977449506 11.156076187891944
Ge 3.4983320499588806 8.1234204241265 11.391894767852643
Ge 4.598254298257544 6.075568136101204 12.824131768510684
Ge 7.176826629955301 6.046852975121564 12.19607609680831
Ge 7.699334557072783 8.514363244945724 11.103858678082242
Ge 6.686610235823591 9.82366248065875 0.472172006939699
Ge 8.6930837048871 8.033741789252067 0.43290500707793933
Ge 4.321505865069485 8.668262473202672 0.8850057645183319
Ge 6.411831370642345 7.2354547187951805 1.5759372533580807
