42
Energy = -169.12843795 eV
Ge 2.2330431861648363 6.757025522501153 10.241640171479357
Ge 3.0337047369696646 1.8888220563481553 9.369546742137691
Ge 2.765317854935583 10.482822690947067 10.134133093793155
Ge 1.5472730059014037 3.903549232916001 10.190890095260759
Ge 4.988698575825331 10.518410865045885 0.2544867856084081
Ge 6.326225267353716 4.229299181215838 10.976889679570778
Ge 3.8263380747817517 4.845531297242673 0.12007824513185164
Ge 1.0255905072769493 6.888744079700043 1.4628770538132427
Ge 2.6365475154798186 1.4114660490530324 0.9142639206765117
Ge 0.6694068049557731 11.05507144942016 2.195464581361674
Ge 5.025041056104744 1.9382612792542153 0.08606641985978442
Ge 4.012149250252285 7.451333337711744 0.8547411882573214
Ge 9.184601720283176 3.6316581429916734 1.0177268196612135
Ge 2.5481259391850806 9.510843879968151 1.5095929087643194
Ge 0.6005925982621227 4.3491431955609015 1.4477273188844635
Ge 6.320710723696728 6.41696314385007 1.4997830214123595
Ge 9.60928072343684 6.19021122367048 1.8193293503958865
Ge 6.2473844976665145 3.620427101455075 2.4499368599387985
Ge 3.8880187604038334 4.5916606828201925 2.6485588556204207
Ge 6.610253144605077 1.1250100248439365 3.541109213297849
Ge 4.897162583888999 10.174070170709337 3.720760592942924
Ge 4.868462155382413 8.47135935988705 1.830074675826601
Ge 10.29868602356305 5.502150002492136 4.2782090567218
Ge 0.8753642810382258 10.809083595796977 4.877311574995732
Ge 10.295963040042666 2.589520397354624 3.263786831642068
Ge 2.625365860614416 6.932659864807735 3.4707142472942127
Ge 8.08464307661757 1.723709160068334 5.693738130866038
Ge 8.08464307661757 4.116553050823542 3.3921241952111036
Ge 3.229994494603583 10.049192050298185 5.813032556646423
Ge 1.687966148799507 3.979351929750679 3.9424701480025672
Ge 4.618013678471785 2.38692936130133 4.693374237186703
Ge 7.103749917496639 4.014563944864868 5.001448968994948
Ge 5.158633849623211 6.540108412357485 3.9560601093226837
Ge 2.880068428610274 0.7111220087556234 3.590997946244535
Ge 1.2915708543936864 6.167852905587705 5.523933178781851
Ge 5.937163588454959 0.23147478611163821 6.1722898231612096
Ge 0.4658011686292391 2.1438415884693818 5.583592602143065
Ge 9.251010293119531 3.568466512938512 5.649875239281371
Ge 4.744153873034433 4.639407120990868 5.977745575316505
Ge 6.085201789831643 2.7450202769345675 7.436673963582595
Ge 3.7248924078415193 1.4734233097889895 6.981888930308213
Ge 2.1087577768628307 3.842624580972037 6.729044143429406
