40
Energy = -160.66740093 eV
Ge 9.342480927793812 6.045216602773203 2.8427185362989644
Ge 7.367556619363342 5.0356352926616825 4.1513448688171515
Ge 6.334399639105269 7.107403160733452 2.9603440731738586
Ge 1.2976314555644344 7.311113382680514 4.882093859395558
Ge 0.21355453844936664 4.928116446872123 4.724917641163216
Ge 8.670482578266766 8.587483647694802 3.3099827522819654
Ge 6.3007415687208495 9.308197852026236 4.368463247439846
Ge 9.193927640885178 6.609964653314707 5.3363374604634926
Ge 10.093479642806086 8.98126218478023 5.281372769866191
Ge 5.0234492495099765 4.918516587994796 6.0789473995560686
Ge 3.279124283603874 4.973793008151811 7.94678144241197
Ge 2.3487130281837687 8.280834774327628 7.099865540255421
Ge 7.116581712112661 3.260914281715653 5.688600551568271
Ge 6.475764026190561 7.063957240503856 5.5803052733435425
Ge 1.6975078719070364 5.6323799819451015 7.161373781217391
Ge 5.307027407568988 3.2609142817156545 8.18627308371526
Ge 0.38213281091283746 3.2677942410605727 8.294664946044486
Ge 9.458058806378896 4.038395394378978 6.489654736308343
Ge 9.695557924308712 9.69750495136635 7.795424493983273
Ge 7.600283197134817 8.291434235985854 8.408637881675599
Ge 5.749483810416647 9.307011716417398 6.861142674770386
Ge 5.414682373826629 6.519233410314044 9.389080011814203
Ge 4.181678793860757 8.964223284256844 10.047865551394889
Ge 4.191539430604444 4.53147456861567 10.554578467609275
Ge 2.69751179763005 6.783450457365015 10.12361896228205
Ge 9.518760956662442 3.766785576703978 10.141487303748217
Ge 8.89509168147348 7.667765555317822 1.525329900044882
Ge 2.69751179763005 7.185088174589555 9.449229764864478
Ge 7.381672752895123 5.2939969520298185 7.687822706216198
Ge 10.762281591779312 7.255553644226874 8.241873012526197
Ge 4.009067029912223 7.606965898383972 7.660545852152363
Ge 1.117305112592696 9.49780085032426 9.221407645889434
Ge 1.357505007101829 4.97489565243649 10.148176674091154
Ge 8.911411574857588 6.394063121864313 10.049979580322681
Ge 6.6174198601316565 8.624685970189955 0.01953839136184296
Ge 6.90514654400461 4.07324942844831 10.13714031340347
Ge 4.702177725455382 7.07484821965466 1.1517233175671544
Ge 6.959395012959882 5.882836122711407 1.2318733849702825
Ge 0.4582050350720263 7.615560996925735 0.25139839834529
Ge 10.36780619201685 5.202377887184135 1.3045958756360359
