47
Energy = -189.72449867 eV
Ge 11.075503284027773 7.058750239088851 3.343116215972043
Ge 1.3939452539660524 5.764334087311883 1.6528517346530414
Ge 1.5935880283281694 8.628352125676011 4.370111715287077
Ge 1.1989151587503464 3.1309275816363082 1.5715199471391539
Ge 0.5876839405192321 7.089705970104789 6.37079300968738
Ge 10.655336033645916 4.904373446153069 5.009910028374697
Ge 4.026507271911879 7.851203519919086 4.020144564916968
Ge 5.545060448571758 9.936258843788721 3.3293634637381806
Ge 1.9303413263611502 5.800228033130032 4.241533375242645
Ge 3.300156380516448 3.9489810337343174 11.21226922555622
Ge 4.926426333918887 8.411855508945328 1.3084020521285415
Ge 5.211302262660079 9.77942068537664 5.952312683950444
Ge 2.759951243020171 8.71066983438226 6.9172073939615615
Ge 0.17693464716523144 2.6770292655907624 3.903751132495379
Ge 2.8331098480045336 6.235067807448703 7.966943412759837
Ge 7.556592910972687 8.482996129378552 1.8619273160517418
Ge 4.007055143752207 5.994262287905877 1.754981383340592
Ge 6.00755689740126 4.398340699624164 0.8878861616004491
Ge 7.84747887224326 9.296107282755392 4.805265725230045
Ge 6.9390523193949765 6.599786322208171 3.8943934100951103
Ge 5.102914082247577 2.0439824766517574 11.275388652950268
Ge 1.4823403002647142 4.317065294360677 6.423629120993918
Ge 2.9277803881374527 1.1174656891670935 1.1838791290696589
Ge 8.220644086894513 5.905076971547888 1.613927016124409
Ge 4.830786524896332 4.247624309620741 3.542458934568489
Ge 4.8226316754320235 6.925909691548713 6.275986774590696
Ge 2.9435812946466586 2.5013636350416704 3.4682675688724505
Ge 6.885980301338361 8.086370771165022 7.264142937394468
Ge 7.173346559196712 3.714841172245524 4.879067113983759
Ge 9.624374202860713 7.718694884215392 3.428420788009381
Ge 1.7432650650071126 1.189396164728892 5.387066742567286
Ge 4.219334693523367 4.358764808241489 6.190884382980339
Ge 2.862197571819199 2.0428772220020655 7.894274818835761
Ge 3.0904393862636783 11.080202986946329 3.503446094267792
Ge 8.829621314761074 6.907154334983133 5.859420598844842
Ge 4.542729247826301 3.9516557202530485 8.847709809865906
Ge 6.792967623585305 4.072674053305216 7.469938324441984
Ge 9.223164660335227 4.995845520357008 3.9223158891061045
Ge 5.479454348572962 0.2061589911560213 2.0016956895184985
Ge 6.547028984695586 2.497211882983329 2.5422713834458555
Ge 4.698972072442654 1.329799950707419 6.164733572327202
Ge 5.977133259428668 1.5768629605720847 8.65076061474333
Ge 3.8889035273023467 11.047235511011381 8.496708332823903
Ge 3.979986700876877 9.936258843788721 6.0855885010219275
Ge 7.391991713692317 1.3360343696072423 6.228253088242756
Ge 5.975414607488903 10.832710007652414 4.678102626223505
Ge 6.389679195634653 10.481409268535982 7.497660598269825
