40
Energy = -160.11534619 eV
Ge 10.082554068868081 4.528450490032672 4.507465483759971
Ge 6.443509537231859 5.732140451780649 0.08686604094306846
Ge 7.348419756965653 4.76649916573961 4.3352542449088505
Ge 1.034807757498741 7.15328554853554 6.3339032188236715
Ge 3.010182822198903 2.080686790538991 8.745683618963838
Ge 5.461782346552458 0.3986789624941544 5.048968413019076
Ge 3.463862672913458 9.340892886606232 6.007069474241794
Ge 6.167718908334269 7.458786642523941 8.447144240859036
Ge 9.274552636595349 7.6047842012081945 6.578741283703031
Ge 5.526106732000582 10.081160285186085 2.8529971259455307
Ge 6.700804599883065 7.090088985501866 5.891300628183482
Ge 3.69301441292193 1.028217269450496 3.1615140544644533
Ge 2.4961490343649895 4.7953930767720365 2.9273083079476554
Ge 2.8895876464840557 6.774345851672282 4.44563086596193
Ge 1.6847960573910246 5.027993843514069 7.576792619782225
Ge 8.746990010319486 3.872560274856816 6.732812152769358
Ge 5.817205377381283 9.888896506044137 5.391188359955137
Ge 2.4203364874159172 2.923814923920251 6.417137264612421
Ge 2.25512768296838 6.9149496933741705 1.558893687866464
Ge 8.953004311924241 2.7194229189435983 3.024027179966371
Ge 6.973403481395081 3.9267080392411398 1.8265763557083907
Ge 4.588876622240461 3.1839244777876083 2.2075880937784387
Ge 3.799173585526113 6.646052636059188 7.001814055219657
Ge 7.439832380794318 2.0432234669488065 4.961826388979825
Ge 4.638395773585609 3.1487565741069377 4.88214146555892
Ge 3.063823591364349 9.250353077098268 3.358475056232379
Ge 3.87696176027403 5.122121884031188 0.5613542825232251
Ge 1.7495119606455636 2.464656090253715 4.013313850956601
Ge 4.974056721876376 1.6563863658863287 7.212125002936441
Ge 3.973354433501507 7.337403313983605 9.717247364469763
Ge 8.161815939817728 5.867898580921366 8.25966914472448
Ge 5.259260270981261 7.668179894378527 3.7043745157785466
Ge 7.1616011326055125 6.707471794465625 2.3008147445009843
Ge 7.697610811111752 1.624005071154907 7.596979180337252
Ge 2.1788261900284307 8.646961714105341 8.089592500404526
Ge 9.242636541279786 6.8967453610457765 4.009064017326076
Ge 3.6812676849509027 4.7827509176237655 9.15495043665339
Ge 8.358828134228677 3.4330655062105166 9.456110103147733
Ge 7.469436602351908 9.352384295399512 7.31025309893451
Ge 6.097917535283216 3.917006184660952 8.162136089208008
