44
Energy = -176.72453058 eV
Ge 3.1245902079057415 2.8989000279515134 8.045768964169328
Ge 2.2943946447925763 9.309452093669389 0.31656897982436705
Ge 4.613412799686136 7.879770935318545 1.3665354873870053
Ge 4.682349070926181 0.1835738359845742 9.82643105377504
Ge 0.547767970521793 3.6647585668607046 8.45025592772854
Ge 2.4403696888690356 5.576460632889794 8.38931369208405
Ge 1.4809371846176453 1.730146123118384 10.003937991601756
Ge 4.693913143927019 4.400738779994778 9.459209587135641
Ge 7.185614443635711 4.385807012016317 1.9931584820712744
Ge 3.773833837403858 2.4573743797269745 0.7234929077497355
Ge 6.53325502053281 5.9576315296786655 0.00850133927268908
Ge 0.8454863460259351 5.414977614532277 0.5895939102548509
Ge 6.325026927598011 10.081358341887977 1.8150769846484973
Ge 3.8077231391370745 0.011931623789042202 2.576247676684191
Ge 1.2881334086054583 7.511149782558857 2.3343620296468206
Ge 1.1861178320346755 9.642309392702689 2.5957930155613083
Ge 5.784475690336295 2.3689780357920305 2.990576581905894
Ge 9.356982131240844 3.3580449485704995 0.6523982687066093
Ge 3.658194771378226 6.875388868542999 0.2525408180381648
Ge 7.903413813717803 2.2520046261770537 2.7100443766274736
Ge 2.9881378338715843 4.731819258237463 1.8358798510618675
Ge 0.4729913617121289 1.9323696978045466 2.4905880413113692
Ge 5.178239127150294 6.202700410670292 2.379718576046711
Ge 9.033701350334914 6.696088884309223 3.2374499789991797
Ge 0.5389503041820028 7.623220795539891 5.056070447672057
Ge 2.9870245180164225 10.102027828973885 5.211059284920019
Ge 2.6183462944038953 6.088260303913584 4.186887559007491
Ge 8.937996321416286 4.200479490079984 3.986185821534555
Ge 6.46310489129608 8.01821462936668 3.5706273850869126
Ge 1.3634491855636177 3.6937567671141815 4.186376079342398
Ge 6.801844974812453 4.870246996886722 4.462991693201057
Ge 3.817365586365982 7.623220795539891 3.8100647585327976
Ge 9.268382672818563 1.5316883915010504 4.797824262417585
Ge 4.092704053165736 3.347783496617625 4.653117044920049
Ge 1.377096805356925 8.177486069595648 4.713280734605326
Ge 7.2488296281407285 0.3022547503521667 4.4562899947996195
Ge 6.511674285028915 2.521643579103264 5.708964427735213
Ge 8.933848253650877 5.916105172796713 5.997564910176156
Ge 5.265218418055896 9.075293136986483 5.712807128301063
Ge 4.619750727886089 5.624217716753657 5.766347842265813
Ge 1.4450406831695204 5.602693259403033 6.594032457662652
Ge 2.2951805608018905 2.16544465906129 6.376022226960695
Ge 10.080136377644918 3.3680868887806255 6.626075652305647
Ge 4.495371552896481 3.323769788120891 7.274717567577367
