46
Energy = -185.81958606 eV
Ge 4.6525696745839165 0.16683936824202214 5.013518447126946
Ge 2.389187057010477 4.7083245504091265 4.166435336203135
Ge 2.570268508812576 2.769812615435982 7.922470057229699
Ge 7.247029270866605 1.9237571276523895 0.5646663349198753
Ge 8.124749972882961 6.254194236502411 3.7864625534629033
Ge 2.378442054051661 9.690460069940091 5.660748345170125
Ge 1.7932235922707997 7.605607373529237 1.364371697404993
Ge 10.57493307868506 2.747595658867351 2.1371225157828935
Ge 5.989818281190803 0.6244940236791411 2.522789512949797
Ge 3.4873055974497937 8.318217207283121 3.1804180525726977
Ge 2.5680820148561354 2.4916352053266255 2.6698810925318375
Ge 5.4359681878796335 3.285607162190094 2.328165870637461
Ge 5.4815414332885375 5.236517314516491 7.679787904642264
Ge 8.085486548203717 4.104354729098045 1.8361907772755888
Ge 6.736554017372821 7.499118004360421 7.918739942974287
Ge 3.974992910832013 5.84060708587081 2.388138995361409
Ge 5.183504556875411 2.6692827984862104 8.582875618015702
Ge 5.577642133840857 9.690460069940091 3.9887203802850633
Ge 3.1399261285108135 5.232789800849431 6.578839302636764
Ge 0.3010813791342927 3.607381911334514 5.444152246986902
Ge 5.111797503729544 2.946248159721565 10.433723256685319
Ge 4.937646765025213 5.286329247743962 9.389427741555709
Ge 4.861349231875295 8.280555139813085 6.205210588160528
Ge 7.520404516177024 8.373056066680013 5.382471735206227
Ge 7.293884491648957 10.684718140917985 4.66594579117083
Ge 5.652021767334002 6.077327080037291 4.850339124993291
Ge 2.833213851477414 5.602409746393264 0.08614887670590562
Ge 3.7044015766413256 0.2836933802027547 7.579458612454397
Ge 8.0434411483659 5.6511968913608035 6.3422435129315655
Ge 2.4676800911487486 7.5273363278599605 5.408910355289643
Ge 0.5501112394478368 0.3836234032232018 1.3674775220218558
Ge 1.3791362411034787 3.5634639159723323 0.39313700227138854
Ge 7.536827146270599 2.5536915299058434 3.899529266346783
Ge 9.328504609480719 4.388182017268939 3.6598488521534542
Ge 0.986049952421327 1.1838124087489659 6.455122178242699
Ge 0.04401867003772246 6.751556000283784 5.572134756273997
Ge 6.894512514246383 3.1591863188494576 6.383809568260504
Ge 6.3867834744703265 7.673818411055638 2.433863064731873
Ge 1.2381673804387388 0.5163666008387964 3.8744575481065344
Ge 4.3367552086361805 2.6183522723108372 5.885538025970603
Ge 3.388600806629932 10.701850573360888 2.162232372472476
Ge 0.7031403992937733 5.0885349557080435 7.539958999797914
Ge 6.214315086362854 5.6528952293874 0.8564599580938941
Ge 6.4555851293313635 0.6186867898009131 7.1544913454655195
Ge 0.48119196149499716 6.103642212255818 3.113091954868657
Ge 2.90913918674511 1.560397807109308 0.12145935403277376
