42
Energy = -169.59032594 eV
Ge 8.46770931588926 6.544409621037261 0.6816078447978686
Ge 6.97133085739983 0.8465324762999292 4.232065976659316
Ge 5.58549900021371 10.331709274117525 2.39832842018105
Ge 7.975481081637718 9.088803784528343 1.363294870480629
Ge 6.722783277899341 7.790132945822717 9.910575343157642
Ge 8.012721706432403 3.7716879924437623 7.114493861751934
Ge 8.709413851984662 7.0213816178661865 3.29228478153468
Ge 5.434502283387005 8.155730173441054 1.3414691913945165
Ge 7.8297467341486 6.219431067111606 6.296195436366003
Ge 5.850426449048282 5.587538160396161 0.4876848884779345
Ge 7.69654018022443 4.567253932758067 2.210748027251433
Ge 3.207961210763682 10.069879647252593 5.9530812473317525
Ge 6.098060703315384 6.245431668290015 3.233032500567389
Ge 5.662926141768854 0.4712819312478665 6.380884159164069
Ge 7.040694188764231 5.739791884492899 8.814547524047779
Ge 6.645788284477001 8.747927218382362 3.661040381832633
Ge 5.606441757028996 4.730989150092009 6.231904189606123
Ge 2.967240983179634 8.548209997895574 2.0908641905286593
Ge 5.593586317008601 9.088803784528343 4.696700516544099
Ge 5.813782557935906 3.362975376586655 8.441140082996196
Ge 2.5403485312383425 3.3262488653861455 2.3950237548268816
Ge 3.165910804013715 5.597833085302817 1.155243616209516
Ge 5.393331882471987 7.202444127143953 7.13066625497411
Ge 3.1509348143347653 0.8807329616657578 1.6307525379953984
Ge 3.4325988778663996 6.1741980180770115 3.6691447848207925
Ge 4.6999534733724495 1.0621047729401205 8.631524139662762
Ge 4.29335215485692 1.228913903307957 4.203928756494169
Ge 3.0040864446438555 9.55277535929215 3.3683898754431123
Ge 3.7462576472658076 8.581664466791404 4.56993581176783
Ge 4.176086336049006 5.374191246076745 8.606130874586267
Ge 10.693915960593216 3.915920065175805 2.6519686593388228
Ge 1.536528898221028 1.643992747670172 5.2397586956678746
Ge 0.7396833829546077 6.4439846236044716 2.607522303863383
Ge 3.462273075811102 3.6937273280325504 4.8022832249112355
Ge 1.4701391421704884 7.350534332242053 0.3498257895705735
Ge 1.3590469676432824 7.174347389423222 4.982814467002469
Ge 0.657258653023246 1.1703427779113744 2.82653185016938
Ge 2.093438908990284 1.0397427323551842 7.820448809731531
Ge 2.59599638824906 3.6434756906618557 7.22716726311594
Ge 9.667404790372384 2.5635843801504175 4.621597762685561
Ge 0.7495983803448671 4.5807404586530955 5.297817076366875
Ge 10.681215903649372 2.8008956787837094 7.120981727579299
