47
Energy = -190.32178943 eV
Ge 5.388087709215672 4.169529632767395 10.416095837208724
Ge 3.01931565276881 5.35065253255101 10.745307741951121
Ge 5.8097203290228405 6.564049675859261 0.3249896640457543
Ge 1.7528002694452973 3.1534194495227004 0.17512036743098466
Ge 3.1811776217360284 1.256284488355727 1.3390779693605017
Ge 1.533669983549114 6.8618535322235426 1.9451007990607956
Ge 7.502242867378418 4.166439007298231 0.7329735549759842
Ge 3.4480467745912806 8.240531532003107 0.7646688433168811
Ge 5.553586520201815 2.375072884549272 1.3772731952049266
Ge 10.22291806478482 5.821490487295934 1.8656435778573588
Ge 1.3486936491892423 7.371302843374908 4.597115869884674
Ge 10.690572725482454 3.2314157615248083 1.5050037742345168
Ge 3.4583618040863024 3.977581127769372 2.028689515396881
Ge 4.278937131553691 6.451404626847122 2.6849650621527585
Ge 6.950532802436977 6.021401310334195 2.564094699117096
Ge 2.585882773268648 1.6738042141834808 3.803652055834585
Ge 8.688505482740736 3.413953555964968 4.620376050535722
Ge 7.61050411636341 1.4959642156601132 2.7591898171001903
Ge 1.7230102031315162 9.352889454996172 2.806148418248898
Ge 4.433323423706194 9.478245019938305 2.934690847831868
Ge 1.0162471859572637 4.502009382588599 3.222965939701601
Ge 6.009438026385107 10.59754705938554 3.667474182845347
Ge 6.246612654419123 3.763106267703203 3.6457883063575838
Ge 3.0489876136001035 9.390188380026634 5.229203191256592
Ge 10.220721551088477 6.070642067970086 4.472945342802319
Ge 7.928516473701984 10.940443779456817 5.5641621093420905
Ge 5.182305371305326 7.683031117905369 4.786922358470898
Ge 6.939869629721565E-4 1.9661121847805527 3.825855436606582
Ge 7.585594258406408 2.291405009694716 6.629753236135727
Ge 3.930625890205721 3.630351407301551 4.998950046278831
Ge 8.3118165770113 5.839998441037396 5.730080787829672
Ge 7.716079780106723 7.8342414927672195 4.175620474646339
Ge 2.561998479123671 5.550245544254925 6.040941270987876
Ge 5.420999224193413 1.2986703827877901 5.572629737741019
Ge 6.068575921178103 5.158947489002563 6.784353130330929
Ge 5.741409268256886 9.478245019938305 6.112217960105438
Ge 3.5110319061602 10.690425933304413 4.9903903695392104
Ge 4.193001978918697 7.164782071846423 7.098329612766772
Ge 0.011602258150481033 3.904427730877658 5.556431622915453
Ge 8.27619635257892 6.055583014469104 8.27960562497892
Ge 1.1672638112202398 4.305611647263487 7.796599169284552
Ge 7.351023529981247 3.6716068570392744 8.767531379743174
Ge 3.278337108198596 2.8372564799929156 7.448895869446378
Ge 3.9281832540765858 0.2050177854303877 7.537980368583625
Ge 5.759757276949428 6.6662894780171955 9.109938208742111
Ge 6.612010656033624 0.14602009926284065 7.985823055888289
Ge 4.867997774723863 4.207235382570006 8.955542833324161
