43
Energy = -173.81870158 eV
Ge 10.208608358171722 4.052220871768395 2.0924864457202434
Ge 9.99617760652418 2.907958629497365 4.611893532551395
Ge 8.56913289858667 3.074013017729527 0.21283698256221162
Ge 8.625117252177128 5.0564564324878205 4.098098322486668
Ge 8.97054314312539 1.704216553830136 2.4708064442032938
Ge 7.765884827623388 5.12592310737193 1.5398517391476916
Ge 7.574142598236062 5.722543649055869 8.136907626239738
Ge 8.060799830361802 8.067000598441965 6.929998662792162
Ge 7.447815522232115 2.407807662140672 5.1050634670427
Ge 8.579350223039016 7.712213123325592 4.027019893958332
Ge 6.82090395295652 6.231507821616928 10.569661603610278
Ge 5.810936642808898 3.3580758369900354 0.8104904211745462
Ge 6.028659772269523 3.9404897878807623 6.921573799206246
Ge 6.041875622742466 4.291020290734389 3.703823604571685
Ge 5.336175344697023 4.46887605593584 9.40404098306537
Ge 4.481282256773601 1.7483497367689165 6.672911373203283
Ge 6.299164837702381 1.6420969212783592 2.774524602625841
Ge 6.508779484061708 8.368768674941032 9.059419782551775
Ge 7.034541137859022 9.61627479544922 5.053254531399837
Ge 5.853756668788003 0.2203535544103261 5.000352401713474
Ge 7.853072266324473 7.788715681150044 1.4620321969551284
Ge 4.131277035760931 7.047696163632697 10.132374530309432
Ge 4.1134075410505435 9.432633990779726 8.659578496815682
Ge 3.433941748285051 1.119155663516611 4.131896124711181
Ge 2.774441483243136 0.752189946701427 8.292111377408466
Ge 4.617262297937788 9.702513432290468 3.977080358386235
Ge 5.3213928705678715 8.136820600396572 6.53412126320544
Ge 4.496347986293241 5.80285907658238 5.994581396523267
Ge 5.29601888393797 6.605445709641627 0.836210450673575
Ge 3.8024061726289347 3.283244208607067 2.594038901137425
Ge 5.9842082556554645 7.247020981969972 3.5387962260215438
Ge 3.0667151085698134 5.397225000856164 8.274414710325454
Ge 1.4936070868111113 0.9436681262205675 5.992433467749925
Ge 1.905319756299434 7.903580613097668 8.848986087582398
Ge 5.638292209443686 9.175752450258475 1.3866210516357238
Ge 2.806109197797466 9.187211694500796 6.339064234449248
Ge 2.7456338514841985 3.375477488183319 5.581929876618819
Ge 3.5469545891045033 7.66284924642211 2.556594371392997
Ge 1.7492463541384253 3.1141054464471236 8.19868885953576
Ge 2.8989607380410725 5.433795793978795 3.9696332893589226
Ge 1.879274346599807 6.7833331905576255 6.3974155837448325
Ge 0.13857407843482897 3.190941251823227 6.260285589442168
Ge 0.3743895567224357 5.441449321568779 4.83115839946001
