48
Energy = -193.77756374 eV
Ge 6.528362601563774 8.690083621704131 3.0871810182577275
Ge 10.22927777920704 7.082387141874385 4.3671985319847675
Ge 5.350066614087453 6.378942836674626 3.0464783942913742
Ge 7.572499501915123 6.273894898167056 4.357663654464164
Ge 9.408796958012498 4.318699692799251 4.399779464019119
Ge 4.97276700205984 10.529114394230108 3.7032947774069145
Ge 4.080619072164503 8.216374603655021 4.4449091225246
Ge 9.927620164540528 9.133694220107925 5.872870315235013
Ge 0.7903720294252128 5.254461200376382 5.000382017771347
Ge 8.056806133727564 10.145490664963566 4.48427274130702
Ge 7.641312143442604 7.926890697496182 6.193313605161665
Ge 8.692836755246121 3.503887535449253 6.582149584753933
Ge 5.166935302638286 6.074828742724952 5.880205302056815
Ge 9.705497365722033 5.839622749639052 6.641903923597256
Ge 2.6833297112420014 5.304079892027389 6.7768786664494955
Ge 4.657065521522129 3.677645182860192 6.926006222211575
Ge 0.18994559355786297 3.856213148694721 7.303319862295388
Ge 1.217809517550818 6.184081295973801 7.357846061851379
Ge 6.48745676997882 1.016354158299667 5.126886486514644
Ge 10.09356077297442 10.402580504597458 9.932357299347885
Ge 5.689840274019142 9.658752843014453 5.934605035013223
Ge 10.688062782019912 8.323147182357898 8.23396632061122
Ge 9.592242652765652 0.4804493028771759 7.5368016410632555
Ge 7.826927349059844 9.757918689817785 8.529647612043048
Ge 3.1807145994916874 7.835580669979344 6.695662191600281
Ge 6.725228967531541 4.265763385037787 8.168598068972988
Ge 6.914281654204785 1.031811079474728 7.598258582916022
Ge 3.8031005737606325 5.134144683293468 9.082289394304537
Ge 9.45301824821814 4.183531116828393 9.445439028658361
Ge 4.960166110622736 2.983126306973814 9.574354262400979
Ge 6.337648877660464 6.890854411900944 8.326096265098462
Ge 8.253250127848892 1.2715185307549992 9.882866575371
Ge 1.2431892932479458 4.142709279513672 10.041861252541379
Ge 4.59228935000064 7.106436056871295 10.56767267048524
Ge 2.6833297112420014 6.287727404898292 9.880086029571967
Ge 0.15291111159858586 6.430669511301341 10.872733289519166
Ge 5.657559517076055 11.010541722313565 9.686454024899586
Ge 4.743914017991847 8.804821332917898 8.556238104962587
Ge 8.938829394432343 6.706976604149952 9.346101790249651
Ge 5.5474235825055205 4.702824803718194 0.39362935305153546
Ge 7.613662673024641 10.015529162455014 0.12968058194455856
Ge 7.350170040326107 3.0682477006780995 10.468068653382693
Ge 7.063788593458661 7.286832084128598 0.01650005988926452
Ge 2.306324937413434 5.14505146720241 1.2346091057837938
Ge 2.109704890794511 7.817681253855151 0.9108751694731444
Ge 10.7792539981439 4.142709279513671 1.3149606853346287
Ge 0.3341194174300904 6.518088841509463 2.430333971074276
Ge 8.131882848720096 5.052039610443375 0.8622245347774392
