42
Energy = -169.02022888 eV
Ge 9.562372182400223 5.615830895987493 5.609966007588184
Ge 5.513323421430169 8.191861299124543 6.239891107461108
Ge 1.7292792864811883 8.224647144524111 8.234992040307628
Ge 7.023927502143333 5.920614380977828 6.698480583902656
Ge 7.759820362161924 5.772090006827683 3.6447986105300814
Ge 2.936074014008468 8.44128205543538 5.882888726991476
Ge 3.5550166070429547 6.589699076680325 7.833132719942566
Ge 6.210698153012315 8.511834669632185 3.735048468505027
Ge 5.528682012492364 5.2478077034867 8.940245965328748
Ge 1.4796441322098808 7.0394319013079185 4.124363512842658
Ge 8.742934711329836 3.618714411564024 7.1624396758468105
Ge 10.350877230365283 5.6106530904098 5.584907079490721
Ge 3.8096853315556034 9.42141989065514 2.6947287921195056
Ge 5.405476166722231 5.950958878050206 4.624552074651146
Ge 6.131762763421463 3.3734958608643177 6.708367640219952
Ge 0.6932041899930287 5.784960932862973 8.009633230673057
Ge 2.910682281979145 5.351690396655993 5.549707134305252
Ge 4.377881110985464 3.0115517912282064 8.461103978819896
Ge 6.078630214794577 9.511213596747682 1.2068842619499662
Ge 8.008533158119743 7.813882646794732 1.9435410147855259
Ge 9.307917527752874 1.1367618170220126 6.230144492234899
Ge 6.021737219514636 7.052888440258141 0.12907623835419285
Ge 2.145567467686962 3.719943552047958 7.5019063575068445
Ge 4.113389146165153 6.896308706269522 2.338489480943138
Ge 9.371250252900097 3.2257095721884843 4.513227697395601
Ge 3.746649340462406 8.549434611734748 0.12278083497311958
Ge 6.781341323157925 0.8290647143265217 6.133902189788801
Ge 1.8884243695705074 5.4591340790439595 2.038460194445971
Ge 6.987923041129282 3.307949094420301 3.123322492713701
Ge 3.514283808999392 0.5892646891023321 7.855646242759278
Ge 4.764154501108702 3.0735123906240154 4.49851256976576
Ge 8.26047903781297 0.894098754291952 3.7114884826347607
Ge 0.9388723285107942 3.361514149996958 5.0971929263774785
Ge 4.591930838984735 4.945448519249822 0.7256893191503039
Ge 4.96979486127038 9.511213596747682 6.361310305416743
Ge 1.1515021595975894 1.2832627190293768 6.743589037925043
Ge 2.5520518891665347 6.1995590636452755 10.153991823322166
Ge 5.088920456313466 2.4584403149103418 1.5653647046852843
Ge 5.641886940196142 0.5144023853104019 3.671030769593306
Ge 2.7673892506313122 3.1663943072427396 2.8558052118709556
Ge 3.4810143446091035 0.8461897422708856 5.188545225073807
Ge 1.30472626219614 1.175575350835475 3.750561977193502
