47
Energy = -189.58039967 eV
Ge 4.982759847878436 2.3706826524141817 9.817864498803992
Ge 2.4463164852272277 1.4913494817604735 9.634421462179725
Ge 1.0527788578806465 3.7577413156112076 9.47563182186715
Ge 3.887763332540371 9.75279243644427 1.9250302674873316
Ge 9.197311995828331 3.813581228753538 0.2529273320620439
Ge 6.6179676397562694 0.3263376164145279 10.23990238122819
Ge 2.5085579760653247 6.129660686683303 3.2784811210039866
Ge 6.048706798468839 4.593286297562935 0.6347735781984343
Ge 1.7098558964463932 9.966103591743476 0.52641699173807
Ge 7.925452771099439 3.8377681854455385 2.279562922112392
Ge 1.6607640868719504 7.570759764631646 0.7598120639249241
Ge 3.271155180090416 4.063655490122988 0.4499821083736081
Ge 0.8171985811323071 8.103506465520544 3.2077766794397364
Ge 8.155240808494057 1.2447482924406836 1.6187490151255488
Ge 2.477208921959768 0.9149605292842488 4.1687999008076675
Ge 6.418079433075083 9.079284263521894 1.6896624188755236
Ge 0.7978069843960982 2.0215543852004982 1.2819925441283164
Ge 0.5907561324753055 5.283025115405488 1.332797426959868
Ge 8.89409310175488 2.17095129030926 2.3859048002601253
Ge 2.6817331978868504 8.69679010532206 4.07781094839469
Ge 4.162453727254856 6.571064270174834 1.1887968736446033
Ge 8.842403777062069 4.968259200384034 2.7475461897406763
Ge 5.230868785674473 1.4558384864416305 1.8359606328239022
Ge 2.3027530227867268 3.501070060751063 2.722258505217562
Ge 5.41880182359812 8.72036346360124 4.178074341162219
Ge 5.765449267901526 6.832168599733675 3.193851565786581
Ge 0.4889716366598687 10.046451627705018 3.036902142220239
Ge 4.468065809495956 2.2167044535933886 5.315894312437067
Ge 8.221224909388122 6.164280059773097 3.525199538809517
Ge 5.3453471480642465 4.04384471592243 3.403997934385061
Ge 6.871574917306667 0.524847789194677 3.685875132317959
Ge 2.4312904603538006 8.69679010532206 5.230449643153276
Ge 1.2155308040090316 3.8096685788314026 5.025540010961784
Ge 0.03514710222634133 6.156764176183766 4.791897556038956
Ge 10.381522374336981 1.0834959473553614 5.115078392870126
Ge 3.5760027905672196 9.879425938904857 6.203121775986058
Ge 9.142992036216276 3.384126152300639 4.878210721334615
Ge 3.380564223485163 6.191503621682983 5.710838962486483
Ge 7.633090701566289 3.0281130846175874 4.713767677700015
Ge 1.7688343921557994 1.0520710856096798 6.91830919905597
Ge 6.043204121392896 0.2686974753730384 6.157060913680532
Ge 6.715683041321365 5.275252051311192 5.474407606691864
Ge 5.051713670953803 8.31110280626052 5.261373907981262
Ge 2.8287457257373227 3.448703508963743 6.933197886565325
Ge 1.2503843543650042 7.179376929343356 6.967227516474963
Ge 3.119560051668821 5.687127594936974 8.301736577461885
Ge 5.481388960677789 6.641439193696902 7.254195612091325
