43
Energy = -173.78220822 eV
Ge 5.804780359091169 0.749054373324676 2.6728091245783148
Ge 9.38523112227926 1.8217503253977199 3.7907124807150017
Ge 9.882699169671351 4.321083449106999 2.4750839128788757
Ge 10.996349188651038 3.784567317715967 4.733491661052689
Ge 6.471200981599654 4.708846384264663 2.2097805791286205
Ge 7.823722868707983 2.5423965614289488 1.721338462108791
Ge 5.331498168415073 0.8122194825938248 5.147992044173985
Ge 6.8892026755265 2.6872308058658443 4.223930419809744
Ge 9.301821174245127 5.89784758431522 5.167218475404452
Ge 7.612670002371091 2.8878492210530857 8.204047373704377
Ge 8.178985993361373 6.408469976280967 2.8329986251829613
Ge 3.2030087747481764 1.539363675332915 3.5651089047327624
Ge 6.659773888109066 5.237426820384594 4.9255018796811285
Ge 2.657440502379552 3.905900964904245 2.4933139196300846
Ge 8.444546793168135 9.936911357028428 5.994722024593778
Ge 4.095468252883381 5.8754033228566085 4.000884750589366
Ge 4.05618076229348 7.948291578601465 2.3544609558923106
Ge 8.72004052603059 3.3941141180772654 5.93878746737696
Ge 1.7084294979876788 1.3967962266547786 5.928715686085883
Ge 3.462015691838984 3.563985233266847 5.214706955974349
Ge 5.671925609557414 1.2224869481713596 7.6376728009174935
Ge 6.566957785857244 8.521793492665058 2.8266346103811553
Ge 4.261105423376769 5.531672451157707 1.1974520817706795
Ge 5.3852510791001365 3.955745191168194 7.073360253680748
Ge 8.022011079408438 7.786039893390128 7.633738872199699
Ge 1.1143066030399282 3.8907791559936347 6.334370603727287
Ge 3.26070625183027 1.9971109928683355 7.977218673645858
Ge 6.198984425332278 8.469852774500568 5.432780999399722
Ge 6.889648570186018 10.764894792986224 4.0028892382270085
Ge 7.644814628697498 5.371920235039694 9.086371343055541
Ge 5.6604841050180585 6.690586003879629 7.725143909848129
Ge 2.1972586127203155 7.731218805398468 4.370139988303362
Ge 1.3099932973246176 5.257118034454013 4.1793526843982125
Ge 3.475336212237714 4.377364696769815 8.902907996568052
Ge 4.301595871254203 10.441432903976695 3.825460298844311
Ge 6.436688436909584 10.865922845835833 7.192624073657899
Ge 3.246894090619245 7.0514060645068595 6.815759937906708
Ge 6.345163110185158 9.03223311454685 9.284450339591372
Ge 1.4992392812558006 5.7322432897229865 8.173616234364586
Ge 5.275912701652542 5.713770165898785 10.217139042084645
Ge 3.9374493003113216 9.551658179945017 6.238674390456289
Ge 3.9616611017521146 7.875359328093362 9.437092391366942
Ge 4.344733775840097 10.685676374271381 8.542373645843995
