40
Energy = -160.23530572 eV
Ge 9.400120159586686 4.972513921034661 6.410235048106909
Ge 8.370231527487677 2.732187154140695 7.735243558042714
Ge 8.039850987993724 3.6464876424330672 4.576850976763578
Ge 7.036680382259486 1.4416767035829718 5.443599150866443
Ge 7.41264006535305 5.299808749029678 8.063213262263076
Ge 8.226109765835256 4.191021645477758 2.031089681934391
Ge 6.7706754429721325 1.0454689239620742 9.110064198259728
Ge 6.996216165396324 1.8410701396060243 2.7137413173636817
Ge 8.055400673464096 7.002492785298952 5.075167458345939
Ge 7.096258420619471 3.481039082238007 10.005308943787691
Ge 7.501297702398535 6.910583290224191 2.250986263833973
Ge 6.366086839576523 2.8641778060984797 0.31710017182718797
Ge 5.678041038087693 3.5884499893601998 6.983237162476344
Ge 7.269909938058984 8.699332784533386 7.173850905979786
Ge 4.8949156812817485 0.9510475999083726 7.103943281439731
Ge 6.1232219315367145 5.2660388188959715 3.849829635041488
Ge 4.105753055562657 1.6062559283389921 4.4668569235921005
Ge 6.8168336122578745 9.285741064526617 4.443161713883258
Ge 5.006552082849546 5.179592321056942 9.269314714320533
Ge 4.4884661570935735 2.6126759135410604 9.303764329239002
Ge 6.213336895186604 10.982328021297743 6.233381311749831
Ge 4.597016734176606 9.303349229402091 7.424994854304442
Ge 2.3667693369907767 1.8015251106950287 7.002862852485387
Ge 3.5057982349992116 4.012504529648002 5.449633589499261
Ge 5.454350416695875 7.139495816350332 5.892679358754616
Ge 4.808185292753296 3.4317788313593702 2.3884604975517907
Ge 5.929461570111498 5.524647997237418 0.44970263661349313
Ge 2.2738243716435047 4.352204540439907 7.71646980750891
Ge 4.094370035168164 9.159559490781712 4.731287394795474
Ge 3.3455170294808934 6.7338797861237065 7.321992290153241
Ge 1.4456923866123552 2.446272229964712 4.469593659358034
Ge 3.3187074306101643 5.966212642214905 3.6607791279566113
Ge 4.9076095660559425 7.748805030576708 2.4936800289419305
Ge 3.7608629824991415 3.978306121467462 10.005308943787691
Ge 0.7626818151157723 4.682567329270808 5.56555174579557
Ge 1.8919515084940757 7.508016460504478 5.157426602049401
Ge 2.1605636894073186 4.035117592715603 2.344158830949962
Ge 3.457852159086779 6.5749187387856995 0.650891100490113
Ge 0.5272684747379612 6.184388935310267 3.447847412349663
Ge 1.4397581162178463 5.150587284288687 0.12549367691879962
