45
Energy = -181.65708405 eV
Ge 2.0896953252040245 3.4590462605834404 1.8412936450875663
Ge 2.917991793120704 3.023960342854839 5.23464757863643
Ge 5.650272907765502 9.46964235293937 3.763309996126431
Ge 4.0610071411145015 4.425070384285652 7.226855072851403
Ge 5.537516903550872 1.6403569937778077 4.434082825885945
Ge 1.9378966818003664 8.901625045626117 4.400567825067408
Ge 3.796391653071512 10.276948549056948 9.770063326250401
Ge 1.8464736568251503 1.0669390995811492 2.646509033692038
Ge 6.847156376286968 4.228563116972792 6.622582468103512
Ge 6.76707221336414 2.527940420338979 1.0191173467845314
Ge 5.792613362735453 6.099376845285162 0.2179796417396537
Ge 9.990544172056955 4.33592547941622 0.9459139249853813
Ge 4.524029814074633 0.9549982267123232 1.887784585965761
Ge 1.4817901003151832 5.381446266180684 3.392587954326887
Ge 1.8884841567637174 4.155553114138066 9.758456516680303
Ge 9.923611568937801 6.725432241388465 2.0997495117753338
Ge 1.42753203001708 1.3062332179047205 8.837938633302981
Ge 7.274598039711809 0.09449240103264378 1.4993818903584246
Ge 4.935157320167663 0.24677302435541956 6.6448163981900255
Ge 1.3038350799473735 6.640509880496348 6.034238763625338
Ge 0.3218983422360039 3.596382276145194 5.138235088025448
Ge 5.1205827273489275 4.45661501842547 4.505078628187066
Ge 7.233419523199632 1.4122984825350353 6.690756305585727
Ge 2.5873193650137933 0.39678568209961995 5.284227440960089
Ge 5.289038561450886 8.901625045626114 1.236319650825475
Ge 3.095973651649653 1.8997323113501465 7.827913258422666
Ge 1.3025522970559889 4.261053569204487 7.518539557736899
Ge 3.4134821530227626 6.753698163813221 4.464140107003226
Ge 3.2614028622691955 6.297540615097731 0.23605221909448598
Ge 7.113732114873583 4.611430265945405 2.431656488352061
Ge 1.9543429229201927 7.637872316968382 2.059987218480138
Ge 0.5730509658722801 1.3545719737195892 6.835301851440202
Ge 9.957549996366938 8.260250787504813 5.2325294687150015
Ge 10.049344095616005 1.364343153127767 0.33198314158336173
Ge 8.979771689243423 2.4504788638014974 2.330399079282097
Ge 1.3883433815304307 9.950255241956116 0.5245999816439979
Ge 3.830745451148793 2.414868255063607 9.66149279266759
Ge 7.838134447436809 2.9721021420900944 4.4186229888129205
Ge 10.169650134578532 1.184946925000676 4.257083185609316
Ge 5.592976836557844 2.585857489135721 8.46948105528684
Ge 4.601955049810476 4.166829041099376 1.5135597129882732
Ge 9.40143210406825 5.8442609447183065 4.505108259655259
Ge 5.92451467142607 3.7783119266978678 9.359099709807746
Ge 9.917192283863983 3.3778701826063386 8.93603571996385
Ge 8.018934104766839 0.35242642420414183 4.041045345945686
