45
Energy = -180.02309463 eV
Ge 8.854747742966918 2.987286399448294 4.216066438380354
Ge 6.0830852657066155 8.359397435293266 2.461210237815077
Ge 1.9638496659640352 7.241340127019199 4.272734656333592
Ge 8.262296248077478 11.429324187759628 6.210929692230562
Ge 8.442399997051435 6.778699877395153 9.286053410444202
Ge 3.6446339537515087 2.8648049310334325 4.3365882172756764
Ge 2.063028518586416 4.681396542637092 5.782245598041025
Ge 3.9112894970475534 11.327892065800045 6.309684045314293
Ge 6.22706416357921 2.4846537167091682 2.868120955131604
Ge 6.067238302245299 10.907299640603583 4.821887695270315
Ge 3.573913553805193 9.342908072295213 8.149423675908917
Ge 8.349024529394384 3.6245049147907786 1.611567293444497
Ge 6.336891066363068 5.662148913334877 10.942074552743245
Ge 6.1699313349706175 8.14928815256991 6.277865862417086
Ge 4.144269713262009 3.086956178640456 7.279012181424419
Ge 4.388903709886048 6.295331924126952 3.100496481782215
Ge 2.130625529335292 9.504143079143075 5.820218253669107
Ge 6.220302673565212 8.465099674045304 8.85922839561691
Ge 10.410238986966911 4.877577761468422 5.593528498450338
Ge 7.8677371703298284 8.858356365415311 4.483679565127195
Ge 10.385962731062463 7.373808319071985 7.067212407193628
Ge 6.298865940895143 4.872218162208137 8.382596345171358
Ge 4.382416450066966 5.817432189541513 6.743808908118935
Ge 8.086618616278866 5.909739183772464 6.657392148260358
Ge 6.133874878652179 10.852095937787247 7.796950447261734
Ge 6.281141932796154 2.7155266094550328 5.472214998050751
Ge 4.366041393437323 8.773386979302082 4.557519463192863
Ge 2.037348628066691 7.173558238954677 7.247717015771782
Ge 8.3018154343463 3.8222377087544714 10.202733968449625
Ge 8.786731038704504 9.470559528783891 8.040402022586907
Ge 6.200936135011937 5.12471926321156 4.497141609858344
Ge 8.477169928536426 3.193411956490426 7.176191659634932
Ge 10.116051968535455 9.700164631073225 5.654025027289457
Ge 6.131788117044036 5.060204967014822 1.3775959054951832
Ge 7.890754016023295 6.378742577603398 3.0211706990672695
Ge 4.1112179179556865 6.670415934743433 9.389410710488962
Ge 3.998656683037438 3.523128457690746 1.7100095132092665
Ge 2.1782047151001582 4.792827548216909 3.0520748440897467
Ge 10.162584120996769 4.989877206855892 2.8712736685630538
Ge 10.32132778080202 7.444668347665405 4.0990248972773635
Ge 6.370770067236171 2.2519725054584097 8.934482800893997
Ge 10.189771966438405 4.848724987962754 8.490259627781889
Ge 2.4168057710475335 4.667528878850491 8.668367704979289
Ge 4.423311089972737 3.7300507822035596 10.288350142775665
Ge 6.413107950180405 2.912285986492062 11.713656486043577
