43
Energy = -172.95908245 eV
Ge 5.662231097342565 5.36893080183775 9.547921376025773
Ge 3.420506675998894 5.848887886651098 0.49086610016110305
Ge 6.929707866469619 3.266123934647597 10.591778601475633
Ge 7.719731462675623 5.954534536904756 0.3252975955413645
Ge 4.581862804142215 3.528857629122113 1.0746610455298962
Ge 5.493351952612297 7.404928249962462 0.91483747591404
Ge 9.395011609085069 3.5532765699843085 1.1730754482576893
Ge 8.883972036599463 2.0202830636245515 3.293552313421254
Ge 1.7802634230845749 5.991881089286103 2.7478349523984402
Ge 1.4803261893461237 3.3323172739812885 2.878333691193115
Ge 4.685676246977685 5.555162593834769 2.9083356815935972
Ge 6.360766319436375 1.668384095708551 3.7761190197393453
Ge 7.108837204035472 6.90752515364615 2.9406946003463528
Ge 9.625552459127073 5.977136358648462 2.2084199106102873
Ge 7.158825093030232 4.160235529354068 2.598476475894638
Ge 3.4733115632465954 7.594951296671215 4.249984622776845
Ge 3.8476324361416636 1.8525611386939487 3.0890684323147197
Ge 9.951977507968582 4.3708400329223185 4.043334847466975
Ge 9.784664485682555 5.497326327352041 4.999644368462453
Ge 9.098960569207915 3.0692222202491153 5.795025419553624
Ge 4.029976776444472 6.083694097811775 6.300710871762409
Ge 0.8318365649956686 7.991481459421367 4.209969120419068
Ge 2.8528162467773206 8.609071563840786 6.634879827814353
Ge 9.852148007972882 3.4883629614590568 6.49162294644922
Ge 3.495475314199714 1.0563338789979053 5.614747782795984
Ge 4.876385970201438 3.4300274182809516 5.128541082420693
Ge 9.852148007972882 5.010173142285576 7.675730199241529
Ge 8.894791765664303 7.3276884522627395 6.645442740171682
Ge 0.7150885525392447 1.7959441473691597 5.011712985923889
Ge 6.494254256538491 1.4141756337997602 6.349668307930618
Ge 6.272225287546029 7.493707364054682 6.11273692279652
Ge 7.250857005015306 5.0080992250010326 5.923485981538933
Ge 0.19954845475278563 6.111480830376103 5.89785998224765
Ge 1.8611738580143367 6.6580277712299445 7.918345051438156
Ge 2.012972851856666 4.312497351784399 5.303489684739483
Ge 9.949679324158598 5.467870621473803 8.28253098781345
Ge 4.572813708557529 2.414499942556646 7.759820256323887
Ge 7.383734514671395 6.055500891959497 8.482430655950225
Ge 7.648111765071851 3.3655176413536534 8.104227214984565
Ge 1.5488551365058394 4.34333339569962 9.219452951894343
Ge 1.8560266306355935 2.590944104164927 7.309231413458923
Ge 4.8580522860938995 7.7765477971671535 8.373056001053644
Ge 4.021037193518148 5.14156001482197 8.741799203513732
