42
Energy = -168.78551473 eV
Ge 4.5332040128261175 7.665027994046027 7.368998164932682
Ge 7.484943215013723 4.963992084107033 8.436001101445145
Ge 4.150163602052034 9.814339583049144 6.028391856038307
Ge 3.074330165126856 5.774459150195728 8.533205915987699
Ge 0.8580368197594976 6.752125597050014 7.365136831816212
Ge 6.78546830871261 6.744468742568428 6.678934332227664
Ge 9.062714236575207 3.3760405181772604 7.102785778237559
Ge 5.671770739434633 3.020865199626008 8.562405702317895
Ge 3.032579780552564 2.6280228679240865 8.37861236083763
Ge 2.1294321583712854 8.209287079286284 5.330669462289231
Ge 6.539653410358438 4.157072817078496 6.0613890688704135
Ge 1.1760714120777989 4.214627594566652 7.068690416780008
Ge 7.242560803047808 1.575655344203122 6.934969655042706
Ge 6.25873074823293 10.065110338774467 4.2880979192796325
Ge 3.3314797655983144 5.5018669329050764 5.933670590050076
Ge 5.074758856913697 9.491441668605098 2.0078843794235333
Ge 1.098371583179307 5.806280641356259 4.696399719288638
Ge 7.723323943047478 7.849651444797614 4.586421442162649
Ge 4.280861536163135 2.649300597280682 6.120132709048964
Ge 3.346871537244385 0.17598856751310452 7.36932274031469
Ge 8.268388231376004 2.9605745576728935 4.496775066489957
Ge 4.977301631970352 7.777022114462908 4.407557330685692
Ge 8.67465237406187 6.44033673629383 2.5163023957843746
Ge 3.0308029382073856 7.7931032006652 2.722309499852968
Ge 1.5795516426740213 0.6292163648954716 5.407280453864094
Ge 2.469523500306732 2.633575697342012 3.952034191548243
Ge 6.1070956963302825 5.964677966962383 2.5466858701307653
Ge 7.084625498912694 7.908366288244047 1.0309868050568174
Ge 9.907112437363086 2.6760719361210716 4.9785559777920065
Ge 5.053359410068638 0.31079740544638645 5.329101848764628
Ge 4.649754747706551 4.191698693707708 3.7117703612264066
Ge 7.540422703647579 0.4272426222451474 4.538295118788105
Ge 3.21611930298706 0.13382433371668398 3.2375154135786945
Ge 2.8580224515788744 5.201836532220727 2.0306747892584798
Ge 0.5678480808231622 3.497165792626344 2.372678345659121
Ge 7.676773961360497 3.922649237686652 1.8757649863610917
Ge 4.647443995992529 6.752721186914987 0.3391839305307444
Ge 6.962204816315316 5.524349513279724 9.672558646960152
Ge 0.5397629166758192 0.7060068194957747 2.8979565831528626
Ge 5.882832446053875 1.9784504820396993 2.9179733824270033
Ge 2.5241598150088524 1.8530182895849037 1.3545897064901542
Ge 4.939487035351554 3.890713583202826 0.7312716058063714
