43
Energy = -173.52075727 eV
Ge 4.849106039630497 4.143707373333332 10.492096595599582
Ge 3.1081855384573362 6.060845097322383 10.692757425823148
Ge 4.892822626665127 6.561429255657546 8.97663524365201
Ge 2.921223149061476 6.654764546450018 7.17171248594358
Ge 3.2255090726878195 4.123071772547333 8.408418284125611
Ge 0.9897599221332181 5.571466113337218 8.77232187511399
Ge 6.656439181760659 4.516811411899467 8.563251444677782
Ge 6.817115046992223 7.238841046929165 7.416252241825306
Ge 8.788709464802574 5.564918336557395 7.730712358650443
Ge 10.686673061185044 4.44680140410806 7.537259012764884
Ge 0.49874526284413645 6.477134680476698 6.15119789349853
Ge 7.749179704274075 2.1179345751106493 5.911745578960191
Ge 3.524457749474047 9.118062659440366 2.3207542775287457
Ge 0.9730872499539658 2.7127900044752247 8.051181856072583
Ge 5.321540657128446 3.085819422685799 6.962741962415273
Ge 5.043150133944418 7.947408782779476 0.3946443947814566
Ge 1.0697642848441657 7.914283549626057 2.3150542316310507
Ge 6.49579859836656 6.595044180124559 4.882602603851658
Ge 8.718951513125239 6.87278698687263 3.5531715651976175
Ge 0.2547272827726153 3.9641164376780993 5.363269192949528
Ge 8.608656761802404 4.559199645310646 5.28201477809793
Ge 2.8707463502184085 4.923899396982347 5.329156775784342
Ge 5.99198385956359 4.099487266267317 4.749324118217389
Ge 2.3417785398055244 2.398218372674335 5.7361232249189
Ge 4.439137879814679 0.8153134045120028 5.935258144506578
Ge 2.3215125172922804 8.451899352150033 0.032507288391021336
Ge 10.16805438708052 2.3220721019616373 4.644336764004341
Ge 4.810241899681777 6.990737260921373 2.9772751368650168
Ge 2.445158357436906 5.856899822151323 3.022132475059133
Ge 9.955503021286981 4.493734945510471 2.970612114240275
Ge 8.266451165616466 0.530882052043485 3.8391389578655097
Ge 5.816282740190107 1.759682853039461 3.823400596784624
Ge 7.1340578476634855 6.297763210154005 1.4941725241696062
Ge 1.3988170885685343 5.889382290187842 0.5536396566135009
Ge 3.546042565265277 6.222045445491863 10.692757425823151
Ge 3.0339746143088027 1.2109942574397985 3.3266396999536014
Ge 0.48266481592193194 1.992118192363901 3.6827325445129455
Ge 6.864369985512612 1.3751598449745823 1.508430674358202
Ge 9.468681357497402 2.081352031629998 1.973034112249795
Ge 4.3006807588291665 5.0891406619833965 1.168921319282834
Ge 1.8116169426559958 3.409207322580124 1.891897498789335
Ge 7.411900875926498 3.8810885968386146 2.221379817296278
Ge 4.043441859286022 2.4522244740248302 1.1610428866301166
