48
Energy = -193.6305317 eV
Ge 5.778562293687824 9.342763954938436 3.698058492400695
Ge 4.8554478378249755 1.9313419304070338 4.136699786109718
Ge 11.2133284075298 4.957373937346749 5.671302859931632
Ge 5.17312879277136 7.027479897503423 8.604584547729138
Ge 0.47944971436029504 4.144496238616645 3.1321467022867058
Ge 5.494073424261463 9.02799474231121 2.738657368851772
Ge 5.254278756528006 4.157372548552912 0.7280669806674397
Ge 3.470804386669874 8.84917862101305 4.426939072466331
Ge 5.185440135178004 11.136052976519615 5.6403962091385225
Ge 5.329574314209789 1.5686717364612597 1.5880461190037298
Ge 3.295041830538905 10.192604821340183 3.7174442885383225
Ge 9.013286849237312 4.930400413734284 8.440356885714525
Ge 1.6852957604404943 8.29754416055486 7.736917303196396
Ge 4.568087697186076 6.417956266756201 2.910583449656544
Ge 3.1658713090354573 8.690334108776156 1.5499769408334794
Ge 5.25173578175203 2.623240838216953 8.40134467419027
Ge 7.5604781867162565 6.875101314101529 7.477833752358537
Ge 1.6223510917337325 6.293481133263645 1.855221653907762
Ge 7.597600456853219 1.0609062494631418 5.80060102709144
Ge 2.7847055486771737 0.8374959474937715 5.125148351829935
Ge 1.1626138873481995 3.865655973519953 7.7286926878854425
Ge 6.472295575407928 4.754746443624572 9.298890898579726
Ge 6.488725215625634 7.209032000553303 0.9789142441787714
Ge 8.598298257046828 6.339575886579493 2.215615806767702
Ge 2.0213195576829204 6.6945533618859905 5.694650980393843
Ge 2.4658767771304486 6.008313601539954 8.726194968106414
Ge 2.7608039901971435 0.8764299143903796 2.3463260040057192
Ge 11.305093516952667 6.187557413838904 8.054347568250398
Ge 6.765421216538933 0.12955696266095837 3.3009744209282283
Ge 4.076969380454241 6.564149218232189 0.1953526043608893
Ge 11.135723099514522 7.798135356362052 5.913900981603671
Ge 3.2027540820171136 4.130250816213916 2.7891387063540276
Ge 2.3329253214401553 4.040951763797915 5.343282059508517
Ge 4.68428193247469 10.59666657086402 1.455492697112626
Ge 6.3279937532766475 3.434403300103819 5.736127117144162
Ge 6.409446711196848 9.342763954938436 5.200485497423816
Ge 1.052810723592074 8.623628628830225 3.226329108256287
Ge 8.570384042993423 4.71863059253638 5.839317953991349
Ge 7.830319615819793 2.552416419385001 8.016797730976933
Ge 7.773007468954056 4.729146288799749 0.14770285758903726
Ge 7.693533611143893 7.088894112260371 4.786242522802455
Ge 7.9111426005537115 2.303432024346724 1.066573306362245
Ge 8.482990231458098 2.3354779176077196 3.6400037144829223
Ge 5.252803370344651 6.762528594527782 5.671513560006846
Ge 4.339937950572226 8.966255027068812 6.948975040600664
Ge 4.334208591970485 4.706291991744496 7.212294821035043
Ge 6.923610622576273 4.38510949817419 2.757640605894972
Ge 10.881100746285208 6.5585613219814265 3.3584528111333665
