43
Energy = -173.03675636 eV
Ge 8.663669027074832 8.03123914317699 7.470731652399148
Ge 6.16894553117102 8.67554690849436 7.484868336997833
Ge 6.083188974243271 7.713861636249918 10.202131475683696
Ge 4.973991861506846 5.36855585034383 9.83215586657407
Ge 4.767152934100456 9.933542030330953 5.49826097227097
Ge 7.453185083128654 6.078349537896406 8.695591277432497
Ge 7.97764927964926 6.994759352549145 5.241369493057774
Ge 3.0640194401587424 7.880857636099582 5.587249641606425
Ge 5.5438279907043535 4.29644985648902 7.5037949701053295
Ge 4.0020094057944755 7.575904001386679 8.485348466577202
Ge 5.993746295573938 8.243437595926439 4.057495722296839
Ge 2.419968181049709 5.1790485047092965 8.761285731697512
Ge 5.258561346006613 6.523006542699938 6.177960130321511
Ge 3.354533894718568 8.914145187639377 2.950311256602667
Ge 8.315944635179527 4.466729264213616 5.767213786497566
Ge 0.9297664117174482 6.450060067096482 6.868425805029743
Ge 8.335709300822694 3.6561109138538392 8.175353012977524
Ge 2.8337427044954357 2.638852579679438 8.08509887838559
Ge 3.8437089867340477 5.853120170504283 3.5320038379561476
Ge 2.6775206760546415 4.484776135341357 6.102806630987221
Ge 0.33053545179325416 3.7528991197636237 7.732446447707908
Ge 1.5194235792566382 7.069130306998485 3.5362211729692143
Ge 9.262546910650169 5.933344371129413 3.251145257720995
Ge 6.527583420970785 3.4073738896866006 4.168544573365954
Ge 5.463591263278262 7.088313298854034 1.798825666979134
Ge 1.3886446753531099 2.141371903431505 5.929534023202336
Ge 6.594767847016354 1.9530890942308072 7.214640152691247
Ge 2.97616036515451 6.955824066523103 0.9117904366329842
Ge 9.549769442980905 3.3547032165628514 3.679989319529299
Ge 0.09640825036252214 4.473803153229686 5.172111181944792
Ge 8.504484447697518 1.5186254705777202 5.18813429652691
Ge 3.7139043983864477 3.1969888885862803 3.113174986762455
Ge 1.4032066457950172 4.859154163533552 1.6019201570944541
Ge 4.818063555838012 1.4736010429964366 4.80593231412877
Ge 7.127994372932268 5.099457311369716 2.1771261998473155
Ge 3.29170029914479 4.5439300257569695 10.202131475683696
Ge 7.9422576196187915 2.771367596248005 1.5860383532029545
Ge 1.1059061178522474 2.65445214828591 3.077948709556576
Ge 6.823235075610576 0.6895836338446378 3.3530954044573695
Ge 2.251347829349824 2.2836874759811403 0.6520359189241405
Ge 4.978980206091795 3.014052616252846 0.8446576868794755
Ge 3.9612989643714074 0.7367234128110263 2.077977330910167
Ge 6.44876303331685 0.8115866113703317 0.7618384355211029
