40
Energy = -160.43393539 eV
Ge 5.209683152531275 5.616664950821042 2.7106982521279734
Ge 7.131240229383577 7.349006957709858 3.3245771464845686
Ge 0.6329348730299335 5.904864193763207 4.073027673153625
Ge 7.470480334315874 4.663727679637719 3.8208528822588654
Ge 9.09671022925846 0.9143483249340218 5.192703281296958
Ge 4.753416883975799 8.110265223209053 4.198991629298001
Ge 3.647048287043096 5.800082886398508 4.5880726223598804
Ge 6.360175500545503 1.0437928919108796 5.264130367964245
Ge 4.308179867310292 4.125628754580966 4.239931373882106
Ge 7.879955217178281 6.79719122113677 5.268985381219965
Ge 3.071317194777039 8.090061337021275 5.0328798068685785
Ge 7.804026094197563 3.0752312078023594 6.473289943666273
Ge 0.894908918258114 4.793183794664389 5.842280273139883
Ge 9.107391612331172 3.0752312078023576 6.568713179554567
Ge 7.324347466878034 4.334507004559814 5.9023229230615515
Ge 1.0008974794935754 7.768233778636961 5.4313261377077815
Ge 0.7567725511889055 1.8166240269327936 7.555514067841496
Ge 4.6911433923334345 4.525257259086122 6.1878294321592895
Ge 7.792163474702379 0.15398358907751478 7.34024126572602
Ge 5.069482388187475 7.110869949685475 6.0929991175768965
Ge 4.253717210881561 8.387060146990793 7.857894048132821
Ge 2.935807913038893 6.013774965893263 6.957270228646471
Ge 0.38769406965673453 6.79975705109035 7.797496991030171
Ge 7.301415384159837 3.6565817419684254 8.470095184348134
Ge 2.3221682126876346 4.8521406045849975 8.150556201868833
Ge 0.6525882497380979 3.29905659162139 9.156070194198923
Ge 2.13500866713666 6.918105216389012 0.5053691453873813
Ge 5.675952772108272 1.9710059881001967 7.687608156265129
Ge 7.556174694392969 5.726889000361343 8.774569547061432
Ge 0.532225065671358 9.123123954925948 0.0317692277307029
Ge 3.182201635140021 6.529225371460807 0.20868383235189258
Ge 6.65042523705013 0.16860259712967193 0.4342254212136572
Ge 1.527760699679469 4.564208069884765 1.6128271775636889
Ge 7.951884714764406 2.5269685124888746 9.101179376528368
Ge 4.235050346477674 4.187559530329856 8.703487060405607
Ge 9.043151222388792 6.58776605318548 1.633742030035635
Ge 8.121508707514243 4.125628754580966 1.5920467311870588
Ge 4.4448412201603515 8.335444057377405 1.219629044849028
Ge 5.291156960821486 6.0238445534725855 0.5334563494912998
Ge 8.515471697326301 9.102796914700575 2.2119009148761
