46
Energy = -184.86939829 eV
Ge 9.718491114390705 2.295927546320817 5.922940754918816
Ge 9.178321624123761 4.6179451388609225 4.592813684525371
Ge 8.602850377513343 8.375956638682789 4.524283716374503
Ge 6.618510970676503 9.991871930731396 3.633122383152637
Ge 9.152585474974053 6.450289571748799 2.5972362602489047
Ge 8.14023948887132 1.9113057376140377 8.00235459927255
Ge 9.219707203319004 4.609792637136368 7.272377526603295
Ge 7.61660548400751 0.6074226568364731 5.527650040704488
Ge 7.503526637306806 2.724838739107236 3.874731213066319
Ge 7.943627018456134 6.095265332902269 0.20172355275566817
Ge 7.335034717563572 10.826833792045493 6.030151640656547
Ge 8.003551756860464 8.504247366933896 7.175085886646614
Ge 6.835289737358647 4.569752183980305 8.375707298194241
Ge 6.543160492489535 5.991013407684742 2.451405953006568
Ge 3.7576473093870035 0.6288397590301477 8.581648833689268
Ge 4.588694374421609 8.363684713128523 4.07449995219586
Ge 7.431697153399136 8.51505474801166 1.5489190980310887
Ge 6.8405234105599515 4.552231521472564 5.776546909239922
Ge 5.364119242852612 5.643387986936491 0.01628377975351815
Ge 4.9192600327091025 0.8179791825046139 4.1674346125628725
Ge 5.606850826410805 1.3740351172856031 7.029412041205854
Ge 6.473057467841183 7.054653319941851 5.33553814121269
Ge 5.969818548266334 2.289389997589907 9.541657288118309
Ge 4.948638421318939 7.797006539343003 1.48068568356327
Ge 3.752546124109613 5.999543436462598 4.845853615762103
Ge 5.885126106004216 7.09911107867687 7.930356398831032
Ge 5.292491833276646 9.487507403188918 6.616396432111554
Ge 5.111457778575192 3.7836588103849187 3.423338269032148
Ge 4.013620533294517 3.6215852577282437 8.08952309593665
Ge 2.8624794910850815 0.33203568594149185 5.799151154006362
Ge 3.872170255580474 2.8729859664524104 5.627719623515706
Ge 2.6248142986792016 8.57265565607478 5.823171379385146
Ge 3.1903180480808913 6.233251810603189 7.317860900017457
Ge 3.6193869485527443 4.13177247371207 1.3068697082393117
Ge 3.911029297691735 1.5012240345547259 1.7950749111711224
Ge 1.8208777020437756 2.107899541916311 7.360205073983519
Ge 3.696851340194518 8.558018802075102 8.458827976785372
Ge 1.7305282055335802 3.8714207069275135 4.070520908387846
Ge 1.6353126887331133 2.365225645555361 0.8199018673341275
Ge 10.219515444478933 2.981408007935133 5.5373428625663195
Ge 1.357283944785845 6.706889578794188 3.993120544948057
Ge 1.6888568053299013 1.16611602707332 3.2777919562647866
Ge 0.5984520490609403 5.276624980997799 6.225432732472085
Ge 1.0868439979405125 5.127163059442246 1.7402831223987714
Ge 10.153119407210339 2.8746479959615483 2.6094397362481345
Ge 9.718491114390707 5.223811349305826 3.956086360182917
