42
Energy = -169.53688958 eV
Ge 2.6063865723900785 9.491937356362369 4.335596005990957
Ge 2.1839783613755275 7.479188390006132 8.083224637003806
Ge 0.8307637550519678 6.489814277401088 6.129627645633218
Ge 3.7645774082726238 5.4235020752678285 8.74959868963108
Ge 6.078921490327328 4.8006271632523685 9.75583963931572
Ge 2.4309091872103203 3.1165199659867295 8.402183106328968
Ge 1.4723538009262795 4.013554766444769 6.169019448614172
Ge 2.2392552028946167 1.2232426990774086 6.30171168813707
Ge 3.0604656093453237 9.693932574949866 7.056431162475708
Ge 4.505990024751456 9.958808325276097 2.5400698223435736
Ge 5.586035616342487 9.158541342462497 7.027874412033525
Ge 8.087699287762199 6.210353072438665 9.070516357762417
Ge 1.2435426788971042 2.5416485901495043 4.059877211576096
Ge 6.00434075562693 6.617518213621462 7.504088332050627
Ge 3.4647289517637376 7.370053373220953 5.68097758442517
Ge 1.5586683537337465 7.209233071598152 3.6901815092743298
Ge 4.711725920074153 2.0599124894764067 7.736810971268539
Ge 4.0979002589880125 4.746301562035217 6.208989973851998
Ge 2.755139848280135 4.762384518338977 3.8341251171309114
Ge 3.5946939600520476 1.1862020742887618 3.8271083540037925
Ge 7.893266932149744 8.691632051274686 8.291721531455014
Ge 7.229890877162386 5.422865915163143 5.614778906442928
Ge 5.9958585853419395 10.198978870650075 4.591553969890086
Ge 4.0295110613586616 6.576988214645163 1.9721673723516626
Ge 4.5187716503430995 10.198978870650075 6.038380223577909
Ge 6.972224274897071 0.780684026752827 6.671400722795462
Ge 8.109051227706932 8.836227977297199 4.070374324337589
Ge 5.668141011456929 7.680293437942717 3.6745879741341496
Ge 6.901023546169634 2.4064842441909544 9.08250787282161
Ge 4.6492642831235145 3.885058073478361 2.137268740770059
Ge 9.961720729103387 4.419304187153077 8.389409909734386
Ge 5.82962155541744 8.250319356008967 0.7668763095584631
Ge 5.349023903437426 2.5083522589811764 5.129913266329345
Ge 8.113896969916825 3.4001154610450293 6.863333431805905
Ge 7.936953211222281 7.476854075752846 2.0070404211090858
Ge 6.267741422752659 5.482741778348562 0.7807571520744105
Ge 8.801292640080113 7.6108169466425455 6.169160046563829
Ge 6.944368781262273 4.326449040183041 3.3445989248292736
Ge 10.04174056409531 5.436104462874026 6.049228563064561
Ge 7.963607276314196 1.9970199837649365 4.543235186877631
Ge 8.783080812843167 5.108953393732767 1.5055276423388348
Ge 9.647920915178817 3.9444547420732707 3.865290625165499
