44
Energy = -176.9668219 eV
Ge 6.784240010565647 5.402304556727363 9.353847049020764
Ge 8.777245123238705 3.792080496029821 2.9577884613587537
Ge 8.730812218769833 6.438112761185172 3.2296677772656817
Ge 7.469095576580209 3.1526519091035365 0.775416658470224
Ge 4.744332343761498 6.882615173703248 0.31372327858765153
Ge 4.247401679112874 3.7046855867117 9.929681460831791
Ge 7.601906283208555 7.377616328707482 1.013443725555393
Ge 5.4312002801771735 1.7035892229205152 1.6962692480217558
Ge 1.672822150199453 3.5566398078500785 0.6844692859797742
Ge 6.638456916581388 5.161416098535322 2.1754766327841515
Ge 3.0742355489161115 1.2138724527243716 0.7794840251777797
Ge 8.04318585122894 6.928825629981544 5.810893445763172
Ge 8.529722971780386 0.5554465460700162 5.328259436045831
Ge 8.511234692469865 2.6508215354512727 6.893862162843936
Ge 7.0500336572837465 2.8004814213163427 4.5623596945538525
Ge 6.517338701885556 8.3916774814275 4.144115186683897
Ge 4.765339541968378 6.507937786463115 3.216676739438092
Ge 2.734440400501465 5.768314318892789 1.6323828548857884
Ge 6.1250658395653055 0.3724445056926926 3.9596109399760833
Ge 5.5618837281867 8.91619305119212 1.7251123559383132
Ge 6.500125102564782 0.7045391704814139 6.846544145319006
Ge 3.6931383347114504 3.489197530242804 2.8291037561543826
Ge 2.6999026542306397 0.9454862343143002 3.3503371206837858
Ge 6.688901585059186 4.675113604560319 6.332922713681971
Ge 0.7104410452210757 6.614680355747679 3.469134361398105
Ge 1.0002620362001688 2.8276840888149626 3.2285218354440337
Ge 3.96650577215942 9.818209256759205 5.291444240780921
Ge 2.749707178576466 7.795243544755295 4.6270676163944024
Ge 3.850607442666609 2.5020044979291893 6.131728458241606
Ge 4.3456819311742185 9.818209256759205 5.387058794027719
Ge 1.7080478743218328 4.761316964135368 5.019816997685044
Ge 4.139346934665123 5.503656232236646 5.635196222134381
Ge 6.70486982115807 3.340808837446345 8.809511666017931
Ge 5.514923889210264 7.630229468852633 6.461195308595363
Ge 1.0237083353899041 2.485090007697954 6.180728665690205
Ge 0.4034343098507598 7.261614401741145 6.073623996338948
Ge 2.6307280286979275 0.5336704859734215 7.6848990675739275
Ge 0.6079674984661486 4.8877391132725 7.5717351602749
Ge 4.846816785637248 1.5073396878495022 8.61294443522524
Ge 1.9634953526752743 9.302214632188472 6.73284950835696
Ge 4.326315738886456 4.514535509805786 8.203897335510277
Ge 2.1945192949842 3.0234573150181583 8.597430218552562
Ge 4.179417484062095 9.117998042643356 8.121897526469448
Ge 2.7819462550910874 6.745334023674162 7.625582792058847
