41
Energy = -165.08188381 eV
Ge 9.208804343601189 5.497747372144758 2.5355512258481907
Ge 8.037514178094336 4.845496912127772 6.378196401785971
Ge 9.448836973427703 2.726802872059721 6.203554491895536
Ge 9.115275418868006 3.069214739018745 3.5100357536959086
Ge 8.603505961734474 3.2102570378870725 0.8324960672061552
Ge 6.803900207946542 6.551523747789839 4.657732685028419
Ge 6.800948238559493 8.67975340479715 2.7241751716361855
Ge 7.737144818960649 3.616632611465704 8.877382903164328
Ge 7.31000338772446 5.53220587035679 0.6691778229722409
Ge 6.830191039783319 5.972871793562346 8.372239768064103
Ge 5.692962615946453 0.5607923523763925 4.506019057345217
Ge 6.80705634960212 4.421517681000451 3.0822513168993764
Ge 7.935877472157873 1.1867221882580143 7.848963193904907
Ge 4.902166515434714 8.959998719543687 4.6618992160556365
Ge 7.006513488256238 1.7675510181776355 2.4991112439892746
Ge 6.659381968913086 2.559878711645448 5.917543262254263
Ge 5.538560154725929 7.8028845705261025 0.44087086920843876
Ge 2.3226842203887306 4.488428683936377 0.9069238375502705
Ge 4.4253947600169194 9.767784454119289 1.9796151012848255
Ge 4.691825927021476 6.892177185828436 2.8250135573404354
Ge 5.440327539983268 1.8256210862695106 8.37347806553648
Ge 4.210763064069676 3.4729826356964377 6.63481203374474
Ge 5.70852679956696 3.425955586893545 0.8967321290097063
Ge 4.961954078567332 4.213007338862785 9.226227449995513
Ge 2.919516300425623 7.6632399801606566 0.9883584308566015
Ge 3.5899395558924763 4.364101805031476 3.183733124769174
Ge 4.855624138824294 5.973225727235633 6.363806886175673
Ge 3.349131431262032 0.944395413139546 6.555223293673513
Ge 3.587434660250392 1.9228176480145673 4.041943143242188
Ge 2.6348577200167913 8.399115594716687 3.5039303392693775
Ge 0.6579007030207914 5.15638863527573 2.6802494749790493
Ge 2.1029315339482 5.3765926291345325 5.109916899924468
Ge 1.111930386028261 1.3811680519683631 4.952672851050254
Ge 1.337209701764189 2.306797970276149 7.903682135567139
Ge 1.6345821604208293 2.260624467664186 2.3412575419905814
Ge 2.5789029496862463 6.909471504361066 7.237785240813106
Ge 2.525978338148978 4.549702679069017 8.367665162809116
Ge 0.3471847180387084 7.269469083743923 4.048962602067841
Ge 9.448836973427703 3.078496194155585 3.718404374091619
Ge 0.28840065890626815 3.820026375527643 6.133947762102834
Ge 0.050228134903777664 6.4559107095421195 6.535933038077752
