48
Energy = -193.67880953 eV
Ge 1.8586445043488935 2.0865448450056516 8.289976787415887
Ge 2.821031420531713 4.37039775272796 8.78981952435095
Ge 0.3050741960864204 6.873597536645096 4.180577421022554
Ge 1.060033388010269 3.9127258137167673 6.451846702145212
Ge 5.012699168405025 5.753719793356862 8.070227573148808
Ge 11.1649579994278 3.5161572923521636 3.6759536976673832
Ge 1.0751201562695936 6.405709730633385 7.717597069679033
Ge 4.808504835235326 5.353783077153762E-4 6.194792433709929
Ge 3.651785802754859 0.6688446505553356 3.9077069815745
Ge 1.1878166032079254 1.716603592903752 3.5348026817712914
Ge 0.49063852654020235 9.500273982600437 3.419910724175122
Ge 4.454372160492432 1.5033842315357702 8.343742067321978
Ge 3.35468151138537 2.469009334129335 5.974868357438634
Ge 11.08327595550973 7.485050697162767 2.02422332255256
Ge 2.970885371403354 6.871827869527257 9.527245827907722
Ge 3.008269321744065 5.983063653005372 3.6910792153846907
Ge 11.331516503558605 4.316453975355471 1.0648444918206497
Ge 3.226041345785882 5.59152485484062 6.198649628732035
Ge 7.53869504121602 1.3845117549019668 7.601914194353537
Ge 3.0916737761093125 8.147076662776431 7.088176758222666
Ge 6.885305128231944 1.032320443551234 4.929668729143465
Ge 6.287576257695479 3.44410753395151 8.716564441769124
Ge 1.574551975251268 0.33386828944957486 1.281830708510371
Ge 11.065588626942038 1.5704294198604372 1.6543184429086433
Ge 1.6480522185934245 4.18389075525335 2.6692642798889357
Ge 7.380574291496868 5.672154169157347 6.820406772172007
Ge 5.876748708008881 3.1841494396143335 6.064761645957588
Ge 0.7972521345427971 2.353199770317928 11.397464107552459
Ge 5.08542063563335 2.5683932470107007 2.76307968099641
Ge 9.025139899234148 3.7975697002061333 7.791897741526107
Ge 0.6632163552121989 8.655981987109449 6.049974547273867
Ge 7.342285671785539 1.4340834770486213 2.1870103868965853
Ge 5.161668421067584 5.169770517404252 2.7053243138146184
Ge 1.7993651528312251 7.695767808768665 1.798645927250704
Ge 3.037464889995876 2.5089549696028617 1.099697841766428
Ge 1.9554288866283254 4.717306932695468 0.1344052474111467
Ge 2.8094749927243474 8.590466568640673 4.197709369064156
Ge 9.3800025298758 1.9245062266408843 5.759151302133288
Ge 7.180248394551894 5.155913030384831 4.290657564939511
Ge 8.89974035389549 7.047747272744769 4.9387469151457255
Ge 7.299689017355197 3.6029736130143553 0.4970982651198548
Ge 6.383320175944248 6.032596931781953 0.6620282545008634
Ge 7.895590989226602 7.405737442085053 2.5251982686199974
Ge 10.014799495219824 4.625720999807171 5.461062051768981
Ge 8.62948156532281 3.30769552692315 3.391092857606019
Ge 9.049259380473378 5.211637388635732 1.389898769076234
Ge 10.558871456645173 6.84139331439628 2.604286690839906
Ge 11.065588626942038 4.19905926425454 3.150962452551719
