42
Energy = -169.75340865 eV
Ge 6.212643708879324 6.568040926178219 0.7524832368551974
Ge 7.348707478622468 8.716137931070067 1.5561605853661478
Ge 8.215798629968841 5.81726989259458 2.1208669280631747
Ge 9.688956337956663 8.632033110055465 2.5967546045794303
Ge 6.112541682457179 9.841098471835462 3.466937678391757
Ge 5.730181038024523 7.126674707551415 3.2449520374818475
Ge 10.690917626434038 6.370665131427926 2.6336604654547577
Ge 3.808977772221832 8.812755712004863 3.708424578408538
Ge 7.762853789417019 11.659844358252075 4.578755262925037
Ge 7.94001315947202 8.945497618043557 5.122122381059742
Ge 10.073715372361283 10.534591419189033 4.253622340667603
Ge 7.298926774690767 5.655694250304532 4.542684392597135
Ge 9.62771787237574 6.92954218842369 4.978490181531747
Ge 4.0752900818276085 8.684708964249108 6.2347701152247
Ge 6.352934199730026 8.333155693597798 7.319042231353523
Ge 4.8329266573120755 2.2157584880929897 5.445862107954502
Ge 3.513077885399233 2.977399461929156 7.570956561272805
Ge 11.118822931071787 9.366026154718838 6.336110711829463
Ge 5.634725215987464 4.578759497737707 6.154519547267299
Ge 5.644815347360079 0.58003988674197 7.381812330052156
Ge 2.99901039253738 5.815384387624874 9.397660164391445
Ge 7.656871334888675 10.94557653842322 7.059339778159529
Ge 3.662792941104683 6.21138945857699 6.805760199159367
Ge 11.935068558773109 6.959575025848111 6.296500779047647
Ge 7.44230704617842 2.446505978981562 6.58741869769187
Ge 4.2773521568820065 1.4405037237213043 9.483914046061637
Ge 9.580259544691659 9.86035977614568 8.231659127484763
Ge 7.0283363275847766 4.409377952692833 8.275531094653717
Ge 1.6516577642905883 4.830687553934592 7.426178119801188
Ge 8.034098611618855 6.714745646403141 8.424234830212095
Ge 7.098286321766742 1.8360652647205626 9.16585621084828
Ge 5.726751793813036 10.584856226166407 8.588859058614336
Ge 3.2255512476963086 9.91273183795172 8.342712947249465
Ge 4.915261683520539 4.090538473898967 9.616608159079892
Ge 10.465718618387394 7.264528675269426 8.365690493510929
Ge 4.443091440355907 7.885242913992545 9.439988501424384
Ge 5.693367462611393 2.4227252143688034 11.383459246257592
Ge 9.402960874502828 9.748322086728288 10.715707727082993
Ge 6.89996864212791 9.72908001491338 10.669269706808533
Ge 10.516347636247156 7.408552761559299 11.017743409462629
Ge 7.96318185387042 7.22787006992888 10.85638114398142
Ge 5.640149642059834 7.852622011229961 11.793473737758747
