43
Energy = -173.36109926 eV
Ge 1.2143398940057089 5.114554012428618 5.149517532968671
Ge 0.9788078364208883 0.8920911628027768 9.004361201688504
Ge 5.108080334929423 9.018329677808769 6.171355899081511
Ge 5.489764122875315 7.382512642132199 2.457406253420122
Ge 2.0625720519343282 6.805133022881219 0.8868415282777584
Ge 3.216091363135775 6.467523533199473 7.829139694129729
Ge 7.284592102423628 4.093606774090078 4.508883806745142
Ge 3.7212959558225682 6.452795970786536 0.7676853085429154
Ge 1.4529017679398935 6.492307027826824 7.75125446228496
Ge 0.6418208897370872 4.401382468404661 9.070187930603671
Ge 6.5277744974865906 3.934287166701569 0.2050882744851557
Ge 2.905971052089828 8.638043115581663 8.739777394319878
Ge 9.643650395484158 4.622897415594276 3.0534586763903664
Ge 0.805005108294765 8.925992231547028 6.774527872460702
Ge 4.112373313199386 7.397642636361107 4.547373980847077
Ge 4.1240066170124905 8.94471834190375 8.582685256653397
Ge 3.067676019318491 0.09022513886233659 4.53889153410106
Ge 2.0183498609997588 9.490336394840734 1.5614706509157843
Ge 6.602378884386963 9.23571472463022 9.181115032691588
Ge 3.191869457715427 1.1236886826062176 6.949082148372401
Ge 7.930448305877008 8.671161631305422 7.047743626856006
Ge 9.66252787561807 8.078471785711251 9.374409388610411
Ge 6.0958324730792 3.6009922936219216 7.322809574228788
Ge 7.203263677429658 0.9910385780042748 5.41900765165052
Ge 5.645297163087135 6.286775509805829 8.628334130148955
Ge 5.620090997777144 1.688894489054342 7.6081835482538125
Ge 4.54103236107909 4.353149884560151 1.8890209578506791
Ge 9.521301361183918 3.0088223702104773 4.954462701669663
Ge 4.850064832523391 3.5607259174240578 5.127318828334565
Ge 5.862623026378935 7.554023553699691 1.3073535900746573
Ge 7.561643644588243 6.277462196479118 3.515125350875611
Ge 6.954419372297667 5.558637754474854 2.457406253420122
Ge 7.881583776885759 6.409228360786136 5.900740445658516
Ge 4.71704507668387 2.025456013967309 4.9443983364676045
Ge 8.799036447907554 0.3908581123505932 1.1590304362472257
Ge 9.663843653056057 7.84803839051219 2.362449175730432
Ge 9.628732041532842 5.140431381463423 2.0771812844506767
Ge 8.123791767903327 5.897929837050744 9.655148936986729
Ge 8.610973825883168 4.40138246840466 6.979074074936136
Ge 0.12994346341651422 7.202331482548616 4.2738019187400775
Ge 5.23538488046438 5.858572939471351 6.051364205508494
Ge 5.55354139606295 9.627682727195985 3.705842135992668
Ge 4.146557016200687 4.223044968231526 8.990698352491771
