41
Energy = -164.96120471 eV
Ge 10.680815887545585 5.209286475553202 6.545120744694523
Ge 8.743479153092363 6.720079220929825 7.731710677744101
Ge 7.819129496183629 5.395118547398549 9.842116358857526
Ge 9.658587989193467 5.9103683628119 3.891322666972489
Ge 8.994438275886498 3.891776437236846 8.02004034250142
Ge 7.680401725951419 6.501416287777291 5.420335249689361
Ge 5.93872667731582 6.033024370174584 7.864985287307178
Ge 5.585451837833399 7.970175674148736 5.027648511265438
Ge 5.129781577536501 4.902403017156745 10.196398518120436
Ge 9.281656147620023 3.5481531559625936 5.0104462579455635
Ge 6.439169894866911 4.273728431834981 5.8482389642519825
Ge 6.231613212599433 3.1738856111368823 8.541954913074845
Ge 7.520371580496458 6.069358112326377 1.4789865985775223
Ge 5.596761886543848 8.008553239456324 2.365949026893525
Ge 3.3908751391004435 6.815014900840363 9.326547633214489
Ge 7.66517147387434 2.1148577582819237 6.479510165415322
Ge 8.848432148966966 3.8935989286898733 2.342782120211813
Ge 3.9539963696976628 8.206143483405741 7.120505150642761
Ge 4.201643821038228 9.96601451660389 4.156781928732326
Ge 6.025833036049726 4.548467115111584 2.8645129094875834
Ge 3.240506561639329 5.64353892807711 6.179241065587825
Ge 1.375284929876676 7.363165199500118 6.905016722880712
Ge 4.247059430119038 6.142686555054753 3.8059671989258446
Ge 3.5931666505469355 1.499649759703678 6.896657918601876
Ge 3.5293048972813015 3.9341578522313125 8.060054467708554
Ge 6.658602210639974 1.9882753258999852 3.0221734579557826
Ge 5.31834897971755 5.295866062086929 0.23253900866132704
Ge 4.255186443775733 3.0175898940507917 4.732324863110686
Ge 1.9610779549397677 9.714962495125585 5.96166156483165
Ge 5.638027131598237 0.8938769951088391 0.9054527824442582
Ge 3.3171718997409436 9.441337245790159 1.7175289556726
Ge 5.4217798763629075 0.628191011433741 5.065193721729952
Ge 3.4037231761471514 6.771481933257919 1.3365439000727877
Ge 1.7387043566233715 2.6829417335730215 5.415151048365746
Ge 1.2963455261553767 5.241295967784851 8.654663414990834
Ge 0.642612935372937 4.990400732941864 5.958900784739998
Ge 4.423307473804645 3.071661729535677 1.309559734572274
Ge 1.932073088483954 8.493624138398564 3.6916668978766265
Ge 3.9836373191405756 0.7042331911392388 2.8682166978303827
Ge 2.2529386594230094 2.5955217526103675 2.781431624464954
Ge 1.6868227632347608 5.973655137885436 3.2781940673753596
