41
Energy = -165.23937532 eV
Ge 5.858955360387898 9.796480875098224 2.415169899246003
Ge 6.2562753151844825 7.275956609788975 2.543248013519472
Ge 4.327365333965306 7.979436302516963 0.6012719553152444
Ge 6.587619993255551 9.407804334944093 4.926615765609688
Ge 8.33051097310296 5.7154699749231455 2.510723305215788
Ge 8.796491557461353 5.606530277513506 5.073603055960614
Ge 10.071118651120727 4.201681937137373 6.964144333912639
Ge 7.971357587421114 7.73914117906819 6.313913955807334
Ge 3.7476734886916137 8.58507420219035 3.3667156342795352
Ge 5.779991458913649 5.644375706193198 0.3748421277028026
Ge 5.289684191936952 9.729011113061224 7.1012913296211435
Ge 6.889701694178286 3.4848411545884552 1.9705971242942248
Ge 7.901874164390599 4.874752153062712 8.230687928719965
Ge 8.84780050062679 2.767916507689568 4.9974102874688136
Ge 4.4812638318723295 5.890160033469301 4.027117930222651
Ge 6.655775454435978 4.313761736460698 4.417166118575414
Ge 3.336747116724752 8.579911464594542 5.978543974365112
Ge 6.511695051886973 7.826085742513775 8.59937145065011
Ge 3.078184716531519 5.72458734186261 0.01057221448346628
Ge 8.554618241764537 2.132157648890447 7.673998812398824
Ge 6.312704664637066 5.221495679036306 10.349470046942772
Ge 4.149539868874227 4.260144045675029 2.0060928646723792
Ge 5.723590815645946 4.0986391094178405 7.151809796219781
Ge 5.456911010798559 7.108290348169514 6.2012657100926285
Ge 6.4902812372308425 1.8819992716998268 5.753057975720539
Ge 1.994855343389893 7.336617922723312 1.9810558376867817
Ge 3.5373865963283535 3.3200785612852415 5.510524861792598
Ge 1.3635530779696714 4.66389073687909 2.0238565409091733
Ge 4.902617272349716 1.7175724868463893 1.5968873181296277
Ge 6.819116866762205 2.642912625101089 9.760148701918114
Ge 1.9697678577027813 5.827901861238307 4.723432861319471
Ge 4.245177589352857 3.59889895468068 9.422336094135906
Ge 0.8076140134506563 3.4676339116021277 4.5420295735454665
Ge 2.0278244901416933 6.668561452361232 7.397146444530175
Ge 5.220738553467761 1.412256444761831 7.982961636429237
Ge 4.3440394968297 6.08424501140997 8.489452655373452
Ge 2.3378662158268138 2.141651236988628 2.4500309570308403
Ge 2.5965808332422657 1.7851556242213973 7.591058215593727
Ge 1.5182047347200773 4.125830297458213 7.057796140469228
Ge 4.556057063509963 1.1682813280105935 4.080426839548332
Ge 2.1670936662548037 0.9713226977573313 5.034651296750805
