48
Energy = -192.9904138 eV
Ge 8.030134609571393 10.619443995252167 8.471761195703506
Ge 4.720936373254116 8.273783387452651 5.362929420080795
Ge 0.0814418236940278 7.264970677176803 4.380996532382243
Ge 4.840120004740137 9.591706269962927 8.514794740866755
Ge 8.474961719901462 4.766031576730424 8.845246356684148
Ge 3.508926664131414 0.5121977877208866 4.346085674223753
Ge 1.3418862465287407 10.61233054291618 6.895714396477738
Ge 8.620341752819936 6.717240099377542 1.101032611166865
Ge 6.098671962145454 5.08789575703414 6.027103431350973
Ge 7.553217813838179 1.400996846438521 6.893240469607973
Ge 5.295463161243453 6.0587135652262605 8.338840488756723
Ge 5.979150234292317 3.7540337310419627 8.815027954140863
Ge 7.249069659518904 4.286905799021818 11.13156152670931
Ge 4.153465756814365 0.5856649584165313 6.800966712644871
Ge 8.05907931431934 8.57216837604709 3.329202520128302
Ge 9.263141195692855 6.296588035954512 3.638434017307874
Ge 1.4659947842851127 5.572302379749709 5.918768720587789
Ge 10.242972875374354 5.745535384459734 6.014736484922534
Ge 2.9720971126925813 6.758441714435793 8.868862018843808
Ge 9.170957220635577 6.926105686932525 7.9707806678841875
Ge 4.078187548428756 9.757800262835163 3.3713807121193846
Ge 7.841525091793313 2.923182318683704 7.049995899643717
Ge 5.360837798067712 2.7941514355894155 7.345057567258299
Ge 5.3421439037698955 9.041161332315873 11.15190065646076
Ge 6.453927648342971 6.724440407752701 11.192951448307557
Ge 9.9431737624821 3.935721988166769 10.927811234397522
Ge 3.5510995939561063 6.163812228587031 6.409759081533329
Ge 11.180642641713513 3.3568057036482357 6.051056774181929
Ge 10.662770861214359 10.599882636269104 8.221345038486707
Ge 1.3740615304867314 7.955580298844299 7.104366538834521
Ge 8.34205679452126 8.874029540085205 10.964913966365469
Ge 10.256390769381406 2.7941514355894155 8.533671123681867
Ge 10.330798160192266 6.479772975579268 10.58008514399041
Ge 8.410527358374612 9.661860801075846 6.008514428561183
Ge 8.864758232749038 3.985545493857133 4.827191847195022
Ge 5.4930697473894705 2.0492798288335567 4.810272885645128
Ge 7.13100835703014 7.4198598845656925 5.401874196370782
Ge 7.672699147112644 0.5245926441210852 4.270683383458229
Ge 5.636975193592909 10.666310710526016 5.219432900585236
Ge 2.8778519148476627 8.791418288349051 7.22546313682918
Ge 5.788300739173313 0.5151053205558737 8.87141655162144
Ge 6.901297954079681 8.59072714757227 1.619330270546357
Ge 9.750225788804276 10.47495145968698 3.810927499321597
Ge 0.05691929963071321 5.087895757034141 8.291177412467084
Ge 6.922639438912492 8.081553617532352 8.734074786844584
Ge 6.333710563787827 10.457922647039727 2.650442288871653
Ge 11.201617815609948 8.220860507037388 8.957237965020385
Ge 10.99311991461007 9.399719631656207 5.7491621572917415
