42
Energy = -169.1240157 eV
Ge 0.10680586825224515 0.953563580026857 5.6599071925720885
Ge 0.031211674599297055 3.175584490678013 7.02345847244863
Ge 1.6314109648679849 1.258089423941873 7.983466838048699
Ge 0.5110558701576484 3.163550157934814 4.117220604065094
Ge 2.6984799621200515 0.49208333210193916 2.2712404004652207
Ge 2.5308404898154846 9.23080124251634 6.130287465198482
Ge 0.1297963917905226 5.47103335563044 5.4467241845096686
Ge 2.003681881908254 5.754403952153882 7.340384522951884
Ge 2.6060328192573556 2.0243724910032763 5.4401807604524395
Ge 2.09187013665535 3.065747819320967 1.446716495627824
Ge 3.0186313509108547 3.461638937852314 7.641977391444153
Ge 5.232059443362976 9.463293822917587 2.6704485671968508
Ge 5.461702589890116 2.5492442596971405 7.998524564676411
Ge 3.8735689790178243 1.464900787285727 0.04530678327759786
Ge 3.934467084116433 6.586202050924266 3.4243227842147594
Ge 4.285763236987597 2.4431002399046857 3.007884401340754
Ge 2.736762149421974 4.676157017458603 4.971588832229277
Ge 2.6132469583884705 8.539797495773206 4.784541536898669
Ge 5.18761071978919 0.44691872625305945 6.374003229461849
Ge 1.1362398098184465 6.866806785460608 3.282084235480578
Ge 5.688125228024294 6.380509201526871 5.89884571409833
Ge 4.24459317412449 7.2922593745220095 8.00654427480519
Ge 6.321203853723583 5.6338720890447425 8.463335176440147
Ge 7.71584252377631 3.6135108657652713 7.023602960181817
Ge 6.931237355379144 0.547306557938882 4.614739821073517
Ge 6.203259956737519 1.7111274846349758 1.3187303294632278
Ge 2.487093246332529 6.087675736347982 1.1953029746156676
Ge 2.4657969576243666 8.915190563872901 2.1066080658431234
Ge 4.833229024513919 9.23080124251634 3.3327613850436073
Ge 5.59129014170788 2.9160092018262693 5.352034981079606
Ge 6.332290767215031 4.924070380519157 3.046010925230283
Ge 4.554784844377451 3.9382520049378322 0.7990131289250763
Ge 5.012157358811068 9.114296184435128 6.247593531588632
Ge 8.082524241234776 3.1724010104982363 4.26389344807029
Ge 7.065514481077961 8.169371017254006 7.7942893864434675
Ge 4.692109368751676 7.642392101731706 1.0658671767997991
Ge 8.439048238909159 6.234647975162189 6.702622530283743
Ge 8.224590914046619 3.258494944826285 1.6343719461202901
Ge 7.303096502529629 7.268654297648366 2.0133251682243563
Ge 8.65478063325766 5.9777437455445925 3.9291606729947226
Ge 7.436864917806644 8.308083760888932 5.080570674293727
Ge 6.919386035082331 5.134891771583851 0.44291300638354014
