44
Energy = -177.81900515 eV
Ge 7.1690011333152315 6.6123331115248645 3.316829929923138
Ge 4.545000202016175 0.4037331554395868 3.2626649416534486
Ge 8.347936856657084 4.643446056786329 4.506095416072274
Ge 4.715750329728127 5.832218164457641 2.981241454339491
Ge 3.742539680324932 8.18626068153605 2.3831336154630214
Ge 9.979049199354712 8.381515154652046 5.291662381533992
Ge 6.75086921558384 9.232489086293832 3.5802132568286393
Ge 2.373019216366317 9.652221559485378 4.247838118765987
Ge 7.815241481841651 10.271708277958595 5.572254111339777
Ge 0.3804379478146306 5.862509092539825 5.917481756939006
Ge 6.086291259469318 5.797342167631395 5.387764469936497
Ge 2.799641279341828 7.034261319378556 4.596591457289293
Ge 4.161424473956097 0.9663488935247185 5.682673346913738
Ge 1.7050752332662085 9.587300374577653 6.279349997517001
Ge 3.6538187980156307 3.1186373984465874 7.867592948618964
Ge 3.9994075126116466 3.50648135666369 3.4649156794144402
Ge 6.164542331994081 3.2574777008740816 4.737870311833773
Ge 4.728635417082864 8.629095741667369 5.01986266195257
Ge 0.7247079385528079 7.886074325576982 7.909629013249337
Ge 2.288802631368931 0.08167358795206205 7.10973815868517
Ge 7.9041641753512115 2.7440330167111675 8.394178419217488
Ge 8.68706699986097 4.741256162272569 7.106018089912927
Ge 3.814141521287777 4.741256162272569 5.609607359956748
Ge 8.319643396539085 8.50796281567146 7.4967810057367545
Ge 6.6772585361159305 6.513125307569074 7.768891894983527
Ge 5.792543361170384 2.0828311188202804 7.005471276865708
Ge 4.287880441847957 9.01401644208052 7.626234059949377
Ge 9.90233760606263 0.538460753988702 6.902182953355368
Ge 3.8995356361562563 1.2165974743799628 8.76073137909774
Ge 5.73596849558975 4.340310937850445 8.428759936601951
Ge 0.5509558730533833 5.288469831424756 8.512352976463063
Ge 6.097563971105441 0.48876195274028755 7.570762938906202
Ge 4.347189559477154 3.529640086701552 0.13381072089366908
Ge 7.136970929100403 3.908496182777179 0.3210112394847127
Ge 2.7652892204862165 7.981401947244298 10.080801477660835
Ge 3.870327945896338 5.923792466288834 0.6751649293047308
Ge 8.38045596068968 0.4109490377862917 8.99438952940761
Ge 5.421457007281718 7.599287177654326 9.81281609328919
Ge 8.490807787867995 5.878685356112966 9.630826651279943
Ge 9.375944262087822 8.395064566372195 9.867071404086978
Ge 4.282310933316543 9.874029806094136 0.42515242336153036
Ge 6.169782834713717 6.43486569226686 1.8271209101037083
Ge 4.014672725204046 8.04116598617572 2.3831336154630214
Ge 6.539172653952832 9.0123823241466 1.4606150570459213
