45
Energy = -181.17104363 eV
Ge 6.851286990653614 5.9794870338263655 0.8620236513811769
Ge 8.842368922838185 7.015093957820737 2.2754083841005914
Ge 2.4934295718293153 3.3573550636831277 10.1514992078786
Ge 4.795589923083741 2.266030029688243 0.677713576278426
Ge 9.441021025682536 4.466427298443583 1.5679186209324878
Ge 1.163413518026371 1.9442279517821137 1.7008561148005579
Ge 1.9425274562424597 7.72630256769131 1.0021781194353845
Ge 7.004570402892731 3.365765570030981 1.208074041491275
Ge 4.427671933325879 7.1415082026722505 1.5816094621451275
Ge 3.595970927062429 4.672597187132214 2.0314041305250883
Ge 0.7880555867892652 5.202275549169226 1.3723367040858203
Ge 9.441021025682536 3.3884801027064255 2.6057827626729098
Ge 6.887786731900992 5.7151956991266895 3.534977126832701
Ge 1.9968482596724975 9.881098807900914 2.905744382155775
Ge 4.457015111352109 0.5042879284341216 2.5428728623286627
Ge 4.992103681177565 7.810909016578834 4.067757670523524
Ge 2.529735198314986 8.819859062802093 3.3110070066229236
Ge 6.2077594903640705 9.204363745686234 3.7160099703207545
Ge 1.6252881784743116 5.018706181325803 3.911673189341294
Ge 8.421227634089497 2.5363682561773264 3.233807275495095
Ge 0.17744088775785413 7.222237625520543 3.1335449416949674
Ge 2.765633556642289 2.2853246966226064 3.6591984240420308
Ge 3.9161255389010536 9.088522538949704 4.985576512056327
Ge 3.9259072203632814 5.766077001325807 5.3693769809899194
Ge 3.016968146763271 3.1165711435750736 6.179235633330583
Ge 9.336696728059453 4.918895678608085 4.1816950975102545
Ge 9.593794762775566 5.694407497256732 5.699297978094724
Ge 1.5954293818189762 0.6210323525347692 5.4507977879648
Ge 6.194872682643453 4.362607384725877 6.249250420804749
Ge 7.5371654448017775 8.262806214866204 4.3930940160082494
Ge 5.740371593916353 1.0545010767388485 5.187844397663252
Ge 0.17136072057498505 3.1383152694672973 5.114294535577482
Ge 5.470514598176975 3.267433121896034 3.4865813563610493
Ge 4.693358463906706 8.165064290027656 6.717547588031242
Ge 1.6724663237908168 7.384589588271573 5.3552323222291704
Ge 8.117451281957825 2.6420501265621246 6.001768699102129
Ge 3.8671564676550423 0.6888649228264767 6.993489148956639
Ge 8.85375633453034 5.174777635857255 7.160871156587509
Ge 0.8164977812945274 6.683900007521027 7.74760015555071
Ge 3.475452773118906 6.076348380184425 7.925104216483524
Ge 0.8358564589137446 4.018122911416319 7.53772285854815
Ge 6.964500772156617 6.89873933271505 6.506215324799611
Ge 7.398723201084557 3.330925940143319 8.574067412927375
Ge 6.533553497265079 5.813157461044245 8.897334178051882
Ge 4.72058933647035 3.7689631483742376 8.36470108716488
