44
Energy = -176.78890708 eV
Ge 10.394101881618216 4.15798065939771 4.362121760787974
Ge 0.5574367459003587 6.66132501628554 5.363231495503429
Ge 0.04346520893709698 1.8388726036656218 6.333724541398944
Ge 0.4023400689754539 1.5452703838507456 3.6109835366265775
Ge 1.750424223973308 6.4409980503080355 2.7544767677160618
Ge 10.180626312291801 4.560028435965755 7.0595403779195
Ge 1.601852858378661 3.8089718763360256 2.1854994504901644
Ge 4.240888837990948 6.23774733750948 1.1363347564862856
Ge 3.759946537099556 3.6870652289093546 0.4089970745465605
Ge 1.672166225337291 9.924258660141657 5.168725970758435
Ge 2.1887007912976792 0.5982630832570823 7.598643630760226
Ge 2.0826344351746258 6.382109042752819 7.454679543294497
Ge 2.567238482756018 2.2846704709505428 5.379294284472023
Ge 3.0579989693424268 8.294985514308255 4.911897933324169
Ge 5.512948657237861 1.72335300718143 1.0080635684492247
Ge 2.712045545550752 5.056012592597347 4.974367910305395
Ge 3.218895477583371 8.525667205191233 2.122554527520694
Ge 1.6656461957855588 3.197562568398775 8.255230381127838
Ge 2.893781919194102 0.5452698151102202 3.0187692110795337
Ge 4.056922644958817 2.8980398630229747 2.950117905136754
Ge 4.6382205011509985 6.493043921529693 3.6686154508105258
Ge 6.65592466182004 4.32623651144543 0.46097120664515956
Ge 3.829917235689452 4.429837638451886 7.495563346796279
Ge 4.265279396672312 10.392667915850527 5.500887634623129
Ge 6.019736325409167 0.9049023499277337 3.487969928160576
Ge 6.833213612749561 6.961223202882949 1.5648813789744591
Ge 5.61137400064166 3.4263014646685 5.053959122272109
Ge 7.064745849483963 4.541874421641787 3.092166757270168
Ge 4.612890516122667 7.506250634611854 7.258314845664086
Ge 4.723247693020614 1.9253235655445267 7.227695819759115
Ge 5.556514288041323 8.99100645992967 3.4834398813882683
Ge 6.553148864605906 6.11645651701678 5.836019332942164
Ge 9.268885638224175 4.976503456439093 1.208309465110364
Ge 8.24506510441563 2.424149487445823 1.680457322928656
Ge 6.057274866104848 5.45360195878617 8.50662315825658
Ge 4.887471376728602 9.924258660141655 5.980685742959282
Ge 7.610332493421696 3.9498740492507842 6.928303945530739
Ge 8.045368132011191 2.1995670005912706 4.680693852387359
Ge 9.315355049140676 5.7538335835483565 6.137924295959283
Ge 8.695292319685425 6.545490336230668 3.5437012562959844
Ge 6.384282149362012 9.395690298777787 8.040016697874306
Ge 9.731885998936173 4.045823001859146 3.6453500843945528
Ge 7.38600934577251 8.686747849520524 5.5963741629761765
Ge 8.057136741996214 7.286711121417761 7.913867164434591
