42
Energy = -169.69256342 eV
Ge 2.29921175172735 5.111318037544125 10.955242089184788
Ge 3.0099696088012786 2.4065018030364556 0.6932862320233522
Ge 2.3931410891087572 7.831422757580827 4.3966904524653905E-4
Ge 4.763638505526114 4.2073341287205315 10.99726995697112
Ge 0.344877559629566 3.8251399621027913 1.0787673446524098
Ge 7.959942327470015 5.836793570387109 2.2605801552692455
Ge 0.9947896034959334 1.2823009629879933 2.088689768058317
Ge 0.9671233430123883 6.482702938850194 1.9709952657088228
Ge 4.6471054214658585 6.798092901135926 0.8159333600005878
Ge 2.574782281776285 4.412397936414086 2.620634006994503
Ge 3.5749044542679984 0.7909544023580956 2.9627521595437503
Ge 8.863582930503439 3.3260153582146685 2.893445880249098
Ge 2.973467226254571 8.417432848370435 2.4316042437231853
Ge 5.36292149036743 2.768676822087874 2.0935067228760897
Ge 10.190411389850745 5.358679502442887 3.797557375904471
Ge 0.01588263712020383 3.320928008800645 3.695031290664078
Ge 8.25773856568776 7.237628168794654 4.549324942404465
Ge 5.540004992226881 8.527419904957426 2.5974323439823186
Ge 1.6433187904868987 1.4156438807920562 4.6961346539666815
Ge 5.416367078816564 5.212517796108753 2.8290412848326607
Ge 7.32521283557135 1.2597557420515217 2.7527081010815007
Ge 1.8987197876345063 6.958214952666802 4.421145758644377
Ge 4.080839502231969 2.7820658592801757 4.831571531997903
Ge 9.276838161910574 5.809899792566886 6.617945233003724
Ge 7.341587728307749 2.2226798732117414 5.187095237560258
Ge 6.093738236091763 8.595884711951543 5.118166591846737
Ge 7.325311371227855 4.790589778538059 4.89298530722733
Ge 9.732083999120494 3.3040346007171673 5.529490834913912
Ge 4.460488052383822 6.683202018208563 4.668921061354131
Ge 4.881039617446928 1.4009910301269448 6.822252928600333
Ge 2.360231129676896 2.2585405058128525 7.204875602070294
Ge 1.907593219394172 4.1761538510423915 5.31162167774596
Ge 4.661122862613497 5.672591126328538 7.0686803235534095
Ge 7.090939599493295 5.544332399391776 8.147715306640688
Ge 5.247119521783457 3.43714302424805 8.313473040901018
Ge 7.195069049724628 3.7199686242737617 10.077856069319157
Ge 5.610323540066928 7.656286417388973 8.7422397426872
Ge 2.9920292550419614 7.188035835736807 8.374484811418688
Ge 2.94152737947656 4.558337153626665 8.954283528347668
Ge 6.45578900012195 6.137403130498939 10.834984542795272
Ge 4.635650071467693 3.9555450910539802 10.955242089184788
Ge 3.871876132056349 6.496753890031997 10.798476570654234
