44
Energy = -176.88377041 eV
Ge 5.5385675158285546 5.260732550740228 10.27137423345881
Ge 2.996575946867623 4.690617031033593 9.725846217785596
Ge 7.089147696444864 4.731818428907014 1.5467695546482176
Ge 5.641813021508792 2.7179225115071266 0.24263779760785423
Ge 3.1056262992640766 6.442980672433956 0.5948370198963087
Ge 7.274515621112571 6.942177003865569 3.7748349237370786
Ge 5.498682072669234 6.926266282017484 1.586409701613094
Ge 9.094083025692449 6.822502223666767 6.117702513156371
Ge 7.696167440221682 4.206934506749026 4.651751087833626
Ge 8.651030247450413 5.206859826927325 8.307803871629458
Ge 7.077831110365079 2.2905975713735316 2.749410397849626
Ge 2.752364081526971 1.8937889298115835 10.469728835850377
Ge 4.1440837319384345 4.261686850152369 1.672508549641222
Ge 7.078281481743656 8.715863610273464 6.127052948689675
Ge 2.0255509525659647 6.991277139342392 2.9883235132457657
Ge 6.402092815972946 1.6685971898525995 5.365972801905593
Ge 8.211745788582773 7.8206343401042915 8.464647563839243
Ge 5.332561728611598 0.4406864229190515 1.9345618839546301
Ge 5.285285022043123 5.047191709460299 4.079218692675802
Ge 0.5769067893139881 3.4826575823703037 10.347600356342044
Ge 4.659920822002916 7.598875380866084 4.188824065543933
Ge 5.515102084872747 8.341822205757467 8.336639728635697
Ge 0.740089203718649 2.617829886663762 4.9495268410892015
Ge 0.16638267745014798 0.9098284779632354 3.0160982010670208
Ge 1.9906674425444766 2.0056997915565296 7.201377731906977
Ge 2.553687548459925 0.1784482718882682 5.197448191657633
Ge 9.99346271920836 2.8971436727841184 1.5599835092837342
Ge 2.5211021115922656 4.724215030803141 7.564542608590149
Ge 10.483208123670336 4.848256895676325 4.948772544157535
Ge 4.907330793783551 4.513364687290666 8.449388078447
Ge 4.200840021264104 3.06953466394316 6.083109188728088
Ge 6.057728222231337 2.192000056946145 7.90829323948834
Ge 4.053638423102922 1.8178346692220642 3.6965649335926196
Ge 2.435191354344742 0.14148874908727568 1.5637567579685774
Ge 1.7200842366671971 2.7871443181255913 1.877158460997343
Ge 4.004106067960511 6.871696614614302 6.6426581658270525
Ge 0.03112953329246328 5.292677115278696 2.4814623617479783
Ge 4.117488032624762 0.4686897801718197 7.429549830543461
Ge 6.525193171291087 6.175607888307925 9.725846217785596
Ge 5.070605448969488 10.506084334570225 4.788728081436312
Ge 2.1679639036840648 4.652535879170674 4.187852229822716
Ge 0.2648334341142338 0.9644030024097394 0.09323246764313717
Ge 1.361187023368113 6.476502027904559 5.895686058243172
Ge 6.618228721263417 6.030545253469154 6.802716498103279
