43
Energy = -173.3606676 eV
Ge 1.550188119289967 5.569662927066351 10.338475736181888
Ge 0.7479354820658961 1.5977976912633063 1.3461017278644754
Ge 2.576634028997392 3.3721825555359715 0.8234941975522252
Ge 4.079216359605029 6.485807463609234 0.19974871310827072
Ge 5.6457859041095135 1.8157080061497883 0.9031615020631025
Ge 4.1082266827132505 10.277246074026168 0.7706780704850386
Ge 0.3931206018425953 7.033209665585852 1.7736721077049638
Ge 6.635939774582634 10.070905787266113 1.9911541897291882
Ge 10.055143912695655 4.022456435482983 0.9008406795643531
Ge 5.6143169624856215 4.251182482129848 10.422015646246635
Ge 4.765705647743518 5.136700812658508 2.485107386823593
Ge 2.594844729971865 0.4698290252679306 2.9521843456105348
Ge 7.26407220638676 5.389425162409605 1.5542395710626082
Ge 0.26553855044004177 3.02430515725885 3.459704858086934
Ge 6.395347116529609 7.722897528008113 0.8668088556189046
Ge 3.0272623004882675 7.420798850945064 2.369720447389957
Ge 4.041871410824573 2.668924293198491 3.282495154670178
Ge 1.781590265831562 5.0515624758221875 2.761804384959615
Ge 8.376482293106923 3.96365087101352 3.555123429031382
Ge 4.390450180138698 8.83328103842981 2.9043995462204
Ge 9.566399756809789 5.368278734509818 3.3731770686725913
Ge 5.993721704873797 4.096359895688412 5.563660065267657
Ge 4.050847543102467 8.833281038429808 4.337684791494531
Ge 5.993700771433214 7.354801046693515 3.375455335611347
Ge 2.818427387184135 5.771940215954961 5.298638098122259
Ge 6.525971031454914 10.3440714858708 6.775985125559569
Ge 3.0318357355589787 2.6408874100975734 5.703607927760658
Ge 6.81959898226962 6.144880069273418 7.382317404737845
Ge 7.640954866179213 6.073701914516259 4.9366605374271115
Ge 1.7197120636997794 8.303325910629983 5.745236898838398
Ge 0.23476355788295708 6.1157787810629705 5.882438356054381
Ge 5.232764218747721 0.12903347065308707 4.59286852381498
Ge 1.9458325946732642 0.08344006837274814 5.407834902672076
Ge 6.546869664766828 2.0010911063067525 3.3317643310850564
Ge 8.007913426893644 1.8565621300163857 5.737002275121937
Ge 2.1159013359765293 6.831977156771298 7.965253130918751
Ge 0.35877489329059875 2.10980721395513 5.836355285667178
Ge 6.025182872618376 2.340603106554556 7.711197481471435
Ge 4.291578236585215 7.603174234481377 6.6913005030083905
Ge 4.143740518817735 4.966332214694293 7.596814853726098
Ge 3.9624133989943626 0.6807002036291013 7.173763339131886
Ge 8.067150595996704 3.8874119680838497 7.448335642283026
Ge 1.43862316564845 4.080798206020323 7.314068424887033
