46
Energy = -185.81869136 eV
Ge 0.6107956871926912 4.614225151154015 1.626394894514132
Ge 4.177872799061526 3.087270817164758 9.36042984173075
Ge 4.303704402417304 0.9920677132075644 0.8464449480916136
Ge 2.0468979949073427 2.631102366391096 0.4994399542120953
Ge 10.190239334545907 3.180533059077318 5.457223482606143
Ge 0.43183456707256845 2.2983577028678037 2.9650972546078145
Ge 0.648173733516095 5.801546787359679 5.708691607707667
Ge 2.983857046498121 5.232726003730024 0.030784888321076415
Ge 2.5822408215077495 6.232951949606181 2.6635658726390874
Ge 3.0562881057112574 1.6699169634872502 3.1424861973793177
Ge 6.491678577537647 2.50031235865745 0.6920319674882435
Ge 5.8611022201256135 5.063847669763861 0.03242367518305926
Ge 2.0517435563244693 4.109014516126868 4.09668793350453
Ge 6.100039979202305 1.2667967505406048 3.500128660730681
Ge 4.600562289082955 8.71764352375913 3.2595869801036734
Ge 4.379532138523775 3.7561644792874556 1.9182460878347551
Ge 0.6871569814302687 2.3812709003693993 8.058364021034516
Ge 1.0226373289545303 5.16635126013956 8.24758031405127
Ge 0.995253681154645 0.6439039558147729 5.937685570429175
Ge 2.6749568879039693 7.725855868562454 5.043299337901537
Ge 4.938165908396384 6.161983359744571 4.271294686968831
Ge 6.293454077257607 6.778473714217845 2.1388162680771647
Ge 6.243146547809943 9.64821102970967 5.112198243888514
Ge 3.56677438780128 0.21469742693219862 5.491264214019579
Ge 2.8084616851632536 2.669396175871671 6.200042602770263
Ge 3.1803707114423063 8.398728648819384 7.50757344288479
Ge 7.373199062637846 9.15883297554618 2.714581376458144
Ge 8.46858345206762 2.394173191442714 2.6066743747504977
Ge 3.2560632341383418 5.694484813960597 6.8070034399368256
Ge 5.666009938157753 3.556733373446125 4.997907207246003
Ge 6.359331243733634 7.168212372512875 6.195090933188253
Ge 2.6501612281390576 0.5143389343416516 8.220629537241635
Ge 2.8558503531500707 6.733248944010613 9.36042984173075
Ge 9.058661662613757 7.112958792463741 2.764972556688736
Ge 7.811324537769116 4.781852158476639 3.481382461391682
Ge 5.5286570678504505 9.425135165932845 7.677029434419722
Ge 3.236765433275153 3.150713430520282 8.792552477330876
Ge 8.656023342875123 8.446026320744418 5.129197721727733
Ge 5.097548133265866 1.6459673287587326 7.171229072301925
Ge 5.495191456045624 4.524542279811865 7.705746272438204
Ge 8.019409012796311 1.7086482124938955 5.288981551598087
Ge 5.537921084536975 7.059965850096787 8.756267743938812
Ge 9.956524052232204 5.854719714719859 4.95072449248069
Ge 10.0872511761694 3.2038033694398056 4.440430261084684
Ge 8.68811751805745 6.55074931066031 7.234182123104202
Ge 7.998680843024677 4.261504863568069 6.144007212353984
