44
Energy = -176.80445345 eV
Ge 8.508906259140215 3.520442989547113 4.034634119858523
Ge 7.050240677455332 8.331944059961627 3.5431562892891764
Ge 3.158760458975804 6.8608192829372125 5.743497148445299
Ge 7.739102935102414 11.100854944908106 6.384621648410298
Ge 8.285181008472334 6.74566606477455 10.272746557340186
Ge 3.22799039541732 2.876034418523893 4.887680423469316
Ge 1.687190880922922 4.453951326495805 6.173430983645015
Ge 3.89891098930163 10.926444644956835 6.089042604392768
Ge 6.290475600854123 2.2449045356371005 2.9848941376782614
Ge 5.995484528857109 10.628633286860808 4.447712132651554
Ge 3.4342219392021085 9.470866320410957 8.589388836311564
Ge 8.200323947813875 3.288329814944353 1.3695662618316684
Ge 6.873783202538934 4.7501217947587016 11.148000873798019
Ge 5.556325936729856 8.405231872374339 5.985272128796457
Ge 4.0327677607826855 3.1460115603900425 7.500303809137398
Ge 4.789001328558534 6.5676188814610175 3.00770337057137
Ge 1.8100931180150373 9.164441679062266 6.40944126425253
Ge 6.516934313405737 8.721419199974832 10.076910696425067
Ge 10.133984439926353 5.1149003795624735 6.289270048106785
Ge 9.259423710516488 9.225497736781945 4.5674676468934186
Ge 10.899345913666053 7.493584378218311 7.532498957239014
Ge 7.224983057768039 5.18813393459655 8.391041085557974
Ge 4.57790418183743 5.724117086507461 7.695165940715092
Ge 8.219886092917195 6.9665391375838475 5.845471452984001
Ge 5.908438843741851 10.270592525674191 7.982847546965606
Ge 6.130092561187059 3.0671464722877824 5.560300590419089
Ge 3.518764143276165 9.007271295040693 4.2357333253462786
Ge 2.017067174494436 7.055657207044283 8.282901266731157
Ge 8.62869093623567 3.1529345297567093 9.795150775143764
Ge 8.204807114836818 8.549107048478334 7.85330350161748
Ge 6.496304134809202 5.455248569912216 4.589536038598019
Ge 8.319445640877964 3.1263992407154566 7.1383892056028335
Ge 10.100864541980698 10.165424934267588 6.858820059430448
Ge 6.175722504073194 4.815218321611412 1.5837774710220844
Ge 8.451697567213975 5.889882952849886 2.576994136194963
Ge 4.394148850100529 7.177722590950063 9.817207699349106
Ge 3.97140295992076 3.537022521888656 2.509261956127912
Ge 2.3893832556127514 5.338766005251664 3.6747955371422245
Ge 10.700807861149944 4.874102227325257 3.6225815800017207
Ge 10.943057779567273 7.260129791071552 4.856311365562495
Ge 5.974052351642171 2.839608762139651 9.379039705292783
Ge 10.094538687517659 5.36763869987911 9.037643015122997
Ge 2.26981241326768 4.406239836927523 8.8857281560574
Ge 4.281223066417912 4.616634405967451 10.668858347634124
