49
Energy = -198.04484599 eV
Ge 3.9353553064338134 4.005317381695805 10.137683702841576
Ge 1.6763587425004671 3.0324638497597225 1.5417716690693184
Ge 5.688870979089918 6.003993763101841 10.421955079290235
Ge 4.745066739127059 7.923837214793901 1.8138169804266004
Ge 3.0488133145589185 5.893881610204647 1.0914272614751512
Ge 6.391620316290411 3.1104220384311874 10.346869909835702
Ge 7.819009719093541 4.972299050110124 0.7419458084966952
Ge 0.7350868234134322 5.547285615095501 2.57658239975742
Ge 3.5181535628539553 1.3025666403526461 2.245917117144895
Ge 9.102978314111137 6.657750600274935 2.3072322542392896
Ge 6.569633984721829 9.103443524446533 5.05761826470526
Ge 3.205700496592979 7.047652579281809 3.6709271634528426
Ge 0.662288214658762 0.9147870357930665 2.7810483632877117
Ge 10.582330020610618 3.2612433028070753 3.801588317632346
Ge 5.18399209341383 4.25261337659347 1.9352240493506938
Ge 7.733729682770845 2.7655318126916986 4.0938533088758025
Ge 2.5800668274429213 2.9088848312610276 4.108849743385435
Ge 0.6998010781471595 7.734520685372815 3.9453312629112767
Ge 6.581181517790717 6.353121062371202 2.877974320110662
Ge 6.240764847969107 1.8529265335808345 2.0068114246338635
Ge 9.726448875007 6.162616688076422 6.539807154150776
Ge 10.475234347592398 5.6065068715219395 5.43573181336404
Ge 2.6623238712145083 10.64506848878139 4.366589070292537
Ge 9.138895565185917 8.305144253447782 4.825437646812945
Ge 9.084843699206832 4.995157154011244 4.245675719038589
Ge 0.9545555269167237 1.6025191588265186 5.867636490827109
Ge 3.829765622912413 5.202039340494486 5.256700450193776
Ge 3.1541578424622227 0.23929038892454788 7.023233696736188
Ge 4.496932861164682 2.688386561924525 6.889122744315966
Ge 7.214166202466058 6.83887976171306 6.089292021379327
Ge 8.706966395106518 2.5457018457716662 6.717101018697244
Ge 5.160428025940476 0.9846934811193568 5.1809117532881865
Ge 1.8355638178976612 4.6784737441344335 6.744432108134316
Ge 8.409262108827773 10.292529653922955 6.552302837741983
Ge 7.700429343867129 0.4220286117850928 5.54697108422038
Ge 10.475234347592398 8.661273038197944 7.153333103827874
Ge 0.1745952882371914 8.22451196186369 6.4832209821177935
Ge 6.340102210426353 8.770545781332034 7.784090821413061
Ge 2.7362395538609 8.39995171532419 6.041099841127319
Ge 6.311147139594774 4.694723288030865 5.062909064809079
Ge 1.6657684231952243 6.934259770859482 8.208793872022234
Ge 8.101019921197302 6.675464702937791 8.60111633434731
Ge 2.309799039414982 2.56110686488436 8.217840234240148
Ge 6.476566088770619 0.9109042221545894 7.825638752955402
Ge 8.64578081905234 9.163849057154943 9.033068297558826
Ge 6.660731594404564 3.6197608578236706 7.764181826666001
Ge 4.315120964465729 6.68346824016252 7.420082620081786
Ge 3.0463486922765166 5.080040936885874 9.318590573625858
Ge 5.82795540470247 5.420603537146194 9.320989526960494
