45
Energy = -180.90235198 eV
Ge 2.416952312787297 4.695739252101375 9.759635789827344
Ge 4.656615130640586 5.2050970505173675 0.31009124011334477
Ge 3.5173880073712405 2.5396534131014517 10.78979405241266
Ge 2.6195413252001116 7.171390514555801 0.10984709407210182
Ge 6.162507912553187 2.688813716422225 0.5529238354073003
Ge 0.37659246075744396 3.3467818761531256 0.6239406011667696
Ge 0.2924053951216871 6.007487623768198 0.6356312983133167
Ge 7.239795252717213 6.9122046598553455 2.6799759567620223
Ge 2.422608513910172 4.618514337251297 1.7469122953918945
Ge 5.92302140925924 0.3565220819333461 1.7231505125534927
Ge 0.39227898111258275 1.0696547909031562 3.963979649082939
Ge 2.0301546473303778 1.3760548228539593 1.8051380034343272
Ge 4.7681169704728115 7.470734903390904 1.948927268882871
Ge 10.183167166095629 4.077671114252397 3.0485623847947942
Ge 7.652906090157013 3.2904558793137455 2.8397440333654673
Ge 2.708608568800693 8.94834474661502 2.437692166619126
Ge 4.361901505596823 2.5102404149829707 2.601382326314059
Ge 0.38807461389006387 6.548147193787543 3.2978528537030694
Ge 1.5280243893229875 3.490785848900798 4.341174457288257
Ge 6.27973671918952 7.716998272716165 4.869775729643327
Ge 8.415809709042591 0.6959331218053542 2.9227494504491927
Ge 3.76358337513625 10.541680007997103 2.8850900761870437
Ge 3.9647604475078295 9.044169511773157 4.855623898769628
Ge 6.442466130684456 1.8915712904260555 4.849772914295209
Ge 1.2484883520634058 8.647660417869329 4.711026312992792
Ge 8.627541727424768 0.16889244295356018 5.6204881440469725
Ge 5.563922593544342 5.139951328171684 3.6077736960898426
Ge 2.338042159420591 0.6106214871261 5.5910992855933985
Ge 6.274258773024622 10.21765355550904 4.261523604744444
Ge 9.175475741115743 4.98511591955353 4.094695795720453
Ge 9.585510034725164 5.156581896754722 5.271044378697455
Ge 0.4312221229834151 6.598963968499679 6.666078278524703
Ge 3.9498485262700216 2.700583670171697 5.771125199766438
Ge 9.585510034725164 2.480449460206277 4.7868773941121665
Ge 4.697179262591907 0.006526715754711665 6.415581955433783
Ge 10.314497687512892 2.6940700803276285 5.845795559391941
Ge 5.547702013238198 5.631219110902421 6.205403170019297
Ge 3.0424119631656397 6.449202024065593 3.849921936900883
Ge 2.9922753962722504 7.159301344204306 6.38147654587062
Ge 7.682124686084988 2.016837829661947 7.302306562105551
Ge 7.6781380579808305 4.197165860657047 6.00928115997558
Ge 3.9761298645289798 4.2540682073949325 7.908542056668931
Ge 2.372112674115033 1.7629394409385477 7.92159046001435
Ge 5.058839663366299 1.8243986832097998 8.278920503418533
Ge 1.3118368513103573 4.144937076978804 6.961867077352703
