46
Energy = -185.63299082 eV
Ge 6.835603294198253 4.559551997472829 3.3771501941486526
Ge 4.744739547557382 4.768738924170434 1.0588778385172943
Ge 1.7943960541416866 0.3731525473693329 3.193492428494762
Ge 8.540620329742252 5.382384730047064 5.445368941975649
Ge 6.0042231561724915 0.9516189893079281 2.720419657167297
Ge 5.578258746879229 0.31740143206827465 9.94062984320636
Ge 2.543122832551379 2.4979126843426274 7.962130561711971
Ge 4.460406455327125 6.384334629358288 5.065926075538628
Ge 1.6870285625656327 4.320815805632266 6.25145785472275
Ge 7.318285139499932 4.336303709829803 7.5983057459189
Ge 4.411317591921433 9.380835355998268 4.558853546549546
Ge 2.116746240422729 0.48077402116059736 6.253278133850109
Ge 8.779615951403263 5.490542345062629 3.621858202438053
Ge 9.409717124144535 5.641209200450423 1.015484326259581
Ge 0.8857679429252029 7.014757087669228 2.953644394673384
Ge 3.8304285943312943 1.968132917046908 3.7763619610791572
Ge 4.638636610831125 4.742153692854404 7.4944162805926045
Ge 3.8981485128089246 4.957559887861547 8.60695708078466
Ge 4.654359174348276 1.3582498634194302 6.4939536147214
Ge 7.6464155039117365 2.779672740114743 5.434344092208761
Ge 6.570709758717581 2.837337676700244 0.5377208533304586
Ge 5.47728914803358 8.520498484635763 2.009418005377823
Ge 0.12124249781061 0.8458020503438449 1.1402013143060519
Ge 1.1564811016363645 4.441199985574746 8.200985089694276
Ge 6.611346220023247 6.74133064748441 6.795360524722097
Ge 5.048020831272472 2.3975085732997026 8.381059278912428
Ge 3.7728594018286716 2.288026436011144 0.9419713685259402
Ge 8.858684693562193 4.384037224480512 6.079626684419768
Ge 2.4439713033339996 2.205636884323847 8.519738673364218
Ge 1.1249327575197905 9.95588989385322 8.888702036287754
Ge 3.0772662553268275 9.708877713759897 0.6956631218183355
Ge 2.9477225724267155 8.05550817866075 2.7040404481176026
Ge 2.8496207314726205 6.714124704083034 6.99130885963508
Ge 1.9223310308883887 3.7799207630642107 3.793698746995758
Ge 8.169771666260361 2.397302665076394 2.715048794311545
Ge 9.621501367103283 2.328759595771647 8.840755466672015
Ge 1.1636399243106421 3.483469681502183 0.8894200574544097
Ge 3.1811704570283394 5.736531171278356 2.9128682698059802
Ge 5.215224099734845 3.6379703690186282 5.206170352268623
Ge 9.798304951335977 0.4766870882074008 4.9545319998543995
Ge 2.0401607118740106 5.9966914484952785 0.2733160237205491
Ge 0.08159068728415075 2.132464017486096 7.026292342243883
Ge 0.32728996476730815 6.587531875949419 5.668721588222834
Ge 8.540620329742252 2.994896807142007 1.324987806104684
Ge 9.55583457297074 2.8619862180482927 3.833011670491126
Ge 6.865027249497618 7.086527722767321 4.172921500230457
