48
Energy = -192.69757187 eV
Ge 0.9380718179913772 6.557806332427891 1.4194233006630346
Ge 4.519739522310476 6.483449300379473 0.6937150977545745
Ge 10.029130118438887 4.05174964085869 0.6623787280537045
Ge 2.401152381190115 4.664926126001518 0.014907801300884304
Ge 7.056915788902834 6.986621254908216 1.4654494987622395
Ge 5.812514003751985 4.5324286335676405 2.1340628143260507
Ge 8.490402249657993 4.780914757497192 1.7393630535513749
Ge 7.2111570071496836 3.135896354742924 0.19209748113803413
Ge 4.502932280318392 2.893327577268443 0.6025177527562425
Ge 1.5954462989501015 2.08129028393792 1.1425707047903833
Ge 9.415650487656674 5.308532779138874 3.128387709054666
Ge 6.8510983171194715 1.2120250998360436 1.9981769684715673
Ge 3.3438706310862627 7.742463953351209 2.7260761586863436
Ge 5.774452266598292 9.085694170718245 2.726779693446375
Ge 5.25570693093319 6.462430565031763 3.875327878682571
Ge 7.641926295912744 7.469562318422882 4.091960349480127
Ge 3.920831066110379 0.902117792059616 2.2816612116079877
Ge 2.051970532853095 4.417875322992597 2.773278325294476
Ge 9.647658745686668 2.541934814488569 2.872342760395847
Ge 8.93382422660765 4.457438068026573 4.3786043520827675
Ge 6.886436817070617 2.804218581538651 4.042786475639665
Ge 4.488357261581107 1.7612730965826593 4.877628344507524
Ge 9.26193005716006 2.103695120093129 2.670877262091609
Ge 8.389298391834808 10.004925662252145 3.8561641923764007
Ge 6.25063036183919 9.364736911931402 5.400063163582391
Ge 2.8553969630034888 5.55752282337435 5.912652624532362
Ge 9.159849640946796 1.944763497129639 5.5679534792802095
Ge 5.617468194615326 9.605853886861969 3.879471693291421
Ge 1.834502795235252 1.9565532856198282 3.9777750321173624
Ge 0.40557953848437095 3.9308568024265824 5.194378275581113
Ge 7.288854022340894 5.220645872490047 6.470373850980279
Ge 5.058742448354958 4.021242614585063 6.453411509813108
Ge 1.1732133636121667 6.784350665385529 4.295270525776139
Ge 4.580576739862777 9.902709646810797 6.472404890308224
Ge 3.61784942777873 9.373933159388834 4.82714613750759
Ge 7.022783167636187 0.5805683225581901 6.075704034695295
Ge 7.383636751388801 2.854557868312713 7.934325128477883
Ge 2.5954502077872217 3.279666586696098 7.5578467022511715
Ge 4.596187337978387 7.469751593495724 6.41831545318908
Ge 2.1152322820974763 8.203497145389344 7.069907572577009
Ge 6.727102098528396 7.59472498753109 7.837907429336654
Ge 1.3833074286426563 5.696971186514001 8.196371473051434
Ge 4.9251997867039154 1.8493059360388537 7.9975614868574505
Ge 6.459710576856976 5.031179239500523 9.215029818615147
Ge 4.200940882586698 9.084826811877466 8.526514180749277
Ge 3.8826150444922995 5.072644239601646 9.069949587156865
Ge 2.572345270146876 7.372251826370704 9.852805070537634
Ge 5.256451527887634 7.188386839667895 10.214786431101208
