44
Energy = -177.21508029 eV
Ge 4.837251259858154 4.837130849625351 9.467590419011456
Ge 7.016807678171564 4.1410455710603395 0.5046611684429162
Ge 8.3284916096564 5.874292566960542 2.677521769940027
Ge 5.224264436813375 9.187800869106088 4.821963921347382
Ge 2.8374245532649107 3.646920995159097 0.5461400765952196
Ge 2.7785129446609846 6.155882495651117 0.9336380045956786
Ge 7.460606415334065 3.893123476435783 4.281606398880136
Ge 8.677633136610604 7.861407723920579 4.434562521816505
Ge 6.467785551326988 7.895513970387904 2.5906627720460826
Ge 9.870424215057124 5.285041413351653 4.877739592127765
Ge 5.002476619723062 2.349046757834635 0.29242066564867575
Ge 5.2119987949801185 5.763950567828239 1.6669663902936267
Ge 2.7167697855098787 8.218742748828262 4.393009940509854
Ge 7.3924763111012854 9.100966431420794 6.555789287632745
Ge 7.510026642859835 2.231434426171996 2.344254583534884
Ge 6.279496377382371 6.324559261114128 4.701763317693989
Ge 1.569237808214733 4.992113096142041 2.995416900633919
Ge 2.771006741959314 5.721683222190895 5.167775077366488
Ge 5.075655981855085 7.850066859412962 7.181724930061926
Ge 0.9287205522064129 1.9670584913077953 0.9901135410956611
Ge 4.546929108835303 10.162193744210635 0.6697699281620172
Ge 8.192035192783248 6.341288268801508 6.6464104985769055
Ge 3.0778941165632467 9.587929593759242 6.703142607874023
Ge 2.482348378264138 0.23532852138380292 2.1693870625580085
Ge 7.181816000428364 7.470999298451004 8.774466958752752
Ge 4.738292897667829 3.0531652360911323 5.50984595215659
Ge 5.474310772024219 0.6763698107169026 2.8196554155740676
Ge 8.388418058498303 3.515006473255361 6.658113293516061
Ge 0.6160851801598616 4.56875982844395 6.227059622538399
Ge 1.2399636617107181 7.576059926237505 6.539235562603994
Ge 4.879133244934933 5.29364403223085 6.902761684551733
Ge 4.899951892564548 3.4353366623019137 2.8658689855009865
Ge 6.2565383926843605 1.451265692329035 6.858407905708514
Ge 6.819257109957809 4.751044750239578 8.591952324590002
Ge 2.230811815993398 2.493392213817517 3.3781066030157696
Ge 9.986798894336928 3.2614277285530884 2.831824302673213
Ge 2.904114343576416 7.929644158285176 8.739277017398495
Ge 4.214537944295129 2.173320853268093 8.209275900832433
Ge 4.613382383530789 0.32439341885627765 5.1790082747166695
Ge 0.11878634098127382 1.979840445633835 5.1253336226616995
Ge 2.316657056427127 5.380329347218799 8.035882078900089
Ge 1.9590434326204544 10.300045295782366 4.838095901016535
Ge 4.21365051935976 4.409419673069237 9.467590419011456
Ge 2.4709325076388975 2.2879472437789015 6.294704637386159
