43
Energy = -173.14202591 eV
Ge 5.878422898467897 1.2201123219352243 1.3917807402027462
Ge 5.20279486355048 10.371965858669515 3.3527551295600575
Ge 7.841540308564946 2.938728259825855 1.9179825815724696
Ge 3.8529257741926886 1.9649222165827744 2.9870604398534137
Ge 2.4881830029787544 10.315241438397711 3.7826527423074054
Ge 7.050547844731599 1.466417868995621 4.001850483551046
Ge 1.2210876514322124 1.8140291037225857 3.23229061851098
Ge 4.002310028577652 0.21796952132145322 5.807573674473765
Ge 8.44531282888312 3.5505135948165174 5.972110225068928
Ge 10.07667408946734 5.259814497855791 4.361795052165598
Ge 5.1087148542711045 3.6158004634917926 0.3963575346431912
Ge 6.19012498354494 2.8583717533815602 7.765378591578018
Ge 2.596609718224632 4.558029739236579 0.8009219531068854
Ge 0.40802817008895703 3.998937853180694 2.113323929922877
Ge 5.0952151299283335 2.7622136040149896 5.149813292260492
Ge 4.476819945567254 5.286383401750147 2.4293202749079756
Ge 1.3599746426872066 1.2494515330777007 5.7862055113264645
Ge 9.701189307929551 5.730809876273319 7.128211971906081
Ge 7.540803060122937 4.807250556891065 3.7357852878359705
Ge 8.48290719130666 4.065180193199702 8.772029275639154
Ge 6.75938668983704 5.682396628984484 1.2073644923454814
Ge 3.5420711092815624 2.295683401646509 7.272055980025929
Ge 6.848005530345452 5.566845912514014 6.7324666844158925
Ge 1.9474733204482673 4.0373750072315095 4.614766790633987
Ge 10.141993940985683 7.758014779228253 5.500732908011725
Ge 5.147847988675596 7.791153463874161 1.8235829016876828
Ge 8.266906053763593 7.2929799230266115 3.6044781273442297
Ge 1.2389975257784382 3.9331346207875666 7.2000310029083385
Ge 5.746636477295672 5.128825535914686 9.068257690361381
Ge 2.6225073565988026 7.019028063255347 1.4860242091512132
Ge 0.5592767987837777 6.3969000511856935 3.3157668482499716
Ge 7.8746776430147944 6.615157660328745 9.251549534121473
Ge 4.451261598264577 5.287603773029941 4.968287797883769
Ge 8.010162297971831 8.079564563413289 6.999169415157053
Ge 5.744480079115814 7.573192134563712 4.42537600839064
Ge 2.6289139179226915 7.278116761571963 4.604371167562551
Ge 3.0052710043934265 5.897703424187261 7.110652207138845
Ge 0.43483835644657376 6.173213989234249 6.008770720809401
Ge 3.997152688355401 7.625021482807392 8.721897714647941
Ge 5.434393154824769 8.588248163778202 6.77698059703616
Ge 3.6771082618175344 9.629002767710114 4.934907174795894
Ge 1.919764651576211 8.449254506714063 7.015043394753572
Ge 3.723881665645758 10.315241438397711 7.502479327743824
