42
Energy = -168.84544518 eV
Ge 5.821096874123704 3.6434259976135723 9.448478391885498
Ge 7.799144842325348 5.035159578491104 0.5435297887948579
Ge 8.4597504250117 2.4400484309184183 1.1172074144539201
Ge 2.9991552227011398 7.070528319006162 0.6506052374450649
Ge 3.365526732478729 4.580413005792442 9.978620637901361
Ge 0.8438340270818866 7.701533035187612 1.8684977018924716
Ge 1.8462084067537594 2.8381414103112332 1.19106958013665
Ge 5.611463342333652 1.836943966761338 1.1389678194209691
Ge 5.051827807101425 4.415794864045798 1.8402352436537366
Ge 9.415098307505582 1.5984934646532238 3.524108302074696
Ge 1.396421539546164 7.984974914461927 4.360647844599866
Ge 7.384321382512796 0.19724140819590286 2.3039742596313815
Ge 3.3886658511448844 0.6760964493467927 1.8325270296193887
Ge 6.702405154061085 6.381010964608931 2.437640349039493
Ge 4.7769697975529795 8.077460700179499 2.175627778141636
Ge 0.8468110413910418 5.183442712010396 2.2843596023800536
Ge 0.6367491584518247 1.904311250757457 3.3934701985334077
Ge 3.046560118002418 6.175101558798841 3.2033146338870435
Ge 4.04538953826391 8.141752632863394 4.739192811730918
Ge 6.793138416048201 2.8550722672383944 3.6234014433498096
Ge 3.4108484537812824 2.8446817118774157 3.4756857540562316
Ge 4.0114769532259436 0.4578950569599456 4.406228613909546
Ge 1.7655290007313413 0.9966030481839523 5.625005177009615
Ge 9.249707371748228 3.306202518124927 5.746090199270377
Ge 1.7804498816359149 3.9098888143878483 5.417532321495232
Ge 8.993294071088986 4.257098313446036 3.0784069282124107
Ge 9.415098307505582 2.4921918622588546 5.584122100699878
Ge 2.114786006417159 7.7021717065979685 7.463218497676748
Ge 4.959455076387487 3.914722953047804 5.80401361346667
Ge 9.660857119501495 5.038394484010998 4.6169203799334255
Ge 6.702900067297221 0.5320282005120675 4.834533300636935
Ge 4.556232991891527 1.5797627087223771 7.010256350803162
Ge 4.0824823356224815 6.175501957270444 6.698704599179027
Ge 9.964810324809145 7.140557618954056 6.294576697621858
Ge 6.75691238429768 7.333380841201494 4.746992247118816
Ge 1.553355722650164 2.5760249863577864 7.7930199855091455
Ge 7.315467831642615 5.063916258063292 5.858299886458178
Ge 9.742452803620475 4.466287926894358 7.344249445606227
Ge 1.991601392767712 5.309782666851205 8.343662265205095
Ge 4.138136884883 3.6829055109757394 8.596358418394864
Ge 7.144627459436202 2.158115275811373 6.811027204375331
Ge 6.031751116278372 5.409071202421992 8.124071992681769
