41
Energy = -165.43084013 eV
Ge 4.693353220520513 10.308721010544824 5.692696388219678
Ge 2.7032111310811726 8.769925088861282 4.990184359678704
Ge 5.373357038362892 8.41201896146834 7.291552471270668
Ge 3.1461595309428874 7.003960401988032 6.764454267886024
Ge 5.8228071611708785 4.828189747546408 8.032883771266333
Ge 2.3929379856640063 8.100199446136743 2.540195092472167
Ge 0.4325637567307963 5.2355530330311915 4.911221849730178
Ge 2.7120256279160317 4.906647649045155 2.6178247274713775
Ge 2.6814116657723663 4.262649920958673 5.965264548519388
Ge 6.409886266484646 8.811105189584016 4.593685832133958
Ge 3.2296530582099763 5.03298929016823 8.444633356745218
Ge 0.4075237233691936 2.823587783800845 5.787358876952747
Ge 7.295823030488798 6.948001270536858 8.509678989470169
Ge 0.8628149566891574 6.432447468202622 1.3025708470078345
Ge 4.037211803699721 6.422222745566592 4.221466301330059
Ge 8.355593367304703 8.293688263495177 6.304920973193721
Ge 6.173639076281379 6.231580426340019 5.814131265447166
Ge 0.23102755622422708 4.221331798449359 2.50626609631807
Ge 1.6910868716864533 2.754721501543631 8.052696859275887
Ge 4.13052928948208 8.752796685531045 0.7964037995855492
Ge 1.7963834323881636 1.2976144419672695 4.123620420468269
Ge 3.217819560052019 6.388505866303598 0.2863695755852316
Ge 6.2120937401029535 3.848630737979798 3.7375198617935292
Ge 5.660945477074886 7.504639948735879 2.48396289494832
Ge 2.8669966672576015 0.8147895703613512 6.741356823895695
Ge 9.13397912546363 5.884674956923892 6.680896336309197
Ge 8.213087306523276 6.225445733034385 4.122898378066429
Ge 4.118859788328743 2.392497531291625 4.967856229883105
Ge 6.741059907981665 3.2068040495819816 6.348322775384638
Ge 5.503770635124559 0.9807187951068616 6.827167447381458
Ge 4.249829482727443 4.054552336762084 0.5464049904272956
Ge 2.0508728527508677 2.431175924322664 1.6517097674777992
Ge 6.402024453560204 5.215960489057581 1.5630104851903868
Ge 4.608711296527596 1.5756189436764187 2.4915996672360623
Ge 2.28162559946109 10.674935078936468 5.010840486581319
Ge 8.61506965139953 3.8061864575515427 2.4690545620208404
Ge 7.2042011169321025 1.5538595466038632 2.309528547622146
Ge 4.837055312654211 10.308721010544824 5.750914845452588
Ge 8.979784228305638 3.7103199175950023 5.138574827947236
Ge 4.237404672218908 10.827597492777155 3.15528856602544
Ge 6.263253951905796 0.2681329907943714 4.387761635424625
