47
Energy = -189.78770421 eV
Ge 3.5671968899901016 9.282495509038258 5.976128881459693
Ge 5.864270647020868 2.876017526408251 4.1896365732190874
Ge 4.762296842566193 5.171711910601462 9.199018729415068
Ge 3.4541867574883804 7.518484348447394 0.23668910432634793
Ge 3.2592818145278546 2.8296110588392946 1.134844613616415
Ge 5.839413947575121 9.231060422349197 7.5479894108148695
Ge 7.709491410730722 3.234025629082829 0.8565883688028065
Ge 8.624975478274376 4.407121323250631 6.817481069872525
Ge 4.075975734198452 8.058207238741725 3.617988391017789
Ge 8.05786358869122 0.10609656589790635 3.9196370470421806
Ge 5.967320111293697 5.053413045970646 6.811463740886659
Ge 3.29757725464916 5.815047900661261 4.653108553650205
Ge 0.5016401417418382 1.973981518370861 6.074905341700741
Ge 3.0425467232830146 5.116640837128193 10.087146861200738
Ge 9.589605465668399 1.6434051787015391 4.279092740360334
Ge 4.2755301389080875 4.40221467737484 2.8435772896764018
Ge 0.2926191793144847 5.573170365343676 7.421834010951138
Ge 3.2363114739436396 0.534050314252776 2.4928653326446937
Ge 3.07171990982341 2.219479346517444 6.956840918016932
Ge 7.437903259877831 5.473598518964703 9.084286478459685
Ge 5.881682406674077 7.824978935850387 1.5671475822472665
Ge 5.559749044285406 6.180077368529571 10.197517299824824
Ge 2.143214862550878 10.802645424748075 5.881097223784931
Ge 0.8690829551704634 0.44622136412970564 3.7126020950435494
Ge 1.422294110178689 7.475455262186467 3.5759847909845695
Ge 2.7236071602122522 2.5387628363222694 4.292690543050268
Ge 6.358921605511204 5.2362642127244445 1.6525391135477405
Ge 3.750632501746383 7.540173540378199 8.377604241125553
Ge 0.2826268447807405 3.379699800299514 3.3880151243525414
Ge 4.531674702225966 0.43220480383336607 4.807329245833662
Ge 9.589605465668399 6.677730421289002 5.626763551989184
Ge 7.571080600864838 5.050477633716622 4.46217516631939
Ge 2.1912566049696176 5.809294269275802 1.6947439433282752
Ge 8.41639980853819 1.6585902020133394 6.182369503748069
Ge 5.910063644033658 7.623199521625095 9.768638701977595
Ge 6.664288201630323 10.637043006636532 6.134011420628421
Ge 0.5641026801470482 5.45956715336921 4.904269628297187
Ge 6.471070587970944 1.3724449815569506 2.245263695237852
Ge 7.832409412590244 7.474148076614172 7.412475808086001
Ge 2.8112360255691504 5.043132466985855 7.0709403616619895
Ge 5.8079115806439 7.372359750698254 5.558871640723462
Ge 5.84872564071804 2.304199764540633 6.681457480844612
Ge 5.26270985581169 3.5804128320997206 10.51316869024406
Ge 1.6522774141355039 7.759486809792505 6.935812651500946
Ge 8.58927658683792 2.6982901292975403 3.5582504540427746
Ge 7.776530925967514 7.533026824158218 3.8782752046942504
Ge 0.8474816574279642 3.770077493559667 0.860817967669134
