48
Energy = -193.43938828 eV
Ge 10.225279186582574 4.779669482795931 5.685300056988813
Ge 6.702670942309961 4.553506227838569 4.541968450460662
Ge 6.759767185592583 4.039128314844659 10.308530967365035
Ge 11.399094597031668 7.427416525190424 4.52169341710134
Ge 7.249233781709789 6.343908668653314 8.936120371613669
Ge 9.219466703836689 4.289866742627193 8.628810678833133
Ge 6.101856322346625 7.952057467581236 5.965170288819808
Ge 6.32099583622209 2.1636957338943574 8.186065921127392
Ge 4.131818192117707 9.605170100095773 7.803499674142306
Ge 11.39909459703167 6.122854948588361 3.7148182441033066
Ge 1.3808299651688374 4.459305883727351 7.640225226911696
Ge 3.969878583235969 2.0917795557088144 6.896419555763185
Ge 2.4062414731827615 7.2588676541023 5.697796553687979
Ge 5.394989630402989 8.307778780782838 3.4471014878094026
Ge 9.517600007180192 7.8565568472774325 3.9649921901458813
Ge 1.4624903524410797 5.737345865947023 3.4655401739777565
Ge 6.236669799487034 2.6376849064279453 1.6294833423646728
Ge 3.5381203867073117 6.753257804500714 2.205632327491101
Ge 6.8587181892002995 4.521862008676266 7.105663526943534
Ge 7.151986211136372 6.437921468328852 2.8517596386525614
Ge 4.3674560492408006 4.567796681403933 1.0620074945830316
Ge 4.126673786556414 4.826231978688177 3.9393733988259703
Ge 3.1132664564088453 5.655383690267779 9.244030142429505
Ge 0.26334212152994796 6.83551927759124 7.072461605078933
Ge 8.265711136335515 2.630449221677775 3.5174215544316185
Ge 8.567191149631455 6.749781749908269 6.286593427596548
Ge 10.852817537506626 6.147936179318219 7.8426318320795625
Ge 6.946904369567552 10.060170761211856 7.397885013006398
Ge 1.928967057327975 3.7870013020734556 5.149765165760627
Ge 9.43662059182492 9.3430589112456 6.199603325407571
Ge 1.5469189056276227 9.050622648212261 7.598891678621797
Ge 7.7584327705202565 9.324647506709965 2.6523387185719773
Ge 9.26234951118877 8.131050227414443 8.576874121586412
Ge 4.891795604191757 7.177361987763347 8.1068797622816
Ge 1.043049170304579 9.635458264784496 5.140115933619621
Ge 6.755337977315501 5.285272057847023 0.592540394648025
Ge 4.241461633031592 3.3932278578547814 9.395781365237875
Ge 7.177001419399232 10.32967642145108 4.947016570625171
Ge 8.67851094231054 2.665143989632263 6.582313799360708
Ge 8.474828446131148 2.0861368111685055 9.697466336197689
Ge 3.152779921599639 2.311688354496627 3.4266071255449013
Ge 9.365705032807382 4.96267852435015 2.7529471508134105
Ge 3.641568112109303 9.536183587618316 5.236240260704885
Ge 2.0651437541607782 2.1510451752802298 8.758163271392327
Ge 4.07196268549144 4.7954462819683945 6.876833759676378
Ge 5.6899211965378305 2.022989734332125 4.279768515532756
Ge 8.527615101893655 3.3635786575776034 0.7740324850142467
Ge 1.9872581981382642 3.7950610167557444 1.6143010600276455
