44
Energy = -177.68975157 eV
Ge 10.165305606618208 5.248147301186724 8.944346414210768
Ge 1.8493267664483015 2.6483454855213955 8.239185000653091
Ge 2.6179474532815448 5.279936025567003 8.757275910702507
Ge 1.7694943330411035 9.784333068347596 9.317277724965857
Ge 9.382542721270928 6.957509641662219 1.0206122625166139
Ge 3.978900896657911 1.1576764194507227 9.248283111086938
Ge 10.037336091567388 1.6231264138488604 9.535075593424772
Ge 5.260364591947296 2.8156123516031326 0.8518161757077921
Ge 1.3985714275191876 7.319489646517341 9.945121341435897
Ge 1.5987007691371438 4.79459592892636 0.890330686300478
Ge 5.0971046385753676 5.433744549167546 0.26822637671232563
Ge 7.80808213181335 2.213463119549243 1.6932592995958795
Ge 9.286485010087874 4.34450787440737 0.9565787949838229
Ge 2.081648929716112 2.1141803096934173 0.5732095908562943
Ge 3.47456599807022 9.939358375915289 1.2592484612228703
Ge 0.5997809251850011 10.184819691858237 1.3591435726304484
Ge 8.541275290965649 1.968261199788106 1.5144481724959822
Ge 5.888802698723012 0.8623055419041863 2.810969854861624
Ge 3.7257205555821735 7.291087775484897 2.1509944204941296
Ge 7.1505326193570635 4.765945081780122 1.7751273746932652
Ge 0.12172900601964351 2.4004913763990436 3.4042743782528833
Ge 1.2070694925013778 6.772200419386639 2.673038357380525
Ge 5.821704473664889 8.637057865229558 3.537036321415889
Ge 2.1527552388298945 0.6348680734882924 3.5380325368281254
Ge 4.9143413727600285 7.128522011905766 4.546269209921639
Ge 6.696962286852507 9.971862961812572 5.611365564972849
Ge 3.837729588010162 2.5290911925765283 3.1431030609236976
Ge 4.587634801477417 4.95784475792397 2.887664515045596
Ge 7.821530209722866 1.8442156153729992 4.488527158368824
Ge 6.812527460864515 5.51690545335655 4.235452364630924
Ge 10.170084464801207 1.0122853991328744 5.724330731697093
Ge 3.422936684333667 9.055965962072436 4.895651641086224
Ge 0.815179187149472 4.730710533455173 4.17842636818762
Ge 5.290862089839308 2.256989447476279 5.310826004668477
Ge 3.6564436983955515 7.6140050138145465 2.861909749392171
Ge 2.811422606321784 4.091123489941697 5.563112468140578
Ge 9.044695596727351 3.4821585735854645 5.582534737359766
Ge 2.2322684863692324 1.8639901278378748 6.673040453066658
Ge 4.339188694892616 0.2953294207795438 6.827879651905381
Ge 4.8818162464170705 5.237985580878106 6.480467612910597
Ge 7.2217042537914296 3.885108674072654 6.19045460154835
Ge 10.20910078096285 2.699418541356001 7.909430906223009
Ge 2.440402181643782 3.93027232532453 8.239185000653093
Ge 0.5306768435643379 5.215535955235988 6.897841040463983
