43
Energy = -173.45919936 eV
Ge 4.6062217991783925 3.126745739707101 10.354967408802022
Ge 3.752406654333312 1.4601430926853773 1.6941715886840576
Ge 1.3971235892630611 2.5793372529522745 0.7232260197315346
Ge 3.926258644596665 5.707254884252558 0.3085554779487005
Ge 1.3441691122464707 5.2473548447223095 1.4773593787541797
Ge 6.637157641110451 4.850480163431328 0.5583567476714548
Ge 7.035974523564886 2.1242450544333242 0.4373771451758761
Ge 7.608874039800294 0.48074058267327474 2.5711155732828748
Ge 1.1172202025659803 0.8792431749237841 2.8654868424527504
Ge 3.274486892508009 7.182180652848782 2.4605161568788616
Ge 5.5852795669752044 3.1022120963455007 2.561642968019886
Ge 10.039491633551904 2.9288569326374634 2.3945891610764467
Ge 5.801611526675461 7.410457811777365 1.1723453077695591
Ge 2.172566592381482 3.4406721120317862 3.29226171674525
Ge 5.2100071131254175 10.050045029100048 2.472714342639923
Ge 5.141796283738877 5.6140158839777135 3.199300321268843
Ge 8.413804441600712 3.6354469884595813 2.288888170434905
Ge 10.533349395622116 5.083646602915697 4.0513069943496705
Ge 7.645647876146496 6.336985458578318 2.9412276389491367
Ge 7.397509802892169 8.753037827772479 4.449522708300025
Ge 4.897995708873084 9.293064637549012 3.5997616308611917
Ge 7.275648403304255 2.2921353804137286 4.6424283244114015
Ge 5.369548112143208 7.314317867882191 5.4355516673035895
Ge 2.1131280649299984 6.516557146194658 5.046545294649578
Ge 3.6542045807938703 4.529151689474891 5.620381083567806
Ge 4.67788447387967 2.1713635806777574 5.421622574716006
Ge 3.5244673016199766 0.05355317861078975 4.441658737772322
Ge 6.38390924989746 10.454299664467658 4.871546790699895
Ge 5.802758581294303 10.050045029100048 6.2506151563866315
Ge 6.044621119991468 4.481372164206066 6.628265522558462
Ge 3.265897359330792 8.96332871465681 5.917209963338056
Ge 0.4214537022031985 5.215463223300352 6.7613590811725315
Ge 8.20355860695831 4.6470756792144385 5.033618323636086
Ge 2.1199070666420416 3.211815873737121 7.2128715700729025
Ge 0.2714438821150947 2.4552845705413655 4.895194494978783
Ge 7.437386313593306 7.97397278991566 6.957319220605242
Ge 5.736823283411139 1.8412357803849075 7.8908649189148585
Ge 2.125112301991967 7.099788699083728 7.77591694992074
Ge 4.96193457762323 8.1677184626823 7.982050096524866
Ge 3.769837517864698 5.1567663407517035 8.255868669041003
Ge 3.6609764317199915 2.7926035778152154 9.484141303013997
Ge 3.2900938305824323 0.8934557023228576 7.4303381175033065
Ge 6.019042664797715 4.101118528229005 9.22941830530189
