45
Energy = -180.94799875 eV
Ge 4.639381680235209 1.0217350859979666 5.124644360135646
Ge 8.02834240252351 0.9320947935508981 1.98360994546203
Ge 5.35208848521267 0.9908905471532328 2.3207299723091093
Ge 7.243857585244406 0.9517443225097223 4.548505980499192
Ge 0.9505943603057718 2.111593043041303 5.565502458474262
Ge 7.760038569452121 3.256063802060806 0.5760664796365531
Ge 2.838406909357583 2.2598132491861223 3.6265860814823383
Ge 5.166629475107496 3.445303192874723 1.0837696339728577
Ge 4.521474135658664 1.5596070916483145 7.767124721754458
Ge 3.8220054349196397 4.837816938106034 3.0282525817210724
Ge 9.475950721633843 3.0293757323232833 2.766049699794294
Ge 6.723783060178431 3.205526398051169 3.198406954700278
Ge 10.715131961816276 4.197002283070997 6.5804448347110895
Ge 8.421960792460919 3.3726600796548794 5.2649852211646815
Ge 2.0267026554146668 2.1121520856101785 7.894398912194576
Ge 7.422770572701746 6.50778415536118 1.3317259589057937
Ge 0.9739843120914489 5.099154660801513 4.222828280508793
Ge 9.64613642372292 5.0228950162308115 0.9173056403975508
Ge 4.841918250178238 6.1060504332516885 0.7384196241017708
Ge 3.4290288269216225 3.2805841609933237 6.0025322462947575
Ge 1.8845630673772442 6.371711974385006 2.0147137136845927
Ge 7.581848030800589 6.127242024598109 3.8558196833512537
Ge 10.024093661754721 5.7259725284406935 5.167206978652695
Ge 8.413266729221565 6.335556256388798 7.266947367861966
Ge 7.752447737558902 4.794407668643931 9.387055571209908
Ge 0.6166964961090587 4.026405157007025 8.968092525504947
Ge 10.039978357469886 6.570006868693146 5.847940757940341
Ge 10.039978357469886 6.921103440493688 2.823687487423993
Ge 5.346806350669415 4.010645976019492 8.662171971961124
Ge 4.240973687156814 7.750360767092696 2.704984981018022
Ge 8.081099412288351 8.723033983228778 2.5619862462708407
Ge 10.925702390263135 7.408491332863674 3.510709238132588
Ge 2.740750079044033 5.820659695887969 6.153313284850161
Ge 6.608230059630783 4.680090244017475 6.58091478337431
Ge 8.76760680310631 8.1838471503634 5.267740837526078
Ge 5.116368246647098 6.121335778843102 4.9763685659933765
Ge 8.404767952546063 7.469434999725713 9.660983114271048
Ge 6.026398905072922 8.61870594590943 4.493330245269694
Ge 0.8119025239439103 6.547709443071812 7.669206487609155
Ge 5.927236952580593 6.939530608332294 9.287902393663888
Ge 3.5843774135617807 5.86066883036582 8.711425767063226
Ge 2.2174391063712515 7.841357744193088 4.473752957582017
Ge 7.152262201583611 8.730674363025429 7.581580499338187
Ge 4.630060870529824 8.08313557104933 6.853792948428474
Ge 1.4536652229651739 6.196100581859618 10.134518009774384
