46
Energy = -185.86000949 eV
Ge 11.546904001973065 9.622703758311149 8.99731033183516
Ge 13.340679965807343 7.654582982855743 9.527074264454106
Ge 8.903371133626724 7.738406691728967 11.61429056696413
Ge 10.779069252360998 8.558527321653592 13.176314740638201
Ge 11.070538251554751 13.085367443146456 11.032975980554625
Ge 9.153027116884722 11.474686120315884 9.925061887105578
Ge 7.662797323057022 5.652266011800164 12.835359436678635
Ge 13.835570955401943 6.2901402258775505 7.231059022089917
Ge 11.56554353303685 10.30400857631909 5.720318193727961
Ge 10.947797760018288 10.454856536061463 11.435735850705244
Ge 6.385493920241131 8.213989718091177 12.19164673568816
Ge 11.812504469576227 6.939813066582467 11.491602137256688
Ge 13.387411027595203 8.952707161459745 7.0602088134173915
Ge 13.03493272486666 11.560109096677595 10.240624599539517
Ge 6.700976167720055 12.274088120893675 9.92135623395379
Ge 11.131055193834213 12.167658524547646 8.488208120560065
Ge 9.414822683243232 5.04263589480944 11.07879843441271
Ge 11.858524717713433 4.3758844637376715 11.259498709689911
Ge 11.817187189134357 5.371504076506064 8.852974071826123
Ge 7.687234677368439 10.701904026105794 4.1974452010900665
Ge 8.030051622462453 8.124709046816568 4.5807298514730865
Ge 5.9517756519327 6.682524185378573 6.270182573249456
Ge 3.3889994464704105 11.404068298206584 7.413374972842604
Ge 5.294197358728352 11.958832207305248 5.442851444332192
Ge 5.608520214037631 9.910140183195889 10.274259310200344
Ge 5.664363457226776 6.195385773713047 10.732932089198254
Ge 11.715857012471648 7.03449152872753 5.678592746601971
Ge 9.283143608205672 9.32691645079955 6.399179273858713
Ge 6.0862570089312475 9.628203998876598 6.236415486023762
Ge 4.207379869738657 6.4113991392474 8.433546128157376
Ge 9.55982712725777 7.894697294036886 9.05814905834615
Ge 10.63859071928402 8.68747683737368 3.8981897805205605
Ge 6.882423534843651 12.23872516699532 7.385374058064614
Ge 8.987497190784831 11.968735199520937 6.0140260427135726
Ge 7.700566003865653 4.459299960593641 9.355889728779772
Ge 7.71870018739333 4.743939159409854 6.86000654939099
Ge 7.065597015629915 6.935891649709422 8.58703741658989
Ge 9.893785761498584 6.076998162592814 7.205119025568692
Ge 6.357455213833672 3.8302523909174004 11.43599187158906
Ge 7.506689056692204 9.769510346109563 8.543499772519427
Ge 11.373189615355585 12.879260710226594 6.026225547014911
Ge 11.992844721292295 4.518629006965224 6.365263514177711
Ge 4.270238058171499 8.979933056724756 8.103566404755979
Ge 2.9996839977862875 10.570981262623 10.074582288135094
Ge 1.6862743253435377 9.613367015047096 7.8693082225931565
Ge 2.334159762110284 7.953301757769234 9.711353117478046
