41
Energy = -165.18438363 eV
Ge 6.54939800962323 0.4214159027166389 6.278443843276913
Ge 4.857857179001072 1.0626399792037495 4.366298365935182
Ge 2.4697523193840394 2.0817972976304433 5.570737079987108
Ge 3.1140748055955783 2.146991077920479 8.147212855962689
Ge 5.457344703882875 3.1562920416344182 2.8680430526632854
Ge 5.592851307017263 1.453801312914788 8.516583719335525
Ge 7.542888475608722 2.7599377981519506 6.678010960250821
Ge 8.885356355046305 3.9253135850872396 4.720223281426956
Ge 7.0617483931963285 3.9213562665612893 0.9915688378816894
Ge 4.4567022348377625 3.9317092557451376 0.38349004464883096
Ge 4.980546542368581 2.9158778571798623 6.30041981530367
Ge 2.4735371275691715 4.72398568043044 5.445400276676138
Ge 2.845629329905678 3.2276707636312434 2.572079589520203
Ge 8.802539426057745 5.633563811185529 2.678065533104528
Ge 3.2438910825713476 4.697647237380504 7.984037165979301
Ge 2.5480643593639623 0.7281779999466249 3.355424887106165
Ge 1.9085825135780057 4.432916129808573 0.27773425914931726
Ge 5.658113942319485 5.453863189277269 8.602550565465288
Ge 7.239875916495616 3.4403468827199077 9.121546992069653
Ge 10.382543981349102 4.671142333659595 6.859663930747666
Ge 4.943334470563526 5.1706041965728415 4.501081738040562
Ge 7.329000325065859 6.160391785748974 4.958861472780606
Ge 3.3332974223223846 7.209394321599282 9.459976463645187
Ge 3.2068622352001626 6.522313488032539 1.2783053254978005
Ge 4.96854993146838 7.249674214841671 6.799088778322666
Ge 1.2570801984418594 6.317667992018821 8.195086836561522
Ge 5.669028453423602 5.923383786263814 1.9193160236184057
Ge 10.488712410733559 6.279014483642233 4.716902909587437
Ge 1.2825192708728126 5.274906438618532 2.77823619541749
Ge 6.461668460914259 7.866638703743517 9.249366274384766
Ge 8.365412388703218 6.32854774447323 7.342448018375888
Ge 5.452539215169628 8.740711675477964 4.580603640863971
Ge 10.89940035932729 7.392132378406669 7.0464378581095914
Ge 7.203900606719616 7.81811493475723 2.8498423463675944
Ge 3.1754963001303116 7.086878573551782 3.922713580952929
Ge 6.445834198361425 9.538246286199696 6.846884124313395
Ge 4.428503076501988 9.56072373667461 8.572864836788444
Ge 8.99201860329574 8.428525356658255 5.373508696225231
Ge 0.9582425263225142 6.873055444407535 5.325629998079333
Ge 2.598988656870893 8.33594297944434 7.0021226856751335
Ge 8.754771370683937 8.889856186648679 8.073993921401879
