46
Energy = -185.1786929 eV
Ge 9.205987480974462 4.44198106819014 7.010969718092336
Ge 7.506808351133473 3.6619229846213366 1.6470943146984607
Ge 2.7452857222211513 0.6888114226719206 2.9002772383077766
Ge 9.989559476793564 2.98431512007466 4.668120210101215
Ge 1.8077763406406369 6.925487171623371 1.0084292102246861
Ge 1.143507052566113 4.225201974535535 5.99077786042553
Ge 4.436334834741851 7.739072217993937 1.3551530830628284
Ge 5.754485771308403 2.0969865117672177 7.182189729394658
Ge 5.47408915964317 10.477849871363164 2.383158616120796
Ge 2.6559343452337107 1.609809484954576 6.9496717194055595
Ge 2.256435546917643 8.694753063333216 3.002669944009996
Ge 9.954673757964171 6.009202327727658 4.775338465611303
Ge 7.376504623191786 5.722851874202714 6.912645876291147
Ge 3.1953241418250076 6.917208119704459 4.977945705308504
Ge 6.148210398302878 10.75670639468655 10.711535318271194
Ge 7.099243711218182 3.836234127353574 4.937102940783667
Ge 2.336441299018348 8.063617012914593 7.178670898611133
Ge 5.542141652720994 2.547749725608103 3.0138606114776945
Ge 7.679886453415962 6.485706880809574 4.113166655726715
Ge 4.652698331890848 3.783276362888197 10.069719512673464
Ge 6.421751821125211 4.222341696451914 8.856608580768853
Ge 2.5972209924664544 5.504076795362279 7.732938694216699
Ge 4.940346449004805 4.601796687357769 6.373733652055957
Ge 7.380380312279634 4.914411175328292 10.000855146139216
Ge 4.321573055027497 1.6900439439448718 0.7675649775845454
Ge 3.3441835160631523 2.9012250560454182 4.59276010563486
Ge 1.4045613280298517 6.007905822492544 3.4204980192708394
Ge 7.004518112784759 2.3176191115701994 10.18541204749055
Ge 1.0065091902055125 1.0433822327352675 4.800163174752962
Ge 10.801626540612666 6.639474435857953 7.396471898262141
Ge 8.276386401643308 3.1027424415476847 7.319038323413033
Ge 3.8990066250483637 3.2028030108488466 8.717508870823993
Ge 4.333450257910009 0.4670175194900416 5.2563856534686275
Ge 7.013100136127308 6.301620154349473 1.3963538023011686
Ge 5.189611696847837 5.756902198862711 3.2650735001608204
Ge 10.756137354398653 2.2018773374109464 7.340671266813075
Ge 3.5947054098186713 5.035781418394832 1.3539732717777215
Ge 5.0886495344378435 6.34855424007145 10.037738932928885
Ge 6.910111314914382 0.6509042584446875 4.304419071376478
Ge 9.205987480974462 4.391431558918157 3.4432656619342477
Ge 1.3767515380428281 3.0241821308374797 2.8406930482544386
Ge 0.5772047718517379 8.234860190362754 5.135420252791213
Ge 4.8680964217634575 8.50628974222955 3.8528458823022316
Ge 7.881430047084334 0.9268226243993702 1.7197138649921944
Ge 0.4128050260962408 4.336676004946311 8.812573999073594
Ge 9.124451284091542 2.1511966093515946 4.980705743185263
