43
Energy = -174.03455979 eV
Ge 6.7855660960073125 5.954783253918964 9.162329520216606
Ge 6.137569874042823 4.868440875285095 6.846636255521724
Ge 6.241897843282999 8.555277651313988 8.519679237919949
Ge 7.817158884836648 7.058962859871383 6.905108081956925
Ge 4.2910506681152745 6.2676640608986345 8.477641141602552
Ge 8.072222581599204 4.155045108891806 4.71561154147729
Ge 8.54924320595582 2.020786670265841 5.9954312146090345
Ge 7.395701145696019 2.7586755924871458 2.6800649253840563
Ge 5.818075751755176 2.934992567702889 8.41692551085646
Ge 7.170847553754469 0.7812820795398543 7.696292524298019
Ge 9.112627690907155 0.9909660489983335 3.7771124234970643
Ge 2.1550937859940795 4.900657596386203 9.23275003059045
Ge 3.7548367417700814 8.610443293662717 7.512289019924289
Ge 7.192094433240605 10.984285956467586 5.1417468838796525
Ge 5.839411828664491 8.715578768203633 5.830480030989137
Ge 3.350042647112036 0.5154081370962633 7.504008082911481
Ge 5.292844281983158 3.3158580390733974 4.180142114005018
Ge 6.432734554133923 6.44802735206873 4.550516009215217
Ge 1.1980884826977194 4.810803452694183 6.873130217140579
Ge 6.522712712194349 4.646261618075386 1.0389856581960704
Ge 4.112872586630845 6.4585464715326095 5.7849173551633175
Ge 4.12381026601996 5.048277703670197 2.0912805637212846
Ge 5.233076241019767 1.43920193358532 5.932893611247415
Ge 3.3887723117022355 7.650731859307809 2.6150768821150003
Ge 2.261342216993252 3.4514601010788533 4.775414000912114
Ge 1.3318037268119944 1.1467339243684163 6.07209058508002
Ge 4.8634692594864655 2.6708784131326593 0.18108996505744743
Ge 2.8933699445617083 9.029962967449249 4.902913087267909
Ge 5.246538695253577 6.952602337439579 0.536915286909717
Ge 5.918297897075971 0.6638413770466309 3.027740132517137
Ge 3.289147551683253 2.8800186973813333 8.340316090835058
Ge 5.986101570729225 4.36554086494199 9.79201349390537
Ge 3.634677297547211 1.853318374721348 2.526988704148236
Ge 1.6285106172252475 6.804879360448611 5.2638130130455165
Ge 1.1406102386085615 7.495294395411292 1.329466055972866
Ge 1.3135415338682537 1.3069793154410907 3.5234159560440395
Ge 10.940611093078573 3.095950423377462 5.8503728218553235
Ge 11.114274713496453 3.4455944239916674 3.2478186278630403
Ge 1.3677896212324703 5.596175727464117 3.0208625264562703
Ge 2.754852124297871 6.095827737806623 11.180918739790528
Ge 3.272146354990393 3.8109574468759972 9.61371785008076
Ge 4.335934135180977 6.313878806085652 9.23275003059045
Ge 2.2363455383281226 3.6407379835868428 0.8091226325990463
