41
Energy = -165.95580187 eV
Ge 9.492396752148151 4.711841604518646 2.6430818469403388
Ge 0.09509353521574385 3.6624976646529603 8.76017549488244
Ge 9.239308470765017 5.5339453341205385 5.097320774683858
Ge 2.142432013210829 2.9987878953464606 2.5497541852512127
Ge 1.0741622930939159 3.559523366700039 5.653359543920091
Ge 5.78585063251193 0.5033702363432468 0.014254548925329982
Ge 1.60291752223607 1.4439611858664614 0.4194280697276693
Ge 0.8095552860913495 1.3485523362229308 4.2246565701901595
Ge 3.5342038791411907 6.194936906917423 8.856129195774303
Ge 7.887041756449947 1.347365165690935 4.870403899649279
Ge 1.6844443119265204 8.699415568568206 4.082138988324495
Ge 3.4871864582133294 0.22014111602150715 2.1704453526748186
Ge 3.700880018082628 2.9440828873350626 6.318398844045847
Ge 2.58347285123084 3.909441842923771 7.762254814432219
Ge 9.401961810221692 5.867684818291388 0.3731995000676827
Ge 7.0881364652648955 4.8763462199623735 4.642852774306216
Ge 2.931919590402611 5.614944415952931 5.890917614299234
Ge 4.616171898976823 2.6682869585132534 1.251001536286774
Ge 6.726961208941629 2.9212174428636173 6.334399005602682
Ge 1.8485598806443495 7.120875949791243 1.0416910758556306
Ge 7.265005999031895 3.896514000577237 4.018483442833772
Ge 5.293868944209066 5.098831539960653 6.870443495549416
Ge 5.027579124222416 2.9341348123418824 4.082898018797053
Ge 8.875958043908398 2.2690065671943263 2.5039440740179346
Ge 3.5943106838484304 1.5793174762604318 8.616659625042033
Ge 4.271561128334886 9.31874987414657 4.5171628612439
Ge 0.05791382702605784 1.3941707561145764 6.74205829331362
Ge 5.897867021613663 8.585834148851466 2.3567815768421747
Ge 5.555977419852776 6.944134067458994 4.905323611753929
Ge 1.982736185583327 4.599180489158593 0.4481937542530343
Ge 3.6539465590872453 7.185002540631146 2.7827287075921814
Ge 5.45602783597791 4.942746437390391 0.3568938931704878
Ge 8.220628942152096 3.4706161799221373 6.541186674200389
Ge 8.908808916138355 1.4344385753304396 0.009768471748237847
Ge 2.3046530342656038 5.593939744466992 3.2550782130347695
Ge 1.5964376461118717 8.43513914377487 1.3663964490744014
Ge 4.886478098013459 5.431862029813754 2.9394699975468472
Ge 7.265005999031897 4.192296361162009 1.954942784163907
Ge 6.694371063483374 0.7732578753188365 4.646573233544304
Ge 6.955359921756716 1.5876757957253942 2.1717156092953376
Ge 4.075693021005122 8.132288850743613 0.2772998936119556
