49
Energy = -197.91052417 eV
Ge 6.36200970313418 1.0063818615593465 10.325118579637666
Ge 4.955534106125054 3.5092511535999855 9.330642478364481
Ge 3.6703409743347555 1.3876830708946697 9.759052547745336
Ge 1.2803165886858574 3.649866144230578 0.20710197947123024
Ge 1.341782684784921 1.043645039105834 0.15489704974592003
Ge 2.7579539475642396 4.867742943162275 9.20329077175516
Ge 7.12093078136313 5.544211707518323 1.1422390000216733
Ge 6.279451501705019 10.033458908702443 1.8812860634278594
Ge 5.486743159541879 7.646978962133076 0.6215330042813905
Ge 1.389174520191195 8.718306364412912 3.146046214214521
Ge 9.609871652238974 2.925134412796386 1.5426366650668222
Ge 10.41477198522198 5.761058404680478 0.9130103899679077
Ge 5.487695739793726 3.1996283368867156 1.2303831112151113
Ge 3.32025180620234 6.268083572875955 0.47415761904375003
Ge 3.0416752019345776 2.359504216745039 1.8386515540597552
Ge 7.581725450970598 1.690374021452824 1.8390079393538807
Ge 10.226004153043911 9.952434127626264 1.6431242611943133
Ge 1.477525422183726 7.625576509608035 1.676248850947645
Ge 7.262595492158392 8.203909360094919 2.494782081826396
Ge 4.578301157310057 9.748722905441072 10.458160878311434
Ge 8.550406591607814 5.185217257538059 2.687394711332405
Ge 4.597521073111828 8.718306364412912 2.9528061139258868
Ge 3.4002049606453353 10.48983884550715 1.9150796062788258
Ge 7.9153429467018475 5.9106835026576885 3.7151679776002338
Ge 8.756503733498842 0.7833498325745588 3.3321122867989303
Ge 10.539891620899272 6.457474752159151 3.67029905002832
Ge 0.6344140363607824 0.45214877272570586 3.7487466737860133
Ge 2.2744674659729953 5.168020938525248 2.715329820323464
Ge 6.278610446713591 4.947149129340596 5.520751798360339
Ge 9.495940507444065 9.04506808691837 4.159892046820168
Ge 2.123079807193352 7.673380021855995 4.256815752849222
Ge 4.721067015382203 9.619630102119189 4.09584214662008
Ge 6.208717276104247 7.786432362326107 4.956910651912124
Ge 0.028310992526263266 3.857557899631563 3.6012558406040176
Ge 3.1912952189185235 0.20455402977724318 6.128009409659506
Ge 4.82855567980402 3.316186801163397 4.195658922169618
Ge 2.533587327973202 2.1609998440204206 4.510375264424618
Ge 6.195245247078677 1.151893968334014 4.018475510514875
Ge 5.204642741613388 6.088735776832634 2.920937914874842
Ge 0.95391941549544 9.340462991959184 5.739426981111637
Ge 4.524841606301262 6.414023345923335 7.016466118615986
Ge 9.72310902946424 0.5188788769892385 5.812159477596191
Ge 2.807944620388059 5.271760585301566 5.427155269021599
Ge 5.835047245584027 10.690125842483177 6.349734308579704
Ge 6.06599410425176 4.384540958196594 8.044204006711867
Ge 4.825724581215692 2.426336818481324 6.711320491341846
Ge 0.9632808391181181 3.6166231847049706 6.079856083318404
Ge 2.181110493723944 2.013368515353083 7.828211837200242
Ge 3.3690031512650753 4.260223580583601 8.213201071572648
