42
Energy = -168.27489681 eV
Ge 7.528919384178242 1.9794903007482707 0.12969404218936215
Ge 5.1554368921743325 2.073831058037259 1.2243693115875605
Ge 2.766675596741338 3.2645233985617175 0.5948667551571909
Ge 0.04664272610189424 4.040518187819199 0.8570423695273747
Ge 4.492024816954457 5.403104499566291 0.6507667553396466
Ge 7.153279171030196 4.376222574088472 0.9488781562669373
Ge 1.8372831398827063 6.098624013590542 0.8683331325120828
Ge 9.025821397819932 2.663420594790378 2.4149556556892775
Ge 7.227753075776889 0.48866820336196415 2.356925474083685
Ge 9.846397503411586 6.0594289868422 2.3281585219758067
Ge 4.663479768092028 0.2891881184696355 3.164746478155212
Ge 2.219498192076559 1.70113965864857 2.6820980012908993
Ge 10.45341155781547 2.425778781135744 2.875701267160421
Ge 5.961212097911415 2.6425871423097376 3.8457007302968207
Ge 3.6533087932147277 7.383085349323613 2.5804574027098592
Ge 6.427002242692896 6.566767964293043 2.305359948047088
Ge 3.717321591745957 4.156914104729027 3.069422017131859
Ge 1.0884193612781217 4.735051578315351 3.4394870261619928
Ge 1.0211561333740302 7.787600282216185 2.750814403519535
Ge 8.659929170490221 5.305117072798313 2.8667129320462386
Ge 8.195775859630254 1.3649043000215848 4.669996287862387
Ge 5.442577227038455 0.837996604542233 5.744691418263238
Ge 9.354933623719136 4.410716586714162 4.462091071111735
Ge 5.813138693773646 6.917645660410218 4.926498499432049
Ge 8.417331716098545 6.438582709944079 5.638497938588865
Ge 3.1006392412188806 1.9038399406301456 5.217582126874569
Ge 2.49089073891321 7.975890140783353 5.035796330452438
Ge 10.745304683014407 6.840007609738329 5.16486261179109
Ge 9.354933623719134 3.8435262154393657 5.497719807920082
Ge 0.5337819207338129 2.5832440843270166 5.320754609131851
Ge 6.781971858227578 4.390085275502803 5.938502198709545
Ge 3.72725581214415 5.528429176935675 5.5966199770416
Ge 10.555058657642999 4.690738122418194 6.852294098869245
Ge 8.138657938282526 2.6337493105438208 7.651288498587942
Ge 5.370583487938073 2.969992243184251 7.593822384920241
Ge 2.399326260760287 3.781399353160285 7.142461679343954
Ge 1.7553124325738054 6.517671037314346 7.2297288433490605
Ge 4.499890597222889 7.751333087562711 7.151835967872403
Ge 6.94313408508783 6.775146512152702 7.966344309078724
Ge 9.119220203744527 5.156924439616345 8.014115348667753
Ge 4.402413170898452 5.450965386072567 8.516345111673337
Ge 6.8778412391205155 4.444487356770912 9.361997523039113
