46
Energy = -186.41384361 eV
Ge 1.0458205327729095 10.33914049305453 10.138496654193297
Ge 10.824993362816771 1.9215990396968359 10.431670847656752
Ge 3.680464950878012 10.272210352159407 10.574813376747992
Ge 5.064770528199157 4.959556540325349 0.4725823784593024
Ge 2.2388157376641584 5.802809586991949 0.8534633181640879
Ge 6.634689566296095 2.481584413271679 0.08890485440520156
Ge 2.518347712724493 1.6016680591128796 9.400011374848228
Ge 0.4933139304478061 0.41416683311460867 1.8056993556132575
Ge 10.27098981983243 3.7196569869646345 1.6829442507576822
Ge 1.880209477628981 9.13497362910473 1.5077977463884582
Ge 6.630907601546317 7.147237542679775 0.22678219784218734
Ge 4.125198660002758 7.614283958346001 1.0859847655472634
Ge 7.725224906006967 4.824083012689498 0.30399309150185483
Ge 4.905479604470163 4.099756137393968 3.0405367846203015
Ge 6.438550833803029 10.598076754965854 3.206125178962105
Ge 10.653017053132094 6.303170418311236 1.8316560665766064
Ge 1.9790594114930034 3.2159953047290073 0.8153144880513886
Ge 6.950515024702671 6.118521634462843 2.6379330119874225
Ge 2.206789467264908 5.582191061583746 3.402282826777735
Ge 2.3425678880731464 1.7130250379915783 2.98824073867574
Ge 4.178007816037842 1.8127745178593568 0.5633170493924771
Ge 9.081853249157636 1.5428000492891112 2.1177000150307674
Ge 6.909030686493661 2.3063959945914436 2.612473184598673
Ge 5.2111376488516905 4.835974436524368 5.5940947965315715
Ge 1.6866685852282142 3.354556706180517 4.872260002182057
Ge 5.4436319365632695 1.596534686953452 4.876719822589158
Ge 7.545728546463546 4.211690771082796 4.263424365072342
Ge 5.9785661536818875 7.377349228654814 6.091625209129996
Ge 4.635706730070194 9.897746960928592 5.337637370592684
Ge 1.875409741669024 7.685502895490263 5.027710066135705
Ge 4.580666045635975 6.923239347241318 3.595031158631931
Ge 7.246200672115745 10.557191018982298 5.8622311860189775
Ge 10.417005413740307 5.140351911617372 4.16326149412166
Ge 3.9053799254995583 10.664365194548179 2.41779231069822
Ge 4.0996471333298095 9.13497362910473 5.039697715505025
Ge 10.058282099807286 2.6408261023134467 4.286913423564394
Ge 7.259553005291267 2.22747912203859 6.730602494468771
Ge 2.900083499808015 5.651298435960081 6.4963890655430845
Ge 3.1539889941151587 1.0587353678113356 6.156817878137479
Ge 4.977217316836884 6.30050227540824 8.356521430122715
Ge 3.536711672672122 8.123118435651033 7.32765150797172
Ge 5.406570118512692 0.27994857264225365 7.6844340533758935
Ge 0.04106625276804332 6.2546249833226675 6.453485288374791
Ge 1.0580607172575038 4.0446432413256135 7.374710487579578
Ge 4.747730281987553 2.892019911138927 7.3327140757187195
Ge 3.2458318474152086 4.300209487668744 8.880817560878288
