46
Energy = -185.68991571 eV
Ge 9.10451087583062 1.5482281223437468 6.90664983372093
Ge 6.777923332541274 0.7816786439300988 8.261641701573067
Ge 7.845644904963627 10.714789079628083 6.351554590832237
Ge 8.814226772461444 0.7090557540231508 4.325037029849346
Ge 6.8391164225789955 5.068610698907838 8.674876470727492
Ge 4.993192150329385 10.971074946360346 6.674644232683211
Ge 8.50041220676692 3.3870375282686376 4.978285089261826
Ge 3.750928366576473 2.001958002267222 8.012877847530694
Ge 6.9261228849939815 3.1406620301606507 7.022121369408566
Ge 6.148927021471893 11.297708161568073 4.393712848105769
Ge 5.741050255629995 1.8979378371918674 3.006056197002995
Ge 6.13057571817528 4.749711645173043 3.6987260853613018
Ge 8.006013980085555 2.8838292093371805 2.4021635246239152
Ge 6.566607068067852 6.468474293792941 6.573741334410473
Ge 0.9491488237626788 1.0647512309841487 5.3906533002708334
Ge 1.8075636260992554 0.5184882216293304 2.934678124303177
Ge 4.314536259320623 4.529373413030671 8.528566463802647
Ge 3.6243707127854328 1.7757264009118636 1.4909537324492879
Ge 1.2621595204442768 2.847408119644924 7.2892793119424635
Ge 6.049800783924998 5.228459166896264 0.7709008663058673
Ge 5.040875477357787 1.9679149892613137 5.696704433638132
Ge 8.444527990459111 6.009491859442608 4.861004820689117
Ge 4.056108798031605 7.1748066930336405 6.8185774105986034
Ge 3.047406532041184 4.720991242323987 6.231781753485072
Ge 2.824185712661241 2.801702235199856 4.3240041865008
Ge 10.726742247799674 3.2956425929577127 5.573288360193718
Ge 7.014575640516262 8.958935232137046 5.796010186122813
Ge 3.869597213051134 4.2725441001891715 1.7556673906255802
Ge 2.4285623790180457 6.224722691564348 8.676128792836607
Ge 3.1770139207963153 6.337140165297326 3.1194850820439832
Ge 0.9741939020119647 2.6388967319879866 1.2352168651912423
Ge 10.90706365715377 1.7171312379457753 3.182520795512416
Ge 0.5739239347924837 5.463301923912223 6.894394240904041
Ge 8.260440573053659 8.640442685883492 3.392060718600552
Ge 8.19183466907649 5.609393108754625 2.2028285739521385
Ge 5.653858388424598 7.811509452361809 3.7000648337433995
Ge 0.4745152275578205 6.714776343224209 2.9306801658068915
Ge 0.6973595852990307 4.1513709509269505 3.4831561175273453
Ge 4.3527072297507 9.562958177678647 5.264785330498674
Ge 1.6556205913581157 5.341402890824187 0.8407727755857246
Ge 6.466201528406905 10.714789079628083 3.840197733708322
Ge 4.597828006354759 7.408902268059927 1.018991885937306
Ge 1.8471988737790663 7.152929345813774 5.306095211299687
Ge 6.422157893119355 9.305382850165984 1.520059464328909
Ge 2.13049849014859 8.043915115837004 1.1978239673063962
Ge 4.017425671131751 9.928973363813784 2.6778780044863355
