49
Energy = -197.2405147 eV
Ge 8.401459918040693 2.534284648968993 8.091159984237466
Ge 6.317563977643745 1.0211479078539498 9.411843670922533
Ge 6.715177269538651 3.8511605056307685 9.582270581311924
Ge 6.78709114564739 6.6381551750110885 9.223808345987866
Ge 4.25870529758333 6.915968894066038 10.035495218002444
Ge 9.338272420837303 4.317265398760513 6.105224342667619
Ge 7.108501605910321 0.562032590922752 6.811676382422406
Ge 4.265332214776701 2.92915708866897 9.342057857324715
Ge 9.056327338527808 7.823986822179607 5.0530359437447885
Ge 8.267823408154033 2.0104524950524225 4.465140375319282
Ge 7.817181116920643 6.284481862480691 6.863418448863589
Ge 4.430363013523051 0.8889754561200113 7.529753697088811
Ge 5.909303194456884 3.014472298810098 7.155701473193283
Ge 3.6172326959168766 9.199651142860386 8.67410991908989
Ge 4.618614431954029 5.62400393174125 7.71805493606386
Ge 5.852476895779051 9.930966812907444 5.531748483835476
Ge 8.854863823237189 5.614127355090501 3.790257292795972
Ge 9.205291241740358 3.5200771528012815 2.345216892157945
Ge 6.12748467426824 8.92781189936395 7.894927016556577
Ge 2.092245558777392 6.801197041619024 8.72028501789795
Ge 7.453575102517713 9.365882829331563 3.59848004175842
Ge 6.327407820585466 0.526498568832404 3.1549293070372864
Ge 6.86762356064085 4.313042131449799 5.10325944457891
Ge 2.3730103106595406 4.3738325128126245 6.936892448063569
Ge 4.597516996284237 10.47091743794223 4.99003736027481
Ge 4.231990895820766 7.827628223631408 6.266903579318907
Ge 6.390747522427386 6.990000088008114 4.592975032230559
Ge 6.4813358128393475 3.1692496696144112 2.6880770130993183
Ge 1.8193784208678265 8.912686653329459 6.735569765940665
Ge 4.131312721456302 2.3936005744413063 4.1314857699542085
Ge 7.466340556015085 4.679801781215118 0.6800476282943848
Ge 1.8711431593524086 1.8203277854624662 6.98860960164787
Ge 3.3731207193795716 9.94475455501696 4.670325276711042
Ge 0.8619075207977492 6.387080390783889 6.1949715945836
Ge 5.100031743419572 9.715592916319281 2.477845230126129
Ge 4.629413109174158 1.4347677637241 1.4390048996626525
Ge 6.727861195265007 7.37394440291849 1.6473376424119834
Ge 2.908811622567148 5.262033164991823 4.4812408830437125
Ge 4.955577816352264 5.433475588424575 2.361576220983183
Ge 2.0128221864641467 0.62737035304232 4.563238832650691
Ge 0.9144273293089341 3.0833067158977423 4.733860352058895
Ge 3.0256093704440303 7.743541070200171 3.3228772710661354
Ge 0.6460030493705652 6.772495678735279 3.6093667798024947
Ge 5.08080888704219 3.568897178523017 10.430231726956144
Ge 2.1527625075442454 1.90658141076012 2.2940533278073603
Ge 5.621369887696689 6.1875356547583475 10.035495218002445
Ge 3.9550748615139146 7.730502267293788 0.8964945885183992
Ge 1.2550278389232201 4.48050980776319 2.5417675870674095
Ge 3.075515154849776 5.05635220559733 0.5782991773670844
