47
Energy = -189.91925568 eV
Ge 5.397387414578047 6.565725420154764 10.292801680162103
Ge 2.7724206539902387 6.820500059788775 10.531416360269766
Ge 2.5264267583962896 4.060630530955708 0.8217596840351826
Ge 5.044934064892887 4.601465056643627 0.8743575173893285
Ge 0.7078534622425181 6.046086142925571 1.3656189710354223
Ge 6.968290417096675 8.209919059384214 0.7854621011461018
Ge 6.455630203898117 2.412975273358055 1.060237904056924
Ge 4.281226210325334 8.414807232213768 0.9258706009519526
Ge 8.833489943186816 6.216098432465609 1.6828231661593676
Ge 7.9563310133433545 3.8817567041562486 2.5525260418617406
Ge 2.3057257720009314 2.3617417641537335 2.772582144684871
Ge 3.302566879036158 11.028882226870401 2.1522835358948367
Ge 3.1892030186958458 9.56625354595062 3.17107047325665
Ge 0.2985621467729403 5.353411367349077 4.074343551223272
Ge 6.272633039499403 6.148011676233009 2.566085247110046
Ge 5.906291961535216 0.13085925692694347 2.6532172581589712
Ge 2.8511587232064217 5.617389709575703 3.0106301944903024
Ge 6.033620563770617 4.355059790946271 4.794963597710212
Ge 1.5451197899541238 8.676390725252059 0.9692789960086668
Ge 5.870295111650452 8.782939759297808 3.199593053112017
Ge 10.020633505964971 5.057023736895641 3.894391868739106
Ge 8.688515803627709 7.444292739418136 4.070868823481737
Ge 1.6207712079705248 10.828824970587236 4.264272556630152
Ge 4.851138813775839 2.5791555759619413 3.19523043399488
Ge 0.29405619527207083 2.5489958902095897 4.489629905977659
Ge 0.9766025521781212 7.9372528404948 3.5358846222632825
Ge 4.227790863323356 9.825079201780799 4.547886110352973
Ge 6.236588564960995 6.93951794289747 5.273312360420714
Ge 8.371400005135452 3.16378847002107 5.008801606036963
Ge 2.568995676083347 4.000702819094697 5.08805155726751
Ge 3.4869410552548037 1.309634682175434 5.778794006881392
Ge 1.033696391132549 1.0046216873524103 6.682881265918042
Ge 5.053045262247637 4.453653791120843 7.367253483115981
Ge 3.5354462897984273 7.416668684791386 4.66650335381476
Ge 8.521000453266026 5.616127807236676 6.067934100967649
Ge 2.354751620929315 9.566253545950618 6.543753698079092
Ge 6.102441742553138 1.103020356228793 5.180830020966175
Ge 1.0376565993221847 4.307538805904491 7.185692388549615
Ge 1.3653924263559138 6.785714383668797 6.129074315812114
Ge 5.019360644427122 10.46429597486698 7.0503452124017265
Ge 5.746513717631596 6.962575945443499 8.140363173345103
Ge 7.15453089924125 4.885514931601797 8.957578928565777
Ge 3.1131434075676663 3.55629814186878 8.978588873864627
Ge 3.058222195277797 0.5863636900460849 8.35550354797667
Ge 5.631720650609116 2.764825587443868 9.34359407611804
Ge 3.1977225994167835 6.183082730491223 8.296480960875282
Ge 4.781150399756967 5.202917900922051 10.288473311188689
