43
Energy = -173.23433032 eV
Ge 5.5461181978279095 7.089014356817983 0.5089151151570137
Ge 6.114627390132067 3.3130512647660124 1.6594251100020412
Ge 4.430231697686664 5.176726187233387 1.8248999396188519
Ge 7.297198565535412 5.578424869644325 1.6644739236058677
Ge 9.931403291898198 10.557578679866024 2.8731139078544983
Ge 2.167302451872145 4.718507584775259 2.9676904446384107
Ge 9.82898853799385 5.770216381641027 2.4707350784471176
Ge 10.232335178356147 8.080039023444584 3.518796440569742
Ge 5.878290500880952 8.02287875691057 2.8558913006814874
Ge 7.8161764850867606 9.524016477533753 3.7282899787183874
Ge 9.765036769872841 4.29469200906199 4.671635345397077
Ge 3.467388141489308 3.6460468339268006 4.9541410752139035
Ge 5.788936110151374 3.052952772651343 4.166072968015128
Ge 9.199446916660243 11.612556370709335 5.2135863612906785
Ge 7.874675107680067 6.570166900277317 4.095565531710254
Ge 7.510088216206498 4.066032359050711 5.738426639808919
Ge 2.624570689917964 6.361637713549876 4.812598988884169
Ge 7.2828427322698 10.086015575555976 6.212317774095895
Ge 11.238111216203343 7.921060063075496 5.887614430623099
Ge 4.540845887454295 7.9701131022492975 5.040307578891891
Ge 5.33136096318199 5.528824337528663 5.539448025556205
Ge 10.015193448998929 9.933842934203032 7.005244030241155
Ge 1.613826310402105 5.833836633688513 7.149360922832433
Ge 8.553023717814382 7.738264532747129 6.32505708442637
Ge 10.414770090763003 5.67510672665249 6.712504437247337
Ge 5.807815313219723 8.02911918791963 7.398814191734871
Ge 2.1669765073691862 3.296195295704371 7.22535064597261
Ge 3.443610067535438 7.488968200171445 8.677916556684073
Ge 7.9897404509811984 6.372035255556222 8.571218055419115
Ge 4.169035887739253 5.073787180241647 7.821465689472504
Ge 7.92720560093888 3.737639400867544 8.232739328705543
Ge 9.044054401832218 8.940548031820683 9.169637027351817
Ge 0.9550541555130416 7.279729964855255 9.136515134250972
Ge 10.314576917295438 4.65303719655215 9.020851139392844
Ge 6.535882222536391 9.191801632406566 9.639430004721172
Ge 5.817895693896896 4.052592941379922 9.632923222643957
Ge 3.3265626913343858 3.1914810137228278 9.535900702911118
Ge 10.11627134962156 6.950548474939028 10.397492147611699
Ge 2.311681129998534 5.487966290279086 10.441501693119795
Ge 7.714397528305441 6.829870422574247 11.257099806521733
Ge 4.52466811598634 6.607447779953224 11.062271771471794
Ge 5.98095274562592 8.56670865844654 12.000148995997904
Ge 6.169764712594223 4.9078547337098835 11.96154556114918
