46
Energy = -185.61531226 eV
Ge 4.516409954536532 1.1218720705834095 9.017842021955227
Ge 7.4551954999701175 1.8340082714391177 8.301018214288229
Ge 5.401188410310996 3.647042173105329 9.638576744576374
Ge 5.770648820478161 0.1420034047012387 6.7656454401470185
Ge 2.7691183777971426 1.1877767149256644 6.971634951266294
Ge 2.65386643828707 3.15238073486153 8.982272119949224
Ge 7.690407510849976 4.477687607976136 8.529965890505494
Ge 4.735860494036992 3.083295079807068 6.987232768548268
Ge 8.54659017374063 0.7480246862666322 5.970724125814359
Ge 8.840838688644958 3.32556787682248 6.469512704274317
Ge 3.7413283344254973 5.7857508868372785 9.06913243085543
Ge 4.576291875988946 0.06811270786350816 4.280461049396771
Ge 3.03804761957119 2.1846148136167254 4.482257388643474
Ge 0.5509391982113824 2.6357874102768437 4.82893178654214
Ge 1.3930215555764256 3.9918593121092316 6.8320963749608286
Ge 3.5065079477052565 5.485939667621384 6.205609796539866
Ge 6.26154570418681 2.0322301842278194 4.841035529187261
Ge 1.3938436965056944 6.402284577487722 7.834473324837155
Ge 7.032191837321476 5.890886329299765 6.4438500574578494
Ge 8.580123061349527 1.9283373704023843 3.626864462676815
Ge 6.7613957559470395 0.27715515674197266 2.69753228684386
Ge 2.883728033957083 1.4387289523216984 1.5436070064952223
Ge 0.5678510846389316 4.787555775018361 3.3654424685775326
Ge 0.010027381643064128 6.6963288901986475 5.133623079106349
Ge 4.988423281928447 7.279981457853786 7.375696611187534
Ge 5.407157860201048 1.9119038068049354 1.303280264364473
Ge 8.53467575700227 4.480331903191629 2.618860715075028
Ge 2.4697669799050637 6.4562499279979875 3.778244815473065
Ge 1.9061344293248028 3.7820249255524296 0.9683490403032331
Ge 6.448834743040884 4.616411133749186 4.179894144246812
Ge 9.1176725402554 5.501808112583211 4.965087052701521
Ge 3.9953129079571847 3.081842137388871 9.638576744576376
Ge 4.019848343289931 3.733690580646072 2.6788719517718014
Ge 2.487711584047783 8.145734839622738 6.102043710012373
Ge 5.611204143973247 7.320957367704245 3.556624104999989
Ge 7.513173189479281 8.435262450729327 5.134716973273384
Ge 10.251338275145251 7.08475753998869 2.33818789665186
Ge 0.949677387099425 8.83362424769892 4.0198994305681595
Ge 5.022346522824099 9.461339045544584 5.115850827163752
Ge 6.2336550414371175 4.347213028812662 1.0149876055558846
Ge 8.1539437521369 7.542258363458981 2.633585694246091
Ge 3.9299901836656113 5.456201386515744 0.5687322891095373
Ge 2.5051557261170365 7.598782841362647 1.4188364125919257
Ge 4.210440493543319 9.408265742176974 2.5883314221138436
Ge 6.085767238517544 8.15172185714647 1.0597919157671967
Ge 6.8359323276388135 9.922832728993857 2.943950009699076
