41
Energy = -165.96358974 eV
Ge 1.0039022549293268 2.320412616216665 8.341996786194217
Ge 2.0941568380840354 4.796941459636221 9.119666217197713
Ge 6.260408400676952 4.785533347520295 9.858610288943087
Ge 10.31498157286528 3.855107025590092 10.234859383049818
Ge 2.3206412524421234 0.6085396346678826 10.02752585806757
Ge 10.257571377971022 1.2029875249520587 0.17037815508486986
Ge 3.6055934675760906 2.6453725946413447 9.131329862856191
Ge 6.109084490682475 1.9909279640187967 1.7849747221175427
Ge 5.283520058009225 4.881653748318902 1.888746149215858
Ge 1.9538818490418342 5.115134438287421 1.3445133935625373
Ge 7.888859792827851 4.1320614457551805 1.4271581432582185
Ge 3.535553952511937 2.6342509144207287 1.2451873962089275
Ge 4.6757801773712595 6.788544611858336 0.18964792736446281
Ge 8.570127021198845 3.0392887468205902 1.839587542026369
Ge 2.9593845592220696 0.22187128920378146 2.2926767359335596
Ge 5.326232201829616 9.485226621969888 2.51321556117328
Ge 9.966951244307925 5.222822727963562 2.388673179419121
Ge 0.7970417282670226 9.732365518442146 3.3861599866971117
Ge 2.8911431427152903 6.056967921878903 3.9982772528265884
Ge 7.314451763486783 6.716641380494403 1.0365714380930573
Ge 0.9870137374931159 2.7294383445166015 1.9412110283622466
Ge 5.181594505224247 7.386486029333977 2.7866507674192773
Ge 4.398663311344454 0.9250754498060408 4.515122764082249
Ge 7.25959973009295 5.796999276756074 3.56442920009228
Ge 7.160354931015941 0.6498365193106018 3.949309142740884
Ge 6.0796339404655795 3.2552733194854895 4.192593847534114
Ge 9.995196461860283 1.6364224440712973 3.6530275474795886
Ge 3.4767939483656516 8.509399107374067 4.3155280123774356
Ge 1.9432371022503763 7.435052257108889 5.990459571708754
Ge 3.671120502595529 3.8421890137756067 5.0536277502283244
Ge 1.9684289055814759 0.2723567766136395 5.4313624118075605
Ge 0.38007142165012014 5.434133376535642 4.870946831408229
Ge 10.103720058147793 6.476867086851314 7.056422992271455
Ge 1.2668841041789487 2.963846900381535 5.2211094943419445
Ge 4.124922817671458 5.942377148773985 6.633870964998064
Ge 6.2011153735227 0.9244439022898647 6.445251181272904
Ge 6.086682517880167 8.905002926596477 5.10166389454924
Ge 0.4424626433175126 3.9806503675887783 7.418144136795236
Ge 4.075729206064 9.762763538173928 6.743425489158797
Ge 2.063165718834782 5.970046232663217 8.341996786194217
Ge 3.1268650670593083 3.6240199998485707 7.676613356519639
