43
Energy = -173.45942223 eV
Ge 1.2755461768898237 4.909318693751143 0.7272109426351097
Ge 4.896454571943245 1.185101245285678 0.2150419535103171
Ge 7.6207156760891115 0.5772462892923662 0.40963692377889904
Ge 6.797267992651213 3.2346487757396196 0.5355368692612896
Ge 2.5833726496722185 7.095883269166064 1.4592279171563294
Ge 2.9969635821071443 2.9229985713306346 2.0257552101134357
Ge 5.02638216009487 4.630927466237642 2.006161656672721
Ge 5.126260110858006 6.959291607363231 0.9516567520243187
Ge 9.738576578560583 4.556387022884303 2.5185078383454655
Ge 5.75886501650595 9.326029748617039 1.4097931450050079
Ge 6.290446975461755 8.289513864917566 2.977193858353023
Ge 3.6180926675837473 0.2686466548815296 2.51356801133721
Ge 1.5903025804185345 8.03223950669233 3.917396261504623
Ge 10.345272307079986 7.12875712657983 1.7253510392976388
Ge 6.202703360794426 1.640294584605922 2.694595084538875
Ge 1.8906847666326414 5.493236124503054 3.3877862848587124
Ge 7.679558030807049 4.707413900462319 2.8183808380949587
Ge 8.90108272126765 2.2490539820585504 2.4854838774988206
Ge 8.08129220378111 10.004232257615522 2.8623803989292025
Ge 1.0802001211311751 3.2267713095138526 4.198202276164634
Ge 8.31629661117536 7.016890421159265 4.258043491350055
Ge 5.728749097806225 9.82460029334598 4.181889526613419
Ge 9.90320456223683 6.48929247586861 4.4261272603907456
Ge 8.13922567115508 3.191610193367248 4.99810384174914
Ge 5.617886271061637 4.152781571108375 4.584556162517831
Ge 6.123700393368792 1.5657880517545153 5.715582846158944
Ge 3.7196240748568266 2.1500505734505353 4.582035340564111
Ge 7.357741078111817 9.326029748617039 5.281745278076929
Ge 5.652707508773049 6.770681430805054 5.0377900160161335
Ge 3.964438094986998 4.375031764491683 6.7743452763677405
Ge 4.61790107264447 9.244267736348016 4.700574291566506
Ge 2.7334006882964674 2.020925081040172 7.036890436339141
Ge 2.6321017823201855 6.622843027686809 6.304125766856219
Ge 5.167102386819614 2.0949033758386757 8.070590091733704
Ge 0.7097400489681066 4.717290090313237 6.380242500573305
Ge 7.674301219073938 6.8160054810253685 6.8514014884735195
Ge 6.456094000987988 4.420780016318471 7.730260868135352
Ge 4.5967305507336125 5.735783400366984 9.077850490275756
Ge 3.2558996082894396 3.438144783758104 9.61480687342906
Ge 5.586202230239966 8.408600074830693 7.090529908502191
Ge 3.370844187985824 7.962691044196935 8.518690219350363
Ge 1.8279977467442006 5.619667365813636 8.76581174685016
Ge 0.7922232871492367 3.041502421111591 8.430790832199202
