45
Energy = -180.66254487 eV
Ge 8.762809516818425 2.805474841045106 7.201816484926614
Ge 6.572122388981163 2.0697662489659874 8.419949967388645
Ge 6.782823362578224 4.664393400247602 7.978018823911853
Ge 5.59011852056367 0.9254564858567981 1.395701235383089
Ge 6.160141629737301 1.0684404405475028 4.027902421910801
Ge 4.605029022092949 3.718226013182016 9.405598385598617
Ge 9.385686760465836 5.32807706798483 7.728252511605656
Ge 3.9906863752060584 9.947865168857328 3.0921542473229153
Ge 7.733979436357238 2.41191059245397 2.214680556812046
Ge 4.964909392785251 9.87832892146953 5.647379709198123
Ge 9.221460818402944 5.715627017213864 5.010586156845989
Ge 5.258676390645975 4.1301983719282775 6.008289874442977
Ge 7.596995814551028 6.970501511022553 9.032305178616273
Ge 3.2960492144164864 2.2217966238304374 0.6831681836762074
Ge 4.903914248888882 6.479741555791447 9.412012681196773
Ge 7.533637437195544 3.491435388283435 4.929670019083146
Ge 2.4006611185813314 0.22133835513420105 5.069046081088341
Ge 4.537021900193923 1.719420712337205 6.7379381650872725
Ge 5.527696298343131 3.6891514644809016 1.128021760633431
Ge 5.11227258236133 4.9848904712126725 3.5430403852276022
Ge 8.759312436994815 8.003580776176719 6.71875127699581
Ge 1.6357380615290171 1.028488110086467 2.6878262153962478
Ge 7.638774594654135 5.144657567570293 2.7574055397518644
Ge 3.442132145303977 5.130932064399128 7.475167652195948
Ge 8.694880685119607 7.894633356535499 3.555897140366635
Ge 6.608317300032374 6.988973904761868 5.2015285547930015
Ge 3.9035891398351716 2.3344965333038425 3.3673559505432857
Ge 0.011384719552360471 2.9220430179102577 4.017746947694291
Ge 5.5732505128890715 6.786352325925067 1.4658223895617697
Ge 3.6282534295843822 7.7810345315882925 7.411532144888493
Ge 1.7163642548927693 6.594722842831141 5.846905282708956
Ge 2.0496761429279085 1.78115342251436 7.094538563919711
Ge 0.18474273756125023 3.6232898908880915 1.3110238148787967
Ge 2.030085576433243 4.699759486542761 3.8552002511279424
Ge 6.237306635528738 8.72844539554722 7.389227091871188
Ge 6.253311688948967 8.830621128205948 3.0518909968727512
Ge 7.4220301466983765 9.87832892146953 5.190730497719718
Ge 2.5717224982784552 4.780573071300851 1.3176423280190022
Ge 3.912342313089517 7.331167652549221 3.5635442490024283
Ge 1.0735478468414792 4.056676334646245 6.260319521468272
Ge 9.876438808910079 5.407579568999166 3.1641818017014023
Ge 4.568270069409274 9.35640272396189 5.245921479363797
Ge 2.8981988526353013 7.3558130437777445 0.9591682470981132
Ge 1.1293527205227787 7.438251758032432 3.185802321450491
Ge 0.29035039997732154 6.253029890822903 0.7584208330969344
