5
Energy = -15.28683218 eV
Ge 8.244644996842219 9.487233905492465 7.919448151010334
Ge 6.840460639616543 7.730782264005221 7.021986999950752
Ge 5.764633168890446 9.257992895909357 8.600547376036578
Ge 6.731915314973106 5.480064747138428 6.413938824162254
Ge 8.111374383817108 3.7370527796245927 5.737166580010404
