52
Energy = -210.68468789 eV
Ge 9.903116311958698 3.4845751899021318 3.617291552387986
Ge 7.189465708872528 2.984438772808931 0.24021286551165294
Ge 7.908247775551257 2.2686033496811704 2.5608306589373857
Ge 9.006900536454797 5.652113707630846 2.5683218489094464
Ge 7.758788186152468 5.911201178892167 0.33079284403627446
Ge 9.510602747821453 7.702086204391891 6.679624865153205
Ge 8.455815964096313 3.637776807927831 5.76820094654114
Ge 6.550483235165207 0.31426402904090045 1.5903767507532873
Ge 7.481243305825412 1.2005386425440696 6.111292859755685
Ge 8.554986780195541 7.435780814173455 4.328827741950111
Ge 9.553429007949163 5.138692165586009 7.5948477031028085
Ge 6.542543167505866 4.63826099799389 2.381262485661566
Ge 4.7630743853329784 1.6568792427640933 0.09123728524939767
Ge 5.807205432921682 1.0530007857340362 4.050129348221404
Ge 7.604960875555966 6.332617885978117 8.884446370641797
Ge 4.658931196021137 4.1746624057289985 0.7436125642848983
Ge 6.132016247745366 7.606048588156249 1.5100944068097584
Ge 3.7525956691150495 8.095816874786633 0.816041792345104
Ge 7.239248466242564 8.592466092452526 7.75993591720283
Ge 2.4241111848082384 4.48507348928281 2.6459264149168886
Ge 7.261028700974064 6.184015247910938 6.224564735651053
Ge 6.05730734814671 3.535817790414566 4.656907869499041
Ge 7.248268935751129 3.1398917116152427 8.399433463359644
Ge 6.999463826581871 9.138807479600173 3.2689670225620997
Ge 3.541111426376631 2.100876790705114 2.398020862722826
Ge 5.922166667321951 0.725441586460336 8.158568344184264
Ge 5.446988126920804 2.248290069661893 10.30816727730864
Ge 1.861053263627179 0.07485816797900377 2.2494859552922404
Ge 3.139329674872787 0.4446269291731696 4.536957919748583
Ge 3.2794134236173513 10.32106049848123 2.3602417160196008
Ge 5.286987458004048 4.844249475464654 7.463551702868575
Ge 5.245963076572165 7.1010356402351675 4.201387699980565
Ge 3.635233914216601 4.628096427696753 4.921094396473634
Ge 4.861284809416651 9.92533131646693 4.43648784837316
Ge 0.7769209511991677 2.460667872120644 1.7462452117008416
Ge 2.6536841155194906 5.74450771597252 0.3655065117797838
Ge 4.126088923933722 2.4394833412953 7.5995618766613005
Ge 5.7678811679105095 4.9953325261082675 10.19755077444658
Ge 4.812443273399191 8.346735413678447 6.507688981986561
Ge 2.9475149142949086 7.788843544488189 3.231394189637957
Ge 3.9344586576683462 6.616128291364563 8.73909024132014
Ge 2.131824852066735 2.6416961217164783 5.633629127329424
Ge 3.3051731587135196 3.7207980932073825 9.768614623300357
Ge 0.34845275718955443 1.218183666210931 4.129890587545527
Ge 2.1527978145548374 6.224699851914913 6.3130214164595735
Ge 1.8525620548560475 10.066567854269127 4.571442951536464
Ge 0.214586112203695 3.869200644054383 3.9457104322693834
Ge 1.3625969807483416 2.6018108815977627 8.261007793245264
Ge 0.8036574496922875 7.697968609369434 4.578153427339364
Ge 1.5386201053278954 5.444758278437354 8.886602394669916
Ge 2.2130889067896247 8.78720982188659 6.8576345842554405
Ge 0.22094439180280065 4.430610664308569 6.719048323265707
