5
Energy = -18.50938957 eV
Ge 6.433119981933424 6.97823149583877 4.517796274107846
Ge 5.010227773777549 4.963192591962978 4.468143865493229
Ge 6.65962887844192 4.1160045631704465 6.094261951063859
Ge 3.9899059496096676 5.988680082065464 6.4666643252458025
Ge 6.374432178516876 6.421206029241896 6.920448346368929
