54
Energy = -217.89699052 eV
Ge 9.82292495462315 7.625706792657457 3.5687245755190116
Ge 8.792465887731563 7.641604672611101 0.8714837079238967
Ge 4.889246967643026 9.086860776696472 2.827550944206895
Ge 7.553414063290139 9.164951120589487 8.849731234228342
Ge 3.2036145815852066 7.181136126516048 2.7292564312921836
Ge 7.689754012350563 9.256453262171396 2.959294693184414
Ge 7.872558435786672 10.07239982582778 5.379918391554201
Ge 8.904179978448052 8.21165870411711 6.823276229190091
Ge 10.301985962034703 5.603179894611701 1.8936453525169203
Ge 10.367857943109486 6.374180559190975 5.871943107823894
Ge 6.201953677443458 6.983122649930238 0.8584286918293133
Ge 5.834475451965799 9.626945526253035 6.895201609189813
Ge 7.685194381115782 6.1215226473479225 3.0010299877555315
Ge 0.8227138089989845 6.9690015814696675 3.5371934606271616
Ge 3.5603953423548114 5.495249386348911 5.206107011334515
Ge 0.9204475676551229 4.393892556181404 2.1711513654374412
Ge 8.155161431653283 4.954871410085537 0.3398308607454011
Ge 3.8255241222951355 9.851912884933553 5.24752687209417
Ge 2.959571063853037 5.497364505875391 0.8830900601006847
Ge 7.402034368129147 6.6366927148390875 8.60761269687027
Ge 6.058287136529714 7.919099338683856 4.92012577082
Ge 1.2327894428903334 9.028334016617574 5.532599933586607
Ge 7.543766393061435 5.885035363425989 6.0522639310978255
Ge 8.690707689628237 3.755843101364343 3.089658239872302
Ge 0.639575193414166 8.130226149798048 7.9822087519390115
Ge 5.248177238467398 4.672018656568241 10.99919547291178
Ge 5.022091179171515 5.111523035320328 2.6934965392231733
Ge 9.283190388620769 3.933963866155114 5.956476692869721
Ge 8.930598303115557 4.520148722180863 8.511476460206786
Ge 3.243079695715832 2.8777823513016423 2.743564771784476
Ge 6.5675022079704934 3.133005681534604 1.7767625748288904
Ge 6.771132374222016 3.11267100360786 7.311180717272747
Ge 5.5504332050919984 5.710430261794124 10.140843159905854
Ge 2.9964505215906727 7.795457772174261 9.233046246362694
Ge 3.2247973221850548 7.63830835041979 6.708374381232529
Ge 4.7054370414844895 2.5765530625172284 5.156181570417967
Ge 0.8486145676732559 6.309098694316441 6.125948633522126
Ge 0.723405431611793 1.7956267860207862 2.695360193991174
Ge 4.890187863354906 1.220454053845732 1.2608799442050047
Ge 1.3151113896085103 4.025649705117666 4.8320554827965445
Ge 5.0788694776581655 5.095321042454609 7.513804605802439
Ge 6.985464772155356 3.4402196911820204 9.995525278913602
Ge 3.1212346980717984 5.8666972242567486 10.99919547291178
Ge 2.1966571561651733 1.3005039293967855 4.928497511342621
Ge 2.7190165456604785 0.07139481509305819 2.5400847265310853
Ge 2.6229193771514177 3.935466719539594 7.39177255960479
Ge 6.483872826988901 1.0220165373410295 3.843543507398428
Ge 6.093673814421025 0.6247123572176654 6.982791784334581
Ge 1.2946883166205367 5.558315382086852 8.983723053376899
Ge 4.016904631902339 3.569090337632 9.585208075408579
Ge 5.193308317460987 10.095356310496884 2.6384543802597804
Ge 4.377775452252508 10.720329213687695 5.101539183473294
Ge 5.518663155354673 1.372748179034638 9.472155915745132
Ge 3.355830003096856 1.3964330077719729 7.374529791211526
