50
Energy = -202.31723496 eV
Ge 5.255543113623521 0.5565295515872933 2.534250213064339
Ge 2.6045710398757476 2.631496207487567 0.25739208331924696
Ge 5.115293313123149 3.4593606234477985 10.40213844350037
Ge 2.3989285328890935 0.5038359769758058 5.1404797469581185
Ge 0.4908198885061979 2.9396514259985103 2.377305969467254
Ge 6.597315563865099 0.8820276661370142 4.6681857703607195
Ge 2.826222422472433 1.4725635791894092 2.7269203245812244
Ge 0.9870810328216001 4.720332011064098 0.3933797175199787
Ge 6.846260416543889 2.1095270913479616 1.1557163889161561
Ge 8.647135155871027 1.8332901934943406 3.3178031318457797
Ge 3.0443109458889994 6.52825118380813 0.06646723003173914
Ge 5.943237638202724 4.306082992345048 2.3915716202710398
Ge 4.402345918480429 2.5957258562120384 4.4540110755064735
Ge 8.687526421501847 4.0983315876663955 1.7206916191388224
Ge 3.143854537641953 4.449322876827618 2.174923520609661
Ge 4.471798725652746 0.9013114422620899 6.604642775030213
Ge 0.9398558659830721 5.588222772667754 2.997897312415038
Ge 5.622206425030205 5.928547428511261 10.38206626782874
Ge 6.780492100045191 10.365232321916245 6.956243089241568
Ge 1.5692947301955433 2.801240470416511 6.011773799838315
Ge 9.63505193506652 4.03908762258947 4.405691373276933
Ge 10.221499242295266 4.028757333687405 4.687360617665993
Ge 7.270680672158353 3.514906125564538 5.446868679620447
Ge 1.8793620545819165 8.784800874526224 1.1303213755652157
Ge 9.551663599148696 3.5675776540259516 7.152144659549601
Ge 7.930132242791118 6.138945001293347 4.249441154929581
Ge 7.422848406798539 6.388886950983935 1.6880518677434848
Ge 3.919301150455375 7.336882448883455 2.404984726865295
Ge 7.355322172724509 2.255492279124645 7.755659578768239
Ge 4.510209027270323 9.241095681582173 0.45869697740099574
Ge 1.4996510967705277 5.9664039740544945 5.896416906308581
Ge 3.611785805495379 4.535106477415859 6.189557606173398
Ge 1.6761132281624347 8.298538130996116 3.7563713568745096
Ge 1.3437420254231744 2.035258829735674 8.534876766456078
Ge 0.3105737485943177 4.409355095916632 7.909075804950577
Ge 5.8448512005363 5.7378881689073875 5.955412313723708
Ge 8.2107869590649 5.111316241198496 9.95429614060795
Ge 3.4762905061204634 10.365232321916245 2.66441934132763
Ge 3.921041290086691 2.9275444147675156 8.142075435359368
Ge 8.303564654833146 5.782023706061315 7.422113819998988
Ge 5.839067210679696 5.472031154399453 8.652140680496593
Ge 5.935572345117709 9.05473576262005 2.6526384635279436
Ge 8.340748745359498 8.066140851167216 6.302144620767988
Ge 4.153157126760704 8.737767859070173 4.647635762900865
Ge 2.362872557982727 6.165332841838889 8.336156928294999
Ge 6.055050920334692 3.1737618812600696 9.756188647025121
Ge 2.309240130684473 4.083625648253195 9.887043729236654
Ge 5.7433698275587695 8.192911792515131 6.660403203973847
Ge 7.503173796852539 7.541421044394811 9.30933573328844
Ge 4.644722938260942 7.712800017770182 8.951894484371364
