5
Energy = -17.50161238 eV
Ge 5.662542096649775 7.209581865142016 6.3665212059114875
Ge 7.531444847325754 5.4314834389956435 5.723000245678876
Ge 5.478849714543557 6.665768731962655 3.940448038487413
Ge 5.036312178396135 4.623908808904885 5.302903016088411
Ge 5.391899589474236 5.128317526488737 7.7276909014560635
