55
Energy = -222.87743774 eV
Ge 2.725336937521624 8.964630286653113 7.645488292173791
Ge 4.97583662328545 9.679691517390435 6.154756223598183
Ge 5.383174944055122 8.245088211413613 8.387010169273756
Ge 5.863453788114566 6.252679706328601 10.03165258000607
Ge 3.175300714550822 6.727478836231625 9.194851100393896
Ge 6.834872646398003 7.7861993159447405 5.76683206581406
Ge 7.696392464066997 6.5090824281994415 8.02564364602468
Ge 1.0146758920943408 6.898763153402729 6.951532976223084
Ge 2.578933918578968 8.202935265931888 5.118581058217127
Ge 4.06589604827964 9.804409178929333 3.40211277580623
Ge 4.808808597915889 6.99372638712845 4.507713256455018
Ge 8.13951218927194 8.420299588376514 3.5142310764102924
Ge 4.041839688311142 4.063989808572803 9.37941748364301
Ge 9.688810597269633 4.754034876196581 5.209458647751757
Ge 5.157657340128659 5.71425884569083 7.215693912814766
Ge 0.5553476114585807 6.277818543678965 4.244374534633982
Ge 12.12117903841593 4.058390566897794 7.324358056385434
Ge 6.7195213934931735 4.0503763616847674 8.585504593976518
Ge 2.451624270033877 4.691242863556564 7.123699527279906
Ge 8.393789535212449 5.9201950833692765 3.2600437661005
Ge 7.2962421607425805 3.7379367738058913 4.4219772870529335
Ge 1.52898905447951 9.14778884795043 2.871121949589943
Ge 9.52832680961396 2.236165412994137 4.665673340488125
Ge 5.809593439535684 8.176132957515286 2.380139515498644
Ge 3.001348711024005 5.1357342415256655 4.550141288004292
Ge 4.6453743152997635 5.9721944501312265 1.7805335300926113
Ge 3.339571666750691 8.492908409250516 1.0404499919287948
Ge 2.013343414026287 6.431115178964038 2.011230430122547
Ge 3.6108621252120443 2.2015576873767166 7.471781828771142
Ge 1.2318836447853159 2.01219859539383 6.507034905236697
Ge 11.906906473726993 3.8539177933996416 4.757012190811611
Ge 5.897977845904146 2.730334124422152 6.405170251594902
Ge 4.017934413681562 3.0371441360127656 3.1719700210911412
Ge 1.6325472078739554 2.2356565856789943 3.8376331130531667
Ge 9.935420501038905 3.9106781196430074 2.5270265719759153
Ge 7.074425029782071 4.318785932697426 1.6943881055725656
Ge 7.965823633403343 2.004387837400415 2.525207820489488
Ge 0.7666371585459273 12.16510631845336 4.939395740978359
Ge 7.043416391942857 0.24973058460415104 5.84083391618986
Ge 4.5908220034661875 12.005971674023458 6.8274516906934215
Ge 11.805606439736675 2.8999959455332873 2.3409042451078044
Ge 3.860660550170532 5.410499901250083 11.402878625100122
Ge 1.2584162940902552 5.027599269950785 12.034603142027004
Ge 3.2313104554513132 3.3105394934063126 0.6511962357189178
Ge 0.34793130255067345 0.38237378088601487 2.3949194445940063
Ge 4.914681866988364 0.7577356207502077 4.252392115001733
Ge 5.002942030251808 3.0103924187240025 10.968293262549688
Ge 5.613671248904002 10.143927887278911 5.147914042110234
Ge 3.1270743506563914 11.135874064673239 4.803422050591536
Ge 7.004119242752262 11.66706087323913 3.200134619398732
Ge 2.452326070794598 3.4185631395906957 10.031652580006067
Ge 0.8789374978790719 2.2957229712781864 12.019157660425728
Ge 2.9014700248828538 0.6194195938120655 1.6808014795151776
Ge 3.1939789272733377 1.1133911138012127 11.326041819064194
Ge 4.525525407177348 10.866288927618726 2.6066809351846696
