5
Energy = -15.55094527 eV
Ge 9.347826217703794 8.525289958892019 7.188950640382822
Ge 7.14557350757212 7.834726192240881 7.67750748136411
Ge 7.084983702528498 4.550345568441013 4.902071590221778
Ge 5.928043219237439 5.9796726492701415 6.377047263881557
Ge 4.7764727246309135 7.3432250999349655 8.051150480719746
