54
Energy = -217.57817144 eV
Ge 11.594351968320703 3.5046975092342514 4.374364440742947
Ge 9.31179928239299 6.865942729157491 1.3471753953944576
Ge 6.5021819731934825 3.750734224064825 1.736448989185005
Ge 0.5283574174779343 10.818946436985192 6.0895203460477125
Ge 6.622037773311404 7.91141671977659 6.098508655094966
Ge 8.760978385209828 8.740215744505432 7.6187552880527205
Ge 2.521177546629032 9.207132419636148 5.451579042616288
Ge 4.444928764896212 11.072425730146083 4.987194157212395
Ge 4.37315070284673 2.226594098366077 0.9796140373610154
Ge 5.973842234334853 8.193357206100561 8.663163069435807
Ge 3.657068407462857 4.208396807670043 2.6631204939244104
Ge 4.728898814935784 3.1214003089491578 8.264442625887877
Ge 9.813837436099142 11.162280460108704 4.230565188617308
Ge 1.1768959654989772 4.8035623713911795 3.156680452086167
Ge 10.387330368679534 4.435712270061201 9.308690083332618
Ge 2.7538410477750097 7.784127715675925 8.819694266108474
Ge 2.2399668097476604 3.4655921426891734 7.341767968848681
Ge 10.120546918836478 1.9548470128493967 8.050056178849484
Ge 2.3922260231655272 6.740353442274671 4.67833726113933
Ge 6.845502832796346 6.276045404608536 2.4262943099129135
Ge 9.33082536529805 3.967018311520388 1.1803018179881473
Ge 4.115460476166945 5.1713950599996785 10.510859906432607
Ge 1.8836282607272827 2.4003818444236544 1.7144365488897626
Ge 8.46934261705838 9.285594374086045 3.1312570105160806
Ge 8.347047723601937 2.6573316929650166 9.819821195616615
Ge 4.498552201563621 9.879157415843588 7.238744355506531
Ge 8.593006489022084 6.865658366605261 4.511924235446286
Ge 9.178037513345247 2.7618472089582977 3.454231525149894
Ge 5.9981158404532895 9.304920300323259 4.0260155467601235
Ge 10.261694688547605 5.3800152206053165 3.340637329246018
Ge 7.912384977889233 10.506857284728612 5.800578013823228
Ge 2.0973897253306752 11.439873617785246 4.125186709438916
Ge 4.452156635833143 3.1536953664525407 5.069702999471569
Ge 1.8354298638122748 2.745076538414912 4.565155894634755
Ge 7.5444212081744 5.4275590163674785 11.234699654499552
Ge 3.657793955336105 1.099680000109316 3.3203199292105854
Ge 7.661287115174537 5.132068189707601 9.357328231417164
Ge 7.222595453006568 4.30197529433226 4.294740163703219
Ge 2.599311181946588 2.819356669074929 10.212594229201608
Ge 5.067643625973766 2.831693002434497 10.838514501218322
Ge 10.17939274827289 8.908912153757205 5.395644790053138
Ge 6.313356786512871 1.6569988978931227 3.6511616019724062
Ge 6.0473372498072235 1.7008260674027071 6.488554688708258
Ge 5.1311962608385695 5.784666888626014 8.000144475079134
Ge 2.037836425880934 10.056813999565039 7.976591740657443
Ge 4.563373089621708 7.196692078301138 3.1816435105077288
Ge 2.590688972052272 5.97665648778209 7.102087644765915
Ge 2.41543059272863 6.882219823938 11.234699654499552
Ge 7.916551788860327 3.3706085470065648 7.247194773409291
Ge 0.3452588316349281 2.9771877745002944 9.07013342620656
Ge 1.271168186756443 5.259058461620906 9.673415272386645
Ge 5.030621960522775 5.616127584437873 5.343430291716697
Ge 10.458376554148908 4.027863253842949 6.593874984574379
Ge 8.986711490243039 5.9868077729591915 7.327588994252003
