50
Energy = -201.93694935 eV
Ge 3.9824698197620325 5.553002746247536 9.813773495779008
Ge 3.1355205078017723 3.445544333207444 8.162805203515585
Ge 5.94886371891273 2.3807974897509507 6.773051436109336
Ge 3.2243652029948557 0.14231580634969324 7.135327867057412
Ge 2.7628370376964586 7.983941680270877 9.952756874924182
Ge 5.336412110801973 7.960542949562118 9.15268363909539
Ge 3.558227476366825 9.458513877572054 5.449163022741342
Ge 7.3546948467751205 5.151360352033835 8.979396323104352
Ge 3.751101628368349 6.629250359361435 7.36095197138722
Ge 1.2613274665034642 10.901394418524863 5.1727184088376745
Ge 5.673622961239151 11.103290088388725 5.890440807065317
Ge 3.7528097591927305 9.458513877572052 7.503787437212787
Ge 1.5061396913414626 5.797147052794479 8.771996057494446
Ge 7.906576220809847 7.673554530703382 8.466213245571678
Ge 0.9518063932523475 3.954325418817356 6.6862314578175095
Ge 8.45922221813339 1.6168731043878726 5.997575959981497
Ge 3.752304222743819 4.443885716715782 5.783036592332308
Ge 4.663824164853083 1.744458790773735 4.498847048820568
Ge 8.912265006362798 3.8888652821755163 7.215917258659373
Ge 1.4543646567712174 8.099001466528744 7.466455859728844
Ge 2.5245496881913283 9.861370535581333 3.0016885070276285
Ge 6.453325060546716 1.4575910025586416 2.3016557245204115
Ge 6.343201650310383 9.414413756776634 6.690766109931321
Ge 5.061105824022817 10.668337202816412 3.341739616791612
Ge 6.831760123742549 5.877707586234949 6.537657110176097
Ge 8.814356401176097 2.0865569827851593 3.3684063292070445
Ge 8.459601677137739 7.846048881208017 5.8239902218917
Ge 1.6406162468062162 5.360906240819984 4.628876894943119
Ge 7.3452645113724335 3.784302224818942 4.825998241945947
Ge 2.493514152915907 1.029070804290185 3.0737174567753027
Ge 6.798252993836527 4.047899709659722 0.8332075610679461
Ge 9.525059304603918 5.533736856661681 5.405438416693592
Ge 4.3791342770222315 8.565088082972158 4.873768399597543
Ge 4.869322478803623 2.2523399254052516 0.34147386910634336
Ge 2.207469597585946 1.9481686127002829 5.535041175343512
Ge 1.7938031954394802 7.8792280915500985 4.7420006234034044
Ge 5.1809318434967775 6.271845108072914 4.033388037330859
Ge 4.981237460868952 3.7911234262171387 2.772761566219486
Ge 6.979763965199463 9.033254669761352 3.9189881645908344
Ge 9.042418040453846 4.7640452603891115 2.9463439334265495
Ge 7.256533267559778 6.765155503823436 2.5848355470262603
Ge 0.9667217000141366 5.306930770068217 2.190509771654656
Ge 3.714047338236263 9.134199362743104 2.3388453019070785
Ge 2.7024812173235833 3.275589116433688 1.6999749483084126
Ge 4.30398819028011 5.063656481400299 11.263677514046169
Ge 3.3802332781208815 6.438465865964413 2.1372785601528164
Ge 6.618670746316378 6.583448578432848 11.306310775186677
Ge 6.1039451360458115 8.89241627918034 1.0906394498869407
Ge 1.2582164619930354 8.19027641572757 2.1905039375992277
Ge 4.08549970414569 7.691940270013925 11.194590034880692
