51
Energy = -206.31528305 eV
Ge 10.252969221510183 3.344707313925038 0.1460407153506949
Ge 2.252368575562663 3.178950111306354 10.252947763334223
Ge 3.5135430963856513 5.491387203924457 10.153139189371009
Ge 0.7214162686407308 5.582665449306259 9.823648475642175
Ge 5.611565206834125 4.569340679977492 1.076954099191751
Ge 8.389751899189474 5.371587019700416 1.6517971338254407
Ge 4.713545356899728 1.8849886231499573 0.9261027468794978
Ge 5.419111521268335 8.727994826518524 2.666482550021614
Ge 1.1915024489877701 2.5949307937114328 2.1192718724690502
Ge 7.452129030931073 2.560230757821495 1.2861343464678487
Ge 0.04222466330488632 5.266152883788107 1.8528214609795388
Ge 2.75513780264865 8.180552053506732 3.4951567773194077
Ge 3.044718414976179 4.449918165429593 1.9631557905341779
Ge 2.0481493642933732 6.8215646336326206 1.2243363556749256
Ge 9.382638695494386 3.7455502106110603 3.5238419365539273
Ge 8.007244525330005 7.674639518955305 2.8498812115661236
Ge 8.332204576796238 1.2554323754766272 4.0621225808977295
Ge 3.145019404810171 5.840055737927078 4.568487614366915
Ge 6.538507643792419 0.059494806845436204 1.7238688183457274
Ge 5.992743628683782 2.259978194425687 3.442328965784046
Ge 0.9293053117426977 4.336066829590368 4.359173594317677
Ge 4.095112858323282 0.3542887339667008 2.9658861253721036
Ge 5.443617361012435 9.181945568760781 5.197342928349461
Ge 5.410857055417968 6.162063252271076 3.1713797131999852
Ge 1.9690265476124877 1.3737008989711768 4.614796063948773
Ge 10.600216961754477 6.802228713023459 4.19591384857202
Ge 7.500654830466927 5.40690636823214 4.316860254245098
Ge 7.231811614000546 8.378256838201612 6.770155510774668
Ge 6.083466178921542 10.402382688318347 4.614688292407986
Ge 5.552966779094339 2.866280352997442 6.812691713398005
Ge 3.8916629485302927 3.153343572136929 4.700605209829956
Ge 4.0030052447204545 0.6604161127787734 6.413592869492827
Ge 9.702379512548395 4.9955843156569975 5.865347188173353
Ge 1.1141930573266947 9.194906247756144 5.276159253408172
Ge 0.7978594507965355 2.9249669601631614 6.6220670962953925
Ge 4.779641809151802 6.978570185180255 6.490855677950003
Ge 9.06551422688675 7.4527259720520975 5.208365206234325
Ge 10.220532886891183 5.233096937681089 6.466849249516526
Ge 8.030871406030068 2.1530576820561467 6.6836272393974365
Ge 1.430843723650895 7.10410524825245 6.8424691949006515
Ge 3.3586283998799256 9.430952833080937 6.621445044457676
Ge 6.900355118969423 5.432692906179766 7.116778795340977
Ge 6.382530397522936 0.16523251796558727 7.543498529106441
Ge 4.343547055576821 1.4694107428246859 8.939426388698703
Ge 2.5575606685347765 4.788272624784757 7.071804968556679
Ge 3.5020332297154484 7.827703421739472 8.635123632708662
Ge 9.048612487211505 4.041338214497437 8.224972347873514
Ge 6.185145369075311 7.618450392954051 8.934294870995712
Ge 6.908683948153194 2.294950555717025 9.310996096647152
Ge 4.720536655829865 4.107622990383846 9.016259435522585
Ge 7.067930778221809 5.163106024227715 9.823648475642175
