52
Energy = -209.6245689 eV
Ge 7.069987468742851 7.207335469068535 0.7508162245388319
Ge 3.691342655643331 6.016025222935009 11.516698163506735
Ge 3.0032750272916773 8.389838412054162 0.5504227701862393
Ge 4.268282347027071 2.5389659618565146 11.63701515791871
Ge 1.5748243168509368 2.133033154624502 11.74436302640096
Ge 5.802474605332279 0.6936149257930974 0.8462705386173576
Ge 6.058376382987254 4.852946385626849 11.70984491323218
Ge 3.107538390718916 0.164053144048089 1.090775159698635
Ge 1.3251168733612013 5.0391015186021075 0.005396052462041284
Ge 8.876341944748253 5.6195846939289655 1.7487228895140359
Ge 5.496773812553899 9.396035047980442 1.2334816808185336
Ge 0.7716977991385645 7.208245979385764 1.428560603272957
Ge 0.9357399769752446 0.9128200485119624 2.4819853466833304
Ge 7.722380139226903 3.1987279898811485 1.2587831795736655
Ge 5.310904495356428 7.627029898639068 3.37178761859316
Ge 4.913804290510859 11.414233307857401 3.134471067993319
Ge 3.1123678537492574 6.257425640951944 2.319543098676187
Ge 3.2994336069507666 9.558588321505953 3.2083867033182027
Ge 0.08067656915220947 3.3138072336302447 1.8421070611782608
Ge 7.734773749615832 8.94701479561633 2.873552193496366
Ge 2.986099885527719 3.6638967146535757 1.8238817243663379
Ge 5.480916311917605 2.460677502918929 2.763951846754593
Ge 7.184104431916147 0.34076221992740346 4.492163469967223
Ge 3.076067542936735 1.239677283641844 4.021760376054262
Ge 0.8529289125396745 6.36090711915091 3.8949293251060455
Ge 6.22415079634589 5.125045270428498 2.510986368539463
Ge 1.511462546476184 3.439525702874551 4.093672620736121
Ge 5.644401360726356 10.61179891436281 3.6771111613615615
Ge 2.2004747194664462 8.109739515644216 5.244664550048429
Ge 8.194881891455216 2.7243979959282494 4.106759724988071
Ge 4.948100652817022 9.177279617020428 5.80015142569488
Ge 7.234164643951591 7.884075572205782 5.242591035160491
Ge 3.437247024317877 11.428403581410837 6.175384667433236
Ge 3.0451154319011717 5.45030783869595 5.362483388624211
Ge 8.166701859588368 5.57450865396246 4.242487050841631
Ge 0.7631566009981314 0.26983383579875425 5.6941608632829075
Ge 5.694672591928848 2.432922452602202 5.585172884127386
Ge 6.116705829139579 0.08353906061148778 6.879068478651174
Ge 5.416096067394586 5.9660454678978505 6.207156758869802
Ge 2.8516284579326823 2.33102214817986 6.790257547284455
Ge 0.2773548953087393 2.867552356242438 6.412771612492425
Ge 1.418111439652413 5.121863607444731 7.448445424200239
Ge 8.453057287706 1.718126988217199 6.640661604238623
Ge 3.5389108573360857 7.563167264813443 7.355498824492379
Ge 7.515179324957464 4.220878823328673 6.557150720165385
Ge 1.476668919168089 10.61179891436281 7.785134542797109
Ge 4.35467472806689 4.120087037167204 8.083048973877856
Ge 2.718557462491357 5.005311832205749 9.745455998733688
Ge 3.4371873736858363 0.5302574056747247 8.757819413517726
Ge 0.4669573842499405 1.1204777989525636 8.431977879197673
Ge 6.346535803462909 2.2589414076642127 8.355024317792694
Ge 2.1560283058698553 2.5158344003396884 9.70654936430303
