54
Energy = -218.48382013 eV
Ge 3.0447010246632926 3.7796614077942237 10.14860227655634
Ge 6.291200256324781 2.915659349845833 10.977415199455503
Ge 4.559236151356734 1.6572828648646345 9.239760038619025
Ge 0.4944696878001943 3.560872081817804 9.357058812715822
Ge 1.6421670159453614 1.3121076008321249 9.81600001431957
Ge 3.382079255846909 10.574884869546429 10.120943470809072
Ge 0.24501474881112112 6.740600124340755 0.48857789690737463
Ge 6.284184049480098 6.037253793391205 10.886142825259345
Ge 5.522420013706143 0.2635099454913771 0.17813444932181272
Ge 3.331814085350721 10.234453818049317 1.5020840699867903
Ge 1.0375980511232004 4.260007756759205 0.6433289419350088
Ge 3.3562155456701386 1.657030170408189 0.694217838826808
Ge 4.252466334689754 6.83592900130116 1.045513817276004
Ge 10.432688269558321 2.3236008780235413 0.13605975181999783
Ge 0.9517702699096622 0.21329197772285477 0.9333849416762305
Ge 0.9609480194712277 2.3803445254368603 2.4716426749681086
Ge 9.407899125553243 5.129147442162006 1.1684877361227655
Ge 6.779737714428194 7.865119524045565 1.492602233238173
Ge 2.1285505182975863 8.175385772285725 1.7419934182452455
Ge 7.329225451715723 1.4823788949594299 2.9626591758882888
Ge 8.466907072667784 2.928210412880707 1.1740953920137098
Ge 4.7964643433373935 4.332921658553523 1.2655739368675853
Ge 1.7159866306228195 5.876852139336261 3.0604872770973977
Ge 10.376391532646311 7.166499137691209 2.8470897658757828
Ge 7.366620626403439 5.2114581865857925 1.9585397774261435
Ge 9.498583552660362 2.8520134613985135 2.6955811352198853
Ge 3.2450635747961014 3.5106952937687885 3.4020976987458535
Ge 10.97191269952978 0.05890427359752547 3.916192483539013
Ge 7.291905307318768 2.5306758311308206 5.397650065922101
Ge 1.6624116412356857 9.464578054041548 4.069995046916451
Ge 7.943671170028994 11.23458589240662 5.127907109137106
Ge 4.917630286061133 7.348582536663256 3.559176252119336
Ge 5.916185693677441 10.583155798390408 3.0330079806998653
Ge 11.227531699961808 3.7617214652234114 4.579232195482445
Ge 5.62511355636502 4.908879092565809 3.970897651401875
Ge 2.1613299700726007 0.6069792349235571 5.027274815002261
Ge 2.5546706829638044 8.103140674616606 4.432480835747299
Ge 4.955290214348706 1.4975872497107696 4.383154037525821
Ge 0.11322893051253602 6.359772512080403 5.169490444562808
Ge 8.96663305243858 5.145140632765343 3.8898935032511956
Ge 7.512950463797889 7.006431427039319 3.962541966881229
Ge 11.147547318406383 1.5453019900682452 6.189144173931085
Ge 7.561460672806808 5.003691029950225 5.946254441931355
Ge 3.004353859806262 4.024603431635208 5.9059436074038345
Ge 0.16928841954826895 10.137491281183916 6.276182783474844
Ge 5.901920975647325 1.1809079369262574 7.036536139194543
Ge 2.854250394883035 9.638080199807929 6.502076475813058
Ge 5.433500160341436 10.347520163517782 5.599989286954965
Ge 3.1835572854109575 6.5490432568814905 6.786713489559795
Ge 1.544512585228178 4.746803160045692 7.897649339137979
Ge 5.207747672358402 4.976656150936131 7.022870516984711
Ge 1.9135763241114638 0.5704331133703808 7.68511408093802
Ge 3.7409449657483993 2.676800349769251 7.903588659837311
Ge 3.8014935972239297 4.900383694128327 9.239760038619025
