54
Energy = -216.39498276 eV
Ge 0.7136991284317574 8.056727592848238 4.305589261840266
Ge 6.50421835206891 2.8245330592688793 7.5021908991823425
Ge 9.197811800046816 4.99278762724191 9.328203709146106
Ge 4.948833666875874 1.183483233981254 6.109812393966038
Ge 3.5067425677064663 7.630507525978654 9.964037355137803
Ge 1.0726120892150453 2.723035004081721 7.671236495958147
Ge 7.910004547040175 7.034472146461588 8.679109680848196
Ge 7.023594863292516 4.176174345583022 2.221661625067024
Ge 4.492126924789998 4.036016797007329 2.8623218231672016
Ge 8.945319513023218 9.161536990110982 7.709803060221024
Ge 5.130948530592504 10.028385833770194 5.0118271876762
Ge 1.9376335129643674 3.37328301829345 2.259618794941686
Ge 2.346464511575482 6.481808474702521 7.799499895171763
Ge 7.742429967264237 8.904846411469238 2.5275530478250903
Ge 3.854098669297901 4.4626304707567614 0.3306054165406931
Ge 4.991077106485633 7.070975348333331 5.517029631740398
Ge 8.10129806835307 5.001892034979097 4.558592547224399
Ge 0.7254877556887834 5.912789652723127 5.792433836394044
Ge 1.9494030406710023 8.0362702724441 1.919918756752883
Ge 2.398031350456716 5.849933169799525 3.5516790928652147
Ge 6.718044581618129 5.8498041274319705 0.2581025909664305
Ge 10.185151594460605 6.759650851019089 7.243026674461573
Ge 1.2327389621871216 5.783105073784945 0.9760206118354796
Ge 1.802389891854297 5.6316821308429175 10.18650200892876
Ge 2.4018355417399033 9.438199310395524 8.324835915631004
Ge 3.8528303684208693 3.4080539510344225 5.246314614238814
Ge 6.327791266544005 6.667414150752047 2.985427191477782
Ge 7.390756134855604 11.007942053352934 4.294684363612326
Ge 10.30257946389562 8.45899453707987 2.2195746754734786
Ge 1.420168945737211 3.6876740501609344 11.980323600856105
Ge 8.86679480495581 6.4067588126999455 1.520949460807838
Ge 4.129776134373976 6.755153928072739 1.5639895902379326
Ge 1.2938734581688904 3.4208453373459498 5.005998798717092
Ge 10.63458170450606 5.140345319081521 2.987869914752089
Ge 9.953029044301735 6.8522048717384 4.702341116655466
Ge 9.744019263409841 9.46178542976498 4.567164802317581
Ge 11.715734009077087 5.561482146790962 8.895657957745843
Ge 8.06876498489658 2.58485672219771 9.43011741410172
Ge 5.416816079737517 7.047000051463743 8.293409527430343
Ge 9.541849023747584 0.819959125836146 5.085486733117717
Ge 9.404743242151277 1.8585638308279833 7.392742530942316
Ge 7.493294752734191 2.361864023386115 5.108517431665517
Ge 4.883815367918055 9.515238477730245 7.6028354253298795
Ge 7.3653511469804 8.485324270956667 5.6029885982073795
Ge 2.7084812170856662 8.340523936963798 5.921321783487475
Ge 10.245492454973236 3.283593879603781 4.781623512689933
Ge 3.5001792415322206 1.4283235760347763 8.470019577400056
Ge 2.2769199052373192 0.87805200804601 6.04705933072348
Ge 1.311557720770131 0.062440620865218704 8.315294393677178
Ge 11.715734009077087 1.4673993643360135 9.128898829628007
Ge 6.940832265856989 10.899378540574682 6.973920693938981
Ge 4.858616768196334 4.722126640384614 7.196075119647912
Ge 3.1130753523707697 3.9821626203930176 8.881336958600091
Ge 10.87477786530111 3.970843546613201 7.11909589945918
