52
Energy = -209.8601611 eV
Ge 5.390772880079957 2.8522201385087786 10.47641618719209
Ge 2.5167972278874666 5.660966345066801 10.482642694821998
Ge 4.835817601130599 5.095121977257828 0.40684764337891693
Ge 1.3296122064926483 3.5414651009900555 0.2957535967757241
Ge 4.488678311188806 8.070728125064237 2.4889219495310497
Ge 7.3245930360266795 3.3268699189303756 0.8839370067745069
Ge 2.1204728618327473 7.711059774267188 1.0551941746682676
Ge 3.2814850962364153 1.5602380171569483 0.4040352295790953
Ge 0.08705421595454055 6.102033252680941 0.3816783366856294
Ge 6.283965587070295 7.15455946959695 0.8523941733734385
Ge 6.08133869575543 1.022923969631178 1.3225617997979924
Ge 5.131628849782932 9.887780195285876 4.255735111229222
Ge 2.4121192461390826 5.213248573665821 1.995323497206991
Ge 4.539771197671421 3.039410600807245 2.169015484251947
Ge 3.440777211361295 10.820247350965715 2.262609300255362
Ge 11.048004845870441 4.289973089147333 2.3560712815305265
Ge 8.542918391641612 1.4098011722282602 2.5740038878820117
Ge 6.7667853432308425 7.765556142780342 4.396781700666269
Ge 9.314205565996415 4.706573691664487 1.9305502434443051
Ge 1.4199114342533872 10.05913591853183 3.921479291000425
Ge 0.39011235971120095 6.839459610082966 3.0402724480344574
Ge 5.1877100820236794 11.132604796248403 4.155707602841806
Ge 3.2833236383370994 2.59504138086849 4.618282150815984
Ge 8.54295664698108 7.288624152380292 2.1656800020651668
Ge 6.681282385329903 5.259524569997041 2.93897480235975
Ge 1.5993662609556343 1.2613793595510725 3.0327885376270514
Ge 3.3937538270110785 9.887780195285876 5.64935334641401
Ge 4.251781961851842 6.584566881326233 4.7935519665116395
Ge 1.5646900942158488 0.6483204967449389 5.828593133693186
Ge 1.8731573402580954 4.961631182138604 4.770341007618263
Ge 6.6116660201002695 2.1553590564575935 4.483488315230236
Ge 2.5981317652718205 8.707150491461938 4.245236535055307
Ge 9.133470954639977 5.853970857992149 4.369943313960257
Ge 0.2134791883110835 2.739444888018166 4.653301119603726
Ge 7.719008615811449 10.805789794232117 4.195992043306699
Ge 5.470155419619119 4.394960088775758 6.180916203304421
Ge 6.925703994985278 0.31614364193463657 6.511159961885749
Ge 4.1521720202004095 0.9588483271192243 6.588032580505978
Ge 6.058346769191376 7.1246081367311245 6.966660734849273
Ge 0.15476198153079665 6.335968599909571 6.51698645555909
Ge 9.166873232230868 3.232423592951361 4.332978296730064
Ge 4.034411759448318 8.796516609218797 6.431129030622778
Ge 2.749313010399461 5.694782186431951 7.353577169232046
Ge 0.7602698722516865 3.816201155389629 7.529970625713228
Ge 8.011445911377718 5.2850002722458145 6.645401856359783
Ge 7.60959507116396 2.7386435075404463 7.180343501900437
Ge 1.667729232261684 8.087838882060243 7.950423453111626
Ge 5.222836762079359 2.8868379467380185 8.363088714437813
Ge 5.17192230343629 5.43756677849094 8.849170900456393
Ge 0.48430016350293204 5.8942828300714725 9.174925222485925
Ge 3.011528255603282 6.686530133094534 9.915028546145995
Ge 2.5264411142155296 4.020760726276155 9.520172184447144
