54
Energy = -216.27215336 eV
Ge 5.527081238846015 0.8016469601996837 8.645958791256401
Ge 7.14989649196822 9.503705678018466 9.716718659398163
Ge 2.30032173757073 7.927834760786279 2.53251900668011
Ge 2.585232736970053 8.77703948427607 6.562843117702408
Ge 6.767966449978454 1.067944695185966 3.5250120584230893
Ge 1.3765762020115795 6.999423134148883 4.902604427695849
Ge 9.847301121044527 2.6459063558984357 4.009148505670795
Ge 5.910763273939787 11.942638644150298 5.887049213113714
Ge 9.840165470581699 10.148260809219487 4.18722766641612
Ge 2.8272892280653283 10.235420440351588 8.765291574253142
Ge 9.385036044321328 5.15039810085591 2.901912598902995
Ge 8.152914234149629 2.892714985014125 1.9086763451623443
Ge 5.105930243823776 8.740036662254228 6.297225975989681
Ge 7.3146900787875415 5.15218911329011 10.26978503393385
Ge 2.987387910172769 3.9835377138366814 12.843087843130705
Ge 2.531421676695351 4.82616401775113 10.590171392884207
Ge 9.128140198149163 8.62162325498595 6.116827798999412
Ge 3.986184629537528 5.430386947828904 5.190742836301305
Ge 8.425095569663993 11.351565089129178 6.445511851757702
Ge 6.079813946890137 9.523308046307475 12.090334776568007
Ge 3.7473514857452472 6.553169644270258 0.8420018928851457
Ge 10.083278160991455 6.018330083677996 8.57842135087153
Ge 7.409434609188361 2.493296368633239 8.206841758273569
Ge 3.636279281525512 3.556191659101829 1.2204100364778832
Ge 4.417718093211086 8.773195404000509 10.244230156151657
Ge 6.374467981960043 6.548246096383999 6.481130336825502
Ge 9.919798965207809 3.112732506314302 8.29895928965018
Ge 4.299630539128349 1.9769285765562254 3.261393535545751
Ge 4.64185200253847 7.3860925416879795 3.4479574366925645
Ge 4.342244169450426 6.295901290621344 9.496582865920102
Ge 8.259333761954158 8.307201928846446 3.1405021751582027
Ge 8.017542448949847 7.554154616989468 8.249671311219078
Ge 5.977062402975105 4.552925343238873 1.5832007743672474
Ge 11.587056477254228 4.540738676325538 4.1613028780303605
Ge 2.8065694874493494 6.335196038714631 7.30473576975773
Ge 3.9453417591634676 2.91706422770592 5.544305206616087
Ge 1.7167349972423562 4.156857911826879 8.241931742447855
Ge 6.833430654443708 9.763970136533649 4.637454930030948
Ge 9.80948682442703 4.433069435489384 10.487757766985354
Ge 4.024397686707839 2.9362718951659676 8.135438077661252
Ge 7.536433701046515 12.269366630950152 3.93956873228962
Ge 8.298050490649578 6.332116180749395 4.905658065829562
Ge 9.939835291527922 12.611145705113074 4.676674964471821
Ge 5.904539156059186 1.2107862694100135 6.105961300022006
Ge 7.911388138052842 2.9852824399895126 5.667380536464498
Ge 10.015964558837503 4.823088917914872 6.202723818049799
Ge 6.370064310600606 7.227578680393801 1.4232083449538093
Ge 6.251170294099616 7.092958080164219 11.498322689050477
Ge 5.341694854771865 10.37909282960137 8.179406394452949
Ge 2.626328293362423 5.311548675570703 2.958330511226714
Ge 8.255337018310392 5.420424119605618 0.5753732197567872
Ge 5.9700132473053555 4.662813218999868 8.090570959498423
Ge 6.196780309590313 3.7520426720834594 3.969352711904329
Ge 5.048761296135598 4.721789638978517 11.70611825501766
