54
Energy = -218.06229502 eV
Ge 1.6174774790630244 4.228066943558398 8.973651643973826
Ge 5.439360467794457 5.417652525310074 9.731060377463574
Ge 5.745328675589355 2.8012240001392263 9.763904914708451
Ge 2.9273774291320813 6.1142534165748295 10.286762595432885
Ge 0.4631091969826407 0.369867978489116 9.554141995333008
Ge 2.951781527946634 10.46361383870194 9.676143307050129
Ge 7.007632497923745 6.73976409032969 0.8641838959113495
Ge 0.014644059596112138 2.829304413073963 0.011213994599379657
Ge 0.47920029848675183 5.328437882588881 0.8955991226697508
Ge 3.1899412020641615 2.4435597708037706 9.98841928217319
Ge 2.714864258985869 8.26066689690938 1.210660198162896
Ge 7.200014698862464 0.4976655101642603 10.127361617846141
Ge 7.926374762445689 3.1310253560462527 0.8756231580860193
Ge 5.1006427996744055 9.450515943160926 0.27697611649642956
Ge 5.415893240683585 4.414356842816035 1.630557815452994
Ge 4.992879983441389 7.666298230176498 2.143030594343904
Ge 0.9380449561885122 9.499674467426635 1.164031353332237
Ge 8.730570480225264 2.760290374910402 1.8661519434562164
Ge 2.8800152028301347 5.590507871464692 2.4210376674737204
Ge 10.381238655980848 0.8513507598174554 2.5873488092491552
Ge 5.674208661205717 1.3503761536286332 1.602617905980485
Ge 0.8776913404291418 3.2648707534535353 2.61589629698104
Ge 1.0981783787945665 7.338643683717013 3.159416242173109
Ge 3.2396000636086675 10.355836948248093 1.993818278711483
Ge 7.583624659740322 5.216495934409913 2.8924176930833725
Ge 8.095397226389073 0.7586318418524309 2.2664396489701057
Ge 3.3347840489745035 2.560838923761077 2.1061275281397975
Ge 6.110190167719132 0.19278938240500504 4.340326311302483
Ge 3.52612773038776 10.172124545755413 4.5761520449421855
Ge 9.531080435238803 4.71147284700519 3.614006429816914
Ge 4.829356938727026 5.740677938698654 4.44621430901031
Ge 6.573325107086007 2.908134765318923 5.192874463913834
Ge 0.01254542870221922 0.3984243646946444 5.236407599751352
Ge 9.45104454253185 2.8083261337926513 5.494891868627802
Ge 8.730570480225264 3.0049243664794765 3.6540381745540995
Ge 0.9212398693368846 5.7253245803562764 5.594995165907934
Ge 4.141695500170769 2.210478718347256 4.575772314067705
Ge 5.671053137905393 8.690186503163368 4.480777614975404
Ge 7.240172697125315 6.604693316598047 5.149836471730514
Ge 1.5990205908594548 2.55446120446871 5.7564569192395485
Ge 3.2312991545597414 7.985282910385653 4.97314800235383
Ge 7.139758513017477 0.7960344252367836 6.6845521760084
Ge 3.30712958267282 5.012708014844916 6.541298180178596
Ge 0.8768855943491976 8.392418577216656 5.814627007957416
Ge 4.974709887298669 9.580334251197549 6.722290015376241
Ge 10.403135156854422 4.152610698943696 7.587865528715597
Ge 1.9707758023993105 0.18677518707456658 7.120190036775765
Ge 6.311592474766777 4.9658081318992915 6.965405038889138
Ge 5.062145704613473 7.401549983373678 7.037578276264809
Ge 9.818571597352966 1.5014346558999567 7.753417499400359
Ge 2.4979327597652805 7.335882857124803 7.611222652343021
Ge 4.646789991682142 1.6314488477638263 7.137025621228208
Ge 1.83838134443196 2.567271300547965 8.414090988578025
Ge 4.277074445411447 3.7781110281032624 8.580461038747819
