52
Energy = -209.88965878 eV
Ge 9.774785105436074 6.9586941557837 4.179071651582748
Ge 6.111687956808712 11.395773152317947 8.004722252173186
Ge 9.299495019893701 7.215814779373505 7.060210527446831
Ge 8.388777648944945 2.7627174473544702 6.88249807316758
Ge 6.43479534691704 3.864856834678075 8.13096943947945
Ge 8.809547597692832 5.033054118180716 5.771615916890663
Ge 6.262997409794012 11.284490707959064 5.193340730700273
Ge 3.702132363663016 11.14115148029902 9.163509835905995
Ge 5.314466331997348 1.6638799006867089 9.572601448568014
Ge 2.3418730562225143 4.492411722174832 9.111002978848068
Ge 8.791565183067314 9.192210901731798 5.345549630423298
Ge 7.179237302585546 1.8222264671844215 4.827802048284462
Ge 6.70496749867636 6.252273291835846 7.125685919150587
Ge 6.957991083714587 0.7437748105009553 2.4719044324332726
Ge 8.52767429681737 7.168094582519749 1.573681685359329
Ge 6.823748663143987 5.494988892412372 4.292246655772433
Ge 7.1656373551041055 7.927418971431264 3.806495445368508
Ge 4.332693030198504 1.3631401527750464 7.103203969464085
Ge 3.9908586479931367 10.564268930618404 6.506379272798937
Ge 7.0937277633139475 8.77476791447653 7.417588551807526
Ge 5.4565753714245835 3.4984783223461764 5.733462264280202
Ge 2.618484177119396 1.8374757754166173 9.307533610342324
Ge 6.928304647351926 5.171688042176998 1.722455109701702
Ge 6.163627397001612 8.318254439355572 1.3504072692707583
Ge 3.817685164501151 0.10583948330091937 1.1190410112805174
Ge 4.353757315498767 0.5368580256751018 3.626678009855604
Ge 4.914369713650471 8.975247505669449 5.943163867382442
Ge 5.003118797134534 2.6572314168786213 2.156774653732819
Ge 1.8318503780188982 0.1334657214514662 7.287943985621888
Ge 7.287919862426792 2.794865467112399 0.7300217655280702
Ge 5.537460784660664 4.4571519057038325 10.824498837630856
Ge 3.1774886812627106 5.05523780925115 6.773298878395449
Ge 3.9788215842397774 5.015066650560406 3.3356509777469063
Ge 5.321757479444433 1.6295439369184384 11.380475726541894
Ge 4.651257618354801 6.19504644469533 0.9094485861953449
Ge 0.26927027876438686 4.942939122878307 7.486868872451745
Ge 3.435093560269073 7.446730363741642 4.342182311973101
Ge 4.867280502612849 9.594795487217324 3.3409744066727383
Ge 2.615304861021936 7.855488025545969 7.028557417992333
Ge 2.922653104075603 2.6714646868078247 4.697435274252501
Ge 2.676472562950835 2.3604254007149765 0.7891054179318797
Ge 3.4024876889392295 10.448903870403754 7.4322698067086925
Ge 3.5349147062477204 2.8839638852229763 9.885299068367575
Ge 2.327725677318429 10.564268930618404 5.12990643797372
Ge 1.3412244747919333 3.9387085149895813 3.0253535672435703
Ge 1.4573870982187624 2.793605918296489 6.900023179632331
Ge 2.771436846681458 4.707364696871353 11.476192331015692
Ge 2.06277878531911 6.180663233524656 1.7136584454819879
Ge 1.1328701439047308 5.492904686776702 5.098177655590701
Ge 2.230509687486987 9.294229892211668 2.8376366529503296
Ge 0.7701425184755631 8.139060990093414 4.791912547201844
Ge 0.7305089653740026 9.669511051555384 6.9772605545545305
