50
Energy = -201.7690609 eV
Ge 10.227367908800607 0.5932177959496531 7.106277919195437
Ge 10.249694791633456 9.781815370920748 5.025804354076399
Ge 1.806663455779019 2.0061241132244483 7.577806967912865
Ge 1.6652522424613452 10.251213203484001 6.715669737805166
Ge 3.5943280961297415 0.15351416331420978 8.249657536339328
Ge 7.71341107810244 9.119886657554602 3.9003550071515836
Ge 10.177146914910038 7.576097454373699 6.22688264000646
Ge 8.042578185081158 9.935555285541248 6.455481272980618
Ge 1.6667473862138387 8.249652643951618 5.0258043540764
Ge 9.396145146247772 3.0554142272197415 7.507302272515845
Ge 1.9063449413494529 4.991427128009169 8.455515593953939
Ge 1.7939362950441549 0.7996926861310603 10.108951621083923
Ge 1.7403665146441631 7.119574378182746 7.349984160885585
Ge 2.163707817968987 8.936037282745826 9.19305627332077
Ge 6.9482464849145025 7.579211242137702 5.964769157527848
Ge 5.224396967171367 9.193303039025102 4.716787474110511
Ge 6.934589231223217 0.5801420261261631 4.8324729515452205
Ge 10.076124124702527 7.739282389708695 8.785386754329197
Ge 10.624485841174716 10.185318607350471 9.306962813051586
Ge 8.630112928873816 5.710572488113282 5.390015144162051
Ge 10.193184979544716 4.727123115977445 8.54606871883869
Ge 7.261126760074893 2.7025181003161936 8.972114632304992
Ge 6.906516026247383 10.839433984237168 8.729778738524042
Ge 9.986010233635744 4.690171643769173 0.3010661239208805
Ge 10.875193120723424 2.6238242222037655 9.584318047714628
Ge 8.7367444144142 0.9231199796550407 10.509893610294771
Ge 5.404025264233253 5.834579082066504 7.659703390435324
Ge 0.8107710037169109 6.270443844894564 10.266512468890278
Ge 5.124089864044298 0.2082091476288985 6.409167091694017
Ge 7.8861488504168245 4.650273360614361 7.554894675949658
Ge 10.512092132084371 9.534371119355594 0.9521121788105887
Ge 7.331875384059813 3.124476382395371 0.6504504120645339
Ge 5.1714317770621765 8.787031418048507 7.522294290112577
Ge 9.912535684108937 2.7941421125500474 1.0835301669196948
Ge 7.953266380877432 6.327888443025283 9.397663967825576
Ge 4.85404408152797 1.7547259788110037 8.568767301252443
Ge 0.18703973191172696 0.7430645110974914 2.4089639265902623
Ge 4.73510290740302 10.851125951144011 10.560486866079785
Ge 1.8269144979276815 8.094175320483574 0.9216520588667156
Ge 6.516551028051759 8.67486325047971 10.150841025137886
Ge 10.590948222069548 6.557047468517399 1.7863738935439966
Ge 3.5943280961297415 7.348010979552481 8.573578114486521
Ge 5.244578235487553 6.209659833452996 10.313659721132694
Ge 7.866737014745449 5.9060944478548745 1.0984125202944002
Ge 8.471044066328126 1.2400761395155517 3.240398779759782
Ge 6.682806974538805 0.5931976507228796 1.1692315696500286
Ge 9.5892329723354 9.721186835163243 3.500384741376252
Ge 4.104672140588399 8.356236575371078 0.0685111253569306
Ge 8.146359810459037 8.511583450915717 1.3506127146478397
Ge 6.889395309163232 9.921275272789728 3.227254438105943
