53
Energy = -214.0053095 eV
Ge 6.475722493107006 8.732748711073157 2.883943171331132
Ge 3.5316332474736947 6.585508193735351 10.205316177902207
Ge 4.043218150532094 3.532057187715456 8.309116728918406
Ge 2.1597460743316477 9.94048113371695 2.653472134578815
Ge 0.4249092608628929 7.223344737161931 4.848752804651838
Ge 6.9730212098872055 2.799733902242198 7.399063721860605
Ge 5.612347292601656 4.593247819540568 10.156706942192146
Ge 4.750908971398005 10.31884146904298 3.8994997570848335
Ge 2.9390399227988038 5.829019716618038 9.574594042086618
Ge 3.436104777201694 7.823309450880395 7.99053177419822
Ge 3.646355821836578 5.636590293186772 6.564353997589272
Ge 9.087047734506417 6.286176719502105 5.78652150851687
Ge 1.428182756687002 4.070934671572562 8.06757941783435
Ge 0.28763888308924096 1.1757048448849505 3.5742627943555534
Ge 8.33570388081078 4.3307833174339745 2.1138673962633363
Ge 6.777820536446064 10.207653700287546 1.9486641106342268
Ge 1.9748944559684491 9.80428041302544 2.9223504981680613
Ge 5.884167969960644 2.375866499015616 2.923190669180868
Ge 8.439686821008825 8.599476004014305 4.758334621944609
Ge 6.4302094191982615 6.217027960746291 2.2032672918457408
Ge 1.7815529272850215 5.235355135274927 1.1764199500721706
Ge 4.888237216730835 1.3872624373431772 6.741947208136703
Ge 2.3533261241952 0.4921772169803151 5.353284018408068
Ge 4.20943871496745 0.45342996414699543 1.2045785801116236
Ge 7.382687136005609 0.11487069288847052 4.603513776597081
Ge 7.093965028200603 5.152488230509308 4.610093968852987
Ge 2.271222274169871 1.503953571934016 8.034760787900757
Ge 2.6876982979005266 2.85802160360354 4.154522970075711
Ge 4.23113411987013 4.839204115863422 2.0565862816984977
Ge 7.267794674515069 9.410585955619206 6.8345820737970495
Ge 9.307279675787921 6.000289778295059 8.388163822176203
Ge 1.3559642244954528 4.816200295120813 5.4647340305651095
Ge 9.952182150498038 4.32630131711102 4.171640616281278
Ge 8.815484706003712 1.53442190501777 2.8081724645053088
Ge 5.053141884011656 3.646087006624657 5.450147526594089
Ge 6.604404087249543 5.645274474562138 7.734198800419596
Ge 4.970466030050018 2.9349306167187184 0.3362574876209915
Ge 3.0722131877407772 7.186560590264109 4.114577481448872
Ge 8.061626256318066 3.944808733743444 9.414032754945035
Ge 4.319281234892009 9.887763883133983 4.251056227474152
Ge 5.800532179094223 5.364188434830666 10.156706942192148
Ge 5.311969191209326 7.2452211381578 9.95216208938184
Ge 5.773788204455991 7.726169376480296 5.358561749690665
Ge 8.278317959732458 2.69562936450561 5.168306592806963
Ge 0.280463042408202 3.8898210775261663 3.1012851691927783
Ge 2.006227684824341 2.231510375986935 1.6540581139102901
Ge 3.7888983012146413 8.273774433456794 1.796468753368156
Ge 0.39322690989081327 2.363629330390818 6.111024459774407
Ge 4.727979830762904 9.877567482640204 6.930842421690658
Ge 2.0980149378664312 9.078874030657406 5.7677826091570426
Ge 0.9680675882119922 7.390899886066642 2.3937239738578633
Ge 7.578493579623046 7.850323412140741 8.835061227457812
Ge 7.537383464300535 2.256118689343797 0.5718324200139334
