50
Energy = -202.69870341 eV
Ge 2.5081292056490763 4.892497402290238 8.378286384543596
Ge 1.6100748456969107 2.6730330821037556 7.262220189679923
Ge 1.786627609426799 1.6656881286171739 3.716532510696083
Ge 2.248461863538065 5.624115717299209 5.404530115743155
Ge 3.1024229610142418 3.974654708287305 11.269014922168207
Ge 10.948508877647624 5.153732839152391 2.127136498177095
Ge 2.5956463215533905 2.528078997827234 9.743015413126262
Ge 5.343352423737179 1.0694611087983212 1.586193932448487
Ge 4.02351216516088 1.5703102285497745 7.494871993580793
Ge 3.810642195791942 1.4369598670362644 10.9050337633385
Ge 2.565678430527867 7.140137811496034 9.66928427867656
Ge 3.131354511994828 7.095480388892149 0.9361026413183194
Ge 4.5909435959868 7.212469137075677 7.576231187302428
Ge 2.1784505959750313 7.852569939842077 6.870985935045114
Ge 7.630874587075155 11.10532527594576 1.6111720556979368
Ge 7.5997184530714845 2.2590936380945155 0.558662439398845
Ge 4.688841878301587 2.0566321636426657 4.052113737044809
Ge 6.488295329336699 3.3161562521976817 2.6042318236003896
Ge 2.2875319580789233 9.593447604745899 2.2029862393470596
Ge 2.2331914905804164 3.9786375600602275 2.3829039529560836
Ge 7.4212095127340625 8.14793533681289 2.8475290065486885
Ge 9.531804234165914 6.546271456357978 3.5905401191967665
Ge 8.51115167425692 11.145093540918191 4.132306520226801
Ge 1.7629538242190717 1.6104687071024875 1.0654242711888477
Ge 8.976396243980487 2.0552580444807105 2.79027345535925
Ge 0.5083875635811222 3.827457429438936 0.004947384592672411
Ge 6.55908051572513 5.747112605051781 3.561078236921824
Ge 5.8242902798575455 10.89007952547242 3.7407481931056106
Ge 6.070647735486833 5.7026132662366775 6.09164594068346
Ge 9.966753079448809 5.92402693906674 6.299852041643137
Ge 10.81608999917321 2.3471772266352513 2.0542435995294674
Ge 3.8765198633738995 6.058748119008444 3.2336839619243714
Ge 4.75619744771268 8.69125793483543 2.2648858908175
Ge 7.0984384372884115 1.7895122743062606 4.947761672255893
Ge 8.784492618621496 4.227926772313795 4.386685739058639
Ge 8.884091745550796 2.996533034861936 6.631282695336518
Ge 4.678886145354025 9.719130572600099 6.524768356094997
Ge 6.482841186913034 8.384534781160346 5.251153696167779
Ge 4.058294019234476 3.9805982177901753 6.340220886697243
Ge 1.2726862172503353 7.271042013731632 2.7387229542133857
Ge 3.326369834537787 8.386090938812874 4.420720021444637
Ge 9.273175614619921 8.494216424816813 5.343131635694804
Ge 7.699701056855877 4.917279729509823 7.860439643979333
Ge 4.928441605764575 3.5640471265713765 8.90129749604676
Ge 5.191816729417421 7.121677263362192 10.147664849482164
Ge 0.47327177725865865 3.880335133906161 4.311282285271713
Ge 6.614858216764471 4.8626945821475465 10.270977654738774
Ge 7.938282684767344 7.479259290108291 7.308340567598382
Ge 6.2737701612565075 9.028569339195972 8.60303662273405
Ge 3.612437048527016 4.838848876571198 10.9050337633385
