5
Energy = -16.76633014 eV
Ge 4.45597307209905 7.077136960139516 9.527165951934728
Ge 8.380936242319697 6.319975492915859 7.145815327516241
Ge 6.087052905826072 7.049658658888948 7.764046908000748
Ge 8.89824369265566 6.630686960881983 4.758679940721584
Ge 6.658531035252611 7.444792914822469 5.384868701119963
