55
Energy = -222.42558179 eV
Ge 3.7147887633268892 5.3921731708753065 10.304253852812955
Ge 9.3440720336769 7.2097724928640705 5.268377914626001
Ge 7.98676082533022 3.2182892408784065 8.159626827269292
Ge 4.81703798016906 5.355216365309021 4.315382707675849
Ge 8.632718620822873 8.72014864157025 9.056692858035978
Ge 8.758828857848911 10.366646073450134 2.06681256084864
Ge 5.402015485267085 5.600375790933631 8.259595415382273
Ge 2.207526519963391 5.812913737617077 5.040962602962537
Ge 7.42587505134379 8.842577471471644 3.922646958162726
Ge 8.012875414653987 5.67035484564082 12.171885102278564
Ge 5.652316511927219 6.816994801707969 11.450751791460661
Ge 6.862208436278617 9.020587517668524 7.204677540688734
Ge 5.2297357810379195 8.294747873433247 2.453441241880687
Ge 2.980586647015794 8.521109243968498 4.436022543105246
Ge 7.5953135791645865 9.82434401254571 11.125067825907518
Ge 4.84811050147681 10.544120916673265 7.944551847808718
Ge 9.516732861393855 7.647530193807309 2.62414132349784
Ge 12.083108715684913 6.373316046944769 4.980198486675033
Ge 9.986956183856618 4.72259445920076 4.390246962961793
Ge 7.776269459954181 4.5351093144460695 5.943883647046304
Ge 11.571038958800884 6.734440612744511 7.439777017368047
Ge 9.713964751187829 5.248826456003084 8.377411643724296
Ge 6.753190909562094 4.342467040536169 10.193910292192257
Ge 3.292181427775615 6.6059799125292535 2.5959072386960327
Ge 10.996352197036929 4.321136435207809 10.614477240567746
Ge 5.985478993554689 10.68576672808181 1.7087439729597675
Ge 2.926678240951828 7.895244079546523 10.930408623790363
Ge 7.3259861119146 11.746967674827102 3.9152894624711663
Ge 5.140567518530843 10.205761307608501 4.36325716805447
Ge 4.650843967147303 9.23589772104574 12.478913083753621
Ge 8.235551578475501 10.973853177756148 6.349550782628814
Ge 6.762736585077031 12.396615335168455 8.283001955077015
Ge 7.089228449814229 8.1816715896533 13.157164186347538
Ge 3.107326730992811 3.3598153616640642 5.4715892528931835
Ge 12.186227283542067 3.812789462016201 5.9240268021146685
Ge 12.186886214942334 6.918977759044668 10.110152200853143
Ge 4.557213317234144 2.8907130514085515 10.14795760930321
Ge 12.637695017946738 4.593222512936653 8.564073725955478
Ge 9.591768331672805 6.773961851527894 10.500999348209541
Ge 7.4433725124942445 8.331637455683905 1.0172986307723701
Ge 10.345623626460638 9.458311694951192 6.193887005190626
Ge 2.805302793355336 8.991611373238149 8.550254590661337
Ge 6.211199209480054 6.800160628275341 6.0777536238418515
Ge 2.8012713295529443 4.870684018146058 7.7631785790393275
Ge 5.2528309921992165 11.17444036850755 10.58568353067535
Ge 5.4322913452423665 8.628601894548629 9.673087376925576
Ge 3.5749375648803356 7.32090982876346 6.7615078811340155
Ge 7.6146321027073745 12.429644497960156 10.809334810081122
Ge 9.919836619319923 2.5761182180397917 5.960242071580036
Ge 5.766201301036216 3.0289681714944163 4.936705676739015
Ge 9.230707122449497 11.35806867308796 8.968676720266128
Ge 10.607677840650885 2.6406592747275166 8.58565276282479
Ge 4.938677552859089 3.188480594822658 7.491246127057129
Ge 11.22533020217021 9.19734687186487 8.616090443125607
Ge 11.467171469765947 8.773144556553266 3.9453869530172243
