52
Energy = -209.48771195 eV
Ge 2.611444298736194 4.025028274112739 8.69600366135431
Ge 4.776804637350889 5.370142007860432 9.236027602125052
Ge 0.5865971804445439 5.382507654695493 10.008941060151763
Ge 10.718548095235155 2.9687745195990125 10.678875671908687
Ge 1.5702767380292733 0.9670257746464136 0.12512173829913784
Ge 9.158137625657176 0.9654234494386762 0.5731225557418055
Ge 3.96097291790209 2.5804969701829843 10.44908781863332
Ge 4.785419833438366 6.847362319009488 0.6249197417640002
Ge 6.223018738605064 4.031012181684497 0.15456824887678725
Ge 9.942807464051338 5.75754332682054 1.7083472871756797
Ge 6.182263158577463 10.294664896632977 0.37151821147307323
Ge 2.8754983438372204 5.0266756088570155 0.38122977950986264
Ge 7.318832496804958 6.117757995113475 1.2668097445830337
Ge 9.06506451552474 3.074038242434167 2.1404590611657803
Ge 7.683411436107729 1.7164207895535553 0.3902919416726887
Ge 0.35166675305253714 10.471396415495436 2.0404666686397386
Ge 5.886299293139266 1.4473926185540662 2.3699100835449856
Ge 8.36257672320055 10.25590786335831 2.005089100237616
Ge 0.9970141633992394 2.3978982338158885 2.3540922655434158
Ge 1.4796697099585439 7.097219690485547 2.3090194433447135
Ge 3.6624970243243613 9.652430941945406 1.4461954728605575
Ge 4.047440265347282 6.054550927081274 3.196174600089444
Ge 8.684333935120796 4.875897578836534 3.27270155820357
Ge 3.6102641721364055 3.291992157492672 2.3213103739390015
Ge 6.093388345547207 9.576001464969494 3.013315061774088
Ge 9.772376364747746 1.1471760031550124 3.720491426172918
Ge 2.5698577927208026 10.563468349516393 3.6576953159089274
Ge 4.0337389023670625 8.285718261436582 3.756706904016196
Ge 8.578867158378014 2.115863510301516 2.9253367622501902
Ge 1.2701732268581938 7.861775587313246 4.8715235684234965
Ge 0.6946252070252421 5.159590102292093 4.067221643801068
Ge 6.570640152343479 6.882074607054134 3.7892850761103634
Ge 6.15735174886969 4.279958920294974 3.118492669493161
Ge 10.091061998325905 3.7471226982916046 6.149631158926304
Ge 9.562810604427355 7.428820002444283 3.824067261543613
Ge 7.248238273713269 0.555191018785545 4.545091733228162
Ge 7.709371715529953 5.352767888884702 5.696548732872729
Ge 1.1328869018515113 2.047843374859276 5.330051145086602
Ge 1.445846399012989 10.244821401074548 6.038298428937035
Ge 3.729639993884904 1.8930787997461493 4.827369778545504
Ge 4.154928321785766 10.139629544484691 5.903023299190343
Ge 3.9516757949693706 7.541393359958499 5.626801461483433
Ge 3.2452990953560614 4.89870771447316 5.63874773931473
Ge 8.684333935120797 4.838942170941388 4.1001849268042845
Ge 10.238230950345567 6.450259515321756 6.280610269904471
Ge 5.790721710026603 3.5415309634120695 5.735063545755734
Ge 5.528602445120759 6.0530822851931605 7.1046713390593155
Ge 2.7156100922949413 1.392716700908194 7.467634686853658
Ge 5.412495827153449 1.5634817713680798 7.445995428217343
Ge 1.6940196220042514 4.06473613608945 7.7295861813964235
Ge 4.350317566683879 3.927766748536344 8.093892384456366
Ge 2.0034701966144426 6.748360524248225 7.3002354216988365
