5
Energy = -17.23834309 eV
Ge 7.517686110687648 4.595937033995947 7.737416378896133
Ge 6.308839439626615 7.326552832566577 4.788450126944326
Ge 7.189673436302731 5.036791365810577 5.3097408207014976
Ge 4.213340814497959 7.864782386289984 6.022644960152251
Ge 5.765394607941338 6.2796446317040395 7.159436012900458
