54
Energy = -218.13300708 eV
Ge 2.661634220375543 8.385166029001473 4.766151102745957
Ge 1.0237635778361107 8.269252583438343 6.156127256400017
Ge 0.5299267044113752 2.1882497172251654 6.1954933538600745
Ge 9.220116369454571 2.4590107753253503 4.139790679944638
Ge 6.697254866698686 7.161165923436606 3.2178101418075498
Ge 3.9928329247942633 0.521198383082646 5.058946615950075
Ge 6.562266733565904 9.988730502350409 5.0880908979818535
Ge 8.72998266304816 5.17299274056572 3.9349601931821767
Ge 6.2648952584004345 0.1581838795562556 2.590929168998465
Ge 7.59387900630607 5.1274761109456914 1.3436807473197308
Ge 6.7464234454117475 7.381824502690714 0.5058770095222372
Ge 0.8824809876293798 4.3122037723997995 4.642890366749448
Ge 3.6634303142915514 7.578500579292155 5.870339883820468
Ge 3.2101181192717716 1.8935207674223946 7.3801895524819345
Ge 2.3593090187423464 8.658333879275693 2.2016463843561116
Ge 8.686560706771568 3.1779156357981417 0.08618589309060885
Ge 0.19088356200664988 4.352651730351446 7.661082011857599
Ge 4.784911427737755 8.447760771012922 6.243888407048049
Ge 5.220483560091137 5.415900316605703 10.07347492621064
Ge 6.0526303914643345 3.0072497035576715 10.388396336526789
Ge 3.105301403099924 3.3082873235734014 3.3797822982490016
Ge 9.735846438486938 5.510395986855726 9.67687128462936
Ge 1.315170274891973 6.865914155431346 0.8847064505567469
Ge 10.285039917878157 3.1958959743524855 8.331412678224817
Ge 4.330993691285201 7.726611766434375 1.7475758475151792
Ge 2.54077982109366 9.897119678941834 7.181068350225132
Ge 1.8450553564708505 2.6432279885655574 10.109869982458166
Ge 6.675819588415899 4.470238882198504 3.736017149426968
Ge 10.244764209906547 1.0589569540306316 9.952466988473525
Ge 7.949737266221538 1.3661297116389124 0.8973643335064158
Ge 5.0762588586511574 10.31812794122855 8.222280660169737
Ge 0.5689325263035402 8.50460430878409 6.241294609573538
Ge 10.061091164961326 7.954360517949145 3.999423740353124
Ge 3.9596297168536982 0.25351862717175117 1.3563765184883059
Ge 7.186469027314629 9.33974081350013 0.3153444289834087
Ge 9.035513572546565 6.864443583806883 1.853764575555954
Ge 2.2172567506645997 5.565938623148728 6.645660369380304
Ge 4.0730355384555645 3.864395507551723 5.790294396790505
Ge 0.17691132151614908 4.668803847129719 1.7794258715944444
Ge 1.8944054747804941 5.0691354767360925 9.206254928908972
Ge 6.65202928376747 0.7662695926245198 8.923147767216518
Ge 0.06606043954901013 0.08680071270066153 4.721782855474799
Ge 0.10635657934925577 2.063063409131943 1.917953508091017
Ge 4.03995249845209 1.3604683026380617 9.521186385311372
Ge 6.074175384642081 1.5996272366040287 6.554749803104969
Ge 4.961065691818501 8.269252583438341 1.4893229605055764
Ge 5.462516940494643 2.6546361383902695 2.3794235335918046
Ge 4.784483523948169 9.234146901802534 9.375412342187687
Ge 3.3214097920115244 5.197801479050681 1.4367595498062933
Ge 2.0552062045863444 0.7267526619376046 3.182789533254678
Ge 6.546530336416682 4.137371829567695 6.352028098026889
Ge 4.39803932206503 6.003154733579893 3.8213588700906493
Ge 2.260846023911005 7.794246794175746 3.6291361275205345
Ge 9.744696561186728 6.270119732287212 6.108590353192109
