53
Energy = -213.19909547 eV
Ge 6.834549538211636 4.456529370356551 3.918194107190332
Ge 3.926380034726289 2.788680197199921 2.0881794848335615
Ge 7.722401071381228 2.7048117520607335 9.405211184906243
Ge 3.2879214869179014 4.932102757826332 10.092954850495891
Ge 4.542830891093995 7.436013349306063 10.156134599985803
Ge 5.2438131469175 5.4081317875201 6.83816615330792
Ge 3.6308122421899216 6.4315179022195474 8.982504778056757
Ge 5.91675407075729 8.128794547989047 1.8905331399731857
Ge 8.70956458753556 0.7962054467893137 7.761759564473977
Ge 7.652036664558232 5.260552037365106 8.316701698419955
Ge 3.6128804518839934 8.719521240420589 7.6265671853517265
Ge 9.525386886555426 5.956254694788825 4.105102000080144
Ge 0.9144467220109951 7.8318595016614 4.3300002093329795
Ge 2.5156132491632297 1.2353345718936417 3.9497228071037274
Ge 4.639970862926715 9.028391710674246 4.042404620994606
Ge 4.022668548661409 0.6820844499777329 6.464682491250877
Ge 3.993723586408761 3.3727086745134045 5.214246112527198
Ge 1.297304327541166 5.11679826414867 8.216823261576508
Ge 2.9109695345677373 0.8621181168069987 0.43906578872484353
Ge 2.473440549060784 6.675878380263591 6.382080322027226
Ge 9.484554459549756 3.415786878764157 7.12233660671674
Ge 4.927725204128557 5.369006845676608 1.718936550302707
Ge 7.437856746614688 4.242961432068764 1.2938528360627188
Ge 1.3665088643288963 7.816666491241231 8.961791445261882
Ge 3.2932883686602326 8.929490247127195 1.671180007017826
Ge 5.09550787859042 4.319041217713173 9.397546188793951
Ge 6.506991645992668 6.941620521066304 4.254151287605089
Ge 6.7765647370025 1.7857056818881711 2.0642775567906035
Ge 5.60235137730256 1.1918570782926807 4.320914217664848
Ge 0.16208950268585218 5.109049230677726 1.8164354760805834
Ge 5.155517298817564 2.033564614728313 10.277510632419096
Ge 3.3696337041137054 6.7507175695784625 3.666403200582673
Ge 1.4157141837532294 4.496244239306833 4.194041065202196
Ge 2.204025930702035 6.601461378718824 1.260964986504222
Ge 9.525386886555426 4.159994336184684 4.102351828054382
Ge 8.8924823599583 5.899773170870366 5.832207096297465
Ge 7.300217324863695 6.921376004416158 0.08392225020468425
Ge 5.931256380001296 1.0722034389760726 8.387852706985122
Ge 8.62309023743867 6.249068156259191 2.4468106712008426
Ge 10.347320923354186 2.0491363977246295 3.896150560777732
Ge 10.18444249457618 6.890408902075775 6.820557052360451
Ge 1.4340508395798959 2.3856375931978997 6.157302585298601
Ge 8.385478858384804 1.769923483456136 5.138944763486206
Ge 3.4350808463890483 2.9058480665319193 7.878137912190357
Ge 6.236117512950651 10.290026339167634 0.4937590224068579
Ge 1.2001573923191895 9.192632506082575 6.577164827597661
Ge 1.212325786257077 2.7610313000251976 1.8369461670050165
Ge 6.737639963601206 3.0661070104693318 6.779506368730006
Ge 6.981467481690061 7.52864247212485 6.725974281714758
Ge 9.788431763680453 4.0604576558011 5.920851748092306
Ge 5.85973604312454 4.542660179204232 9.594776500781435
Ge 6.833458447008726 10.125919580793841 6.213908234745695
Ge 4.349852229081569 10.24985353742482 2.301291130577931
