53
Energy = -214.84922475 eV
Ge 9.511026263205654 5.592917357486371 6.343829278880273
Ge 6.389763798220104 8.642725842936152 5.538113508054479
Ge 5.459035520737652 6.691163109669984 7.256501591116462
Ge 8.61250745387899 7.467030145295245 4.871032473304333
Ge 0.25671667782150764 6.126608839531328 8.881037802192333
Ge 1.6860775154102352 7.305430018532112 6.222294825496399
Ge 7.442647953481657 5.035017779965151 7.966327849076206
Ge 4.056841205340633 6.836222006806625 7.125358993883144
Ge 2.8231262842218503 6.090078398260175 9.350614191064931
Ge 9.797082268564045 5.227315087357608 2.476713178032797
Ge 8.034516972037876 7.674023491959203 7.405341841926443
Ge 7.906286285440839 0.9672671168971203 5.9675102700094
Ge 4.57642243128374 0.42540066324040043 5.896495198773204
Ge 8.06462347328024 5.717234113814889 0.5746155675498202
Ge 4.723177596364052 9.229886667389186 8.164611173120798
Ge 0.6972899699386524 9.26402670734776 4.979251311593361
Ge 4.6675523287907765 7.208748351894012 9.69698441504195
Ge 2.561271434688727 8.666420522989991 8.62666213670992
Ge 2.709660765080932 0.8622854610109256 5.53438497152185
Ge 0.48420093044370266 0.035831964798229865 7.4957326314102595
Ge 0.6164998819328898 7.786225610418567 2.1636917036963745
Ge 9.156436428450878 8.388456984353834 9.829054123748676
Ge 2.623684269053911 5.86248761345459 2.155143496975022
Ge 6.113257012044443 0.4638011146996513 0.12733836764932605
Ge 4.576422431283742 9.460924082883878 7.0819600625692125
Ge 6.807844385528198 8.022453199749632 1.1882812762610848
Ge 4.223695021477257 7.94154837638625 0.8750810486626315
Ge 9.254613035173195 3.40368934123931 6.7331217638286684
Ge 5.694755668165715 2.5437059721322752 6.541870969335163
Ge 5.202226818367944 0.3291227660175012 2.9519939829533115
Ge 9.03245300161612 6.859293882342987 4.3968349767924515
Ge 4.4919979095773295 0.6516131510128592 9.555522939105314
Ge 7.655332080538817 1.8954813702745281 8.38564471015818
Ge 1.6514864135093352 2.38243974568969 7.226231655503951
Ge 9.22399569550153 1.0998755919146979 0.6522439537083446
Ge 7.481042646619566 3.292895422091099 4.871032473304332
Ge 0.8058233193293451 8.858110600689336 4.542742201074169
Ge 3.077863620153635 8.18034345184754 3.340230374782737
Ge 7.005212052978445 8.371511777582938 3.688248312130528
Ge 8.445401696347334 0.6479350694411771 3.0578107054604775
Ge 1.987134120675585 1.2931924249042148 0.8041280943896864
Ge 4.84683134326103 2.4502146446811772 1.2494396991862833
Ge 4.276762335918982 0.5190817573871269 2.4396081011994477
Ge 5.6044577853758515 3.8546046533703207 8.848594854251305
Ge 8.167636849640763 4.591415718886114 8.764216806693037
Ge 3.2920657410952803 3.010388727002368 9.091221152421847
Ge 9.493022551854446 3.680489549794324 0.9026828427176029
Ge 6.3537988669260335 2.5691889521076745 3.5457186802202076
Ge 0.4838543605479643 1.5840720396153996 4.81862151071609
Ge 2.445762881391545 2.218226641752604 3.208511835111766
Ge 6.847432772531514 4.362171681493266 1.5455048605256747
Ge 8.836901917439478 3.2916350353882997 3.425793882359033
Ge 2.174618716498966 4.027882431936374 1.3542978564269166
