54
Energy = -218.13797443 eV
Ge 9.845523079454754 4.526246205353579 6.8244457738281135
Ge 6.307159626748072 8.488984322294202 1.040922417260232
Ge 4.923741385578989 0.5834344389456183 2.2381711323018654
Ge 2.1346925310227247 8.53343930169168 1.4557737423892037
Ge 10.73844703888818 2.094066776554648 2.773276768116263
Ge 4.2153370534021875 6.983781406743659 1.1087705144424922
Ge 4.2954249545938215 3.0938304817377213 5.574393244874873
Ge 7.530327674285658 7.7551517143419755 8.575508677318485
Ge 5.928086657756036 0.9033843366102847 6.5002643584146105
Ge 10.85923935421709 2.9238306428747305 5.33238282853187
Ge 0.680885737052942 0.8660234658563851 6.837382456672438
Ge 10.416812074190615 0.0990270774201822 4.51767342028319
Ge 8.186247226751677 7.902144519887848 3.2728907674009333
Ge 0.7201960330159755 8.900862356406785 3.693233784754338
Ge 3.3539523757972036 9.854669514252404 3.3716298294371265
Ge 1.7674332780989757 10.22966975675201 5.204005218572662
Ge 2.4780172639099423 1.580067150100542 1.6619200185685414
Ge 8.459084262725954 2.0778932540657835 6.285000547921159
Ge 5.165189359969332 6.201392006203586 8.500597271483528
Ge 2.0645941901389073 4.5326743975574955 5.7700864085977335
Ge 5.975219600931281 6.451302357614637 3.0547575162130576
Ge 0.4085567656456633 4.9920142084166805 3.089837870459
Ge 1.0119102116825818 10.704277806048742 2.678978791471656
Ge 2.749941132653765 6.6346010744352135 7.275057268472078
Ge 4.068293696866532 0.2728404990888897 4.646716740985838
Ge 5.025619566314418 5.722433691869735 5.927622996602159
Ge 4.077418021765993 4.0368510910663264 9.545756723387969
Ge 10.077543927436434 7.067574773731748 7.997532564284944
Ge 7.056453530225319 0.80082324618388 4.01702201600546
Ge 9.466541458918796 1.583083703769105 3.8666112635301317
Ge 5.356424029896259 2.9252903859178248 3.2248482057715986
Ge 8.21979344787042 5.165938561995692 8.813982721174218
Ge 8.704014546970601 8.649202362638844 6.274178846837671
Ge 2.8242580012900147 2.3923313421305714 7.6729610357430555
Ge 6.318261939956571 4.30205497614931 1.259451477058303
Ge 10.416812074190615 6.694771993451941 5.318520502522819
Ge 2.824284498428265 7.042607320375495 3.7278681953784165
Ge 0.8234355179428063 3.177098759944727 0.594464377559575
Ge 1.679873303374752 4.5579596805061255 8.601065772402071
Ge 3.77184759529718 4.706025145691488 0.027276380926430727
Ge 6.001807836081482 9.563832467073253 3.4954780994230754
Ge 1.3631757189260878 5.867368560553046 0.7672043344793303
Ge 9.177904023751884 5.381020128771507 3.1221655661218666
Ge 2.249891546525509 9.134618722671867 5.9242134795793655
Ge 4.651268333305766 8.306899834887979 5.326891937916291
Ge 6.091605094553588 3.534611559716176 7.597415687223417
Ge 1.8001025990711401 1.6691132471303602 4.397541790017638
Ge 8.68059870556617 3.1519293263449377 1.82476085818664
Ge 0.59398978729607 6.8086598959453175 5.303705061505601
Ge 7.805530264994019 6.193136956875346 6.326876354548579
Ge 2.8110990326566427 4.168957011263458 2.45624276769757
Ge 4.907836104714224 1.5665865032816821 9.031521067872221
Ge 7.592455495296881 3.6349946312176162 4.389698950891726
Ge 7.903708030278691 6.389019451718296 0.9089236124155006
