6
Energy = -21.25835725 eV
Ge 7.556843478048373 9.127134842255215 7.2880314643546455
Ge 9.79634339342414 8.095389117922494 7.076104252549988
Ge 6.517131446149768 8.321582948384433 9.389921490655668
Ge 8.131350904114644 6.767197317640238 10.444506608079179
Ge 9.194924368079041 9.242672198263477 9.59303271476985
Ge 10.169309819819107 6.633517160518527 9.043603808780965
