6
Energy = -22.47071928 eV
Ge 8.492940736095377 7.944442499553465 7.510310011711703
Ge 7.6441336752361675 5.3797468247943785 7.502724698300144
Ge 7.648856283564779 6.617240981428289 5.284305085828462
Ge 5.25781290277442 5.831072904624036 6.265205423158785
Ge 6.143990267847596 8.404028484342692 6.277448188159069
Ge 6.083214481896405 7.12843170479215 8.474140141677518
