6
Energy = -22.54921323 eV
Ge 5.178613529849928 7.300810760297167 6.6970812093578775
Ge 5.675160472382158 4.649606606769731 6.334303059090766
Ge 7.408386847202946 6.7528775046020595 5.629974579942935
Ge 8.016778414369691 4.738798151188038 6.998506654773347
Ge 5.543002559205236 6.134913922725492 4.073111308878029
Ge 3.4685386805711325 5.761822871147743 5.54433494539667
