6
Energy = -20.36649497 eV
Ge 8.082919441360575 6.709084211967065 4.851009669179388
Ge 5.985755085095171 7.656260178234559 5.748156548878011
Ge 7.6815044892470405 4.320232174575443 5.610551734003166
Ge 5.225446430964554 6.7972635771021 7.987990754460293
Ge 5.489182672468187 4.6562011035476765 6.695028668243121
Ge 3.9281160901843672 6.226756451202704 5.499794810561235
