6
Energy = -21.56452296 eV
Ge 9.242907014764329 7.912576515881158 7.591564807071121
Ge 9.075068562675206 10.037456171823111 8.810316838710596
Ge 8.176991478734525 12.288091883150123 9.130489101566154
Ge 9.836932880419022 7.720350771814786 9.971547800880662
Ge 8.895178038111439 11.22531825596382 11.230281720940123
Ge 8.023970051400056 8.904573754396766 11.179874309713076
