6
Energy = -18.544962 eV
Ge 8.098224873374646 10.352306151718512 6.734661183711471
Ge 6.891594395912439 5.875398228297578 5.647176800710251
Ge 6.387912663993272 3.9747794228636617 6.930709149197835
Ge 5.393772432489329 7.705612727290059 6.61066180884196
Ge 5.762698289827568 2.3581566059179293 5.396061755525287
Ge 6.853137193499444 8.884095600357595 8.044490630486422
