6
Energy = -21.62631951 eV
Ge 8.85826226132176 4.357853710555683 6.442833373702164
Ge 8.829720392186099 6.819801931435994 6.9417591446405496
Ge 6.548622573159268 7.903847980758457 6.462128823945965
Ge 4.3729081248236215 8.873316675589939 6.442833373702164
Ge 4.4014499939595195 6.411368454709629 6.9417591446405496
Ge 6.682547812986354 5.327322405387164 6.462128823945965
