7
Energy = -25.65125999 eV
Ge 5.780605603144575 7.644253923811215 6.914483230368574
Ge 9.898313560869484 7.330376669353292 7.535609165765567
Ge 9.551864192018273 6.376752775370465 9.896813943391676
Ge 7.456682873407192 6.610945800742853 8.46766017595321
Ge 6.29418908736056 9.78757818862705 5.702866042863327
Ge 8.541445522598384 8.734957775975882 9.769654438621021
Ge 8.06803270401832 9.061862234094654 7.303631177921619
