7
Energy = -24.73034109 eV
Ge 6.427163069752517 6.644485689503547 9.594035921498362
Ge 6.526046235086988 5.438170478666759 7.206409393473303
Ge 4.6794667548719495 4.942243855841363 8.861323096881193
Ge 8.793177281770904 8.485493836988246 6.025581326961915
Ge 6.632437271227511 7.078526617693809 5.182127472763407
Ge 8.459643271820076 7.777345889767031 3.6945734788827185
Ge 6.9202371197200145 8.058448047042951 7.637673820021458
