7
Energy = -26.76607873 eV
Ge 6.307696396066596 5.542837343260906 7.789340279107363
Ge 9.012668467449197 6.758292609529026 7.602011032472752
Ge 6.721636966526799 8.11226701734586 8.350202593840482
Ge 7.944365168566007 6.068758543619136 9.731771910412522
Ge 8.722644626543277 9.22921495983229 7.001313814254179
Ge 7.107980488803441 7.01436409173002 5.852115817765977
Ge 6.365667055730055 9.379821914896851 5.936720352592202
