7
Energy = -26.89555541 eV
Ge 7.314552267296619 6.497932144116032 8.298592375607495
Ge 5.747604426141216 5.123461679072977 6.155815217623431
Ge 6.154892981940808 6.19297926953651 4.015505781861128
Ge 7.918873796609179 7.06799280070328 5.433009448553111
Ge 5.17919893761187 5.367087980582521 8.506000623184521
Ge 8.530919578800106 8.390592355068376 7.384152182730268
Ge 5.582196907214381 7.81758781464648 6.642183366089509
