7
Energy = -26.11353037 eV
Ge 4.691270301297797 7.761956036574009 7.031123933006516
Ge 6.923770062565013 6.122725077542688 7.936865175319859
Ge 7.065250296658697 8.447301908067468 6.4514294194715305
Ge 8.731058827290141 6.317806942978915 5.651375466797532
Ge 9.047677499247728 7.525332221528476 7.921982930192746
Ge 6.222137222793581 6.163501068806968 5.262943264067282
Ge 4.683408570293573 5.1753249542645525 7.161303906380204
