7
Energy = -26.46271351 eV
Ge 4.244112161330968 6.713986637107132 7.957957467577286
Ge 7.287056420092123 4.887787140440411 4.955130069662835
Ge 8.026279417105382 7.306541300003952 5.223787919605263
Ge 5.260284840112068 6.628405362256047 4.589242965852623
Ge 7.600586565586669 5.590691978091842 7.540376213933591
Ge 6.145225180916029 7.731956515858881 6.8595784103825155
Ge 5.150239505550527 4.8036107938093675 6.624157789000717
