7
Energy = -27.82479192 eV
Ge 8.484224678247362 5.771293356445219 8.219313780198814
Ge 9.119025796299983 8.316316264150775 8.687639862772622
Ge 9.266430108791774 7.356459787281079 6.20798037012451
Ge 6.991862768542616 7.23870482155249 9.891290560073188
Ge 8.262072288869263 9.797230493287865 6.644318047026603
Ge 6.8781670305025004 9.727402350475607 8.929217469487135
Ge 6.843437914623647 7.637642396698763 7.265915524078112
