8
Energy = -29.58474686 eV
Ge 4.2898982797865335 7.376370730031741 6.6805400127568815
Ge 7.647162651382013 5.093023362325855 5.21054735130942
Ge 8.712843057752158 7.153839604349583 4.451267298419083
Ge 6.367391680223189 3.128070160194426 6.029278074450106
Ge 5.833043290300379 9.211490547646944 7.699580551641261
Ge 6.500233193089425 6.948413401835502 8.6427782604273
Ge 5.5652720672418585 5.2441506471488175 7.040864705761248
Ge 6.827993552146678 7.585802760626061 5.997425367329574
