8
Energy = -31.05900292 eV
Ge 7.833765298765907 5.0394736974840795 5.712331609433717
Ge 9.610353363289887 6.576866894663785 6.951876378162309
Ge 7.351547175146175 6.576069622858643 7.89433835198721
Ge 5.801479657663989 6.576069622858643 5.258688480822953
Ge 5.319895675955653 8.113609213683823 7.440210512744787
Ge 3.5426734695202757 6.576866894663785 6.201150454647855
Ge 5.319261534044258 5.0394736974840795 7.44069522337645
Ge 7.83313115685438 8.113609213683823 5.712816320065377
