8
Energy = -30.77236435 eV
Ge 7.033871914303055 7.7383408098427555 6.314178947253965
Ge 7.631029979050512 5.014261631697887 7.050730350181791
Ge 8.477284066789137 6.89200971977568 8.537269648213568
Ge 4.893533183012925 8.646344651418124 7.543486666533134
Ge 5.684405120869987 6.369221307821443 8.330911541925301
Ge 7.098201911141555 9.38004777464031 8.563238750788827
Ge 9.458349951057068 8.903947738533835 7.3380614398876345
Ge 9.326741896345325 6.679573112772813 5.919879725170784
