8
Energy = -28.89664343 eV
Ge 8.168977171913218 6.229181601056931 5.885035047609604
Ge 7.346625821952037 8.404704438452628 5.1276080544166085
Ge 6.795266179412014 5.234230919573676 7.860504827390768
Ge 7.338726166094439 5.668915965395904 3.661839830192008
Ge 5.455952650583032 7.039445373606356 4.391573204287263
Ge 4.904452498916327 3.8565203574312905 7.16538687434255
Ge 4.912318426612876 6.630360452776018 8.556182329531774
Ge 4.081712312654711 6.000283973056884 6.343647480429709
