8
Energy = -30.90689463 eV
Ge 9.29242671363775 6.0078473086780395 7.7879003082315155
Ge 8.309743471481866 8.165601735342324 6.385959736180056
Ge 8.356497848221075 5.710345029333005 5.348247372899967
Ge 7.663949209442741 7.658958568746387 8.994872023740164
Ge 6.586361453320027 5.754749878714057 7.344466067563119
Ge 6.178785943285711 7.123919566051866 4.982509936998104
Ge 5.806454618140076 9.204679776121102 9.584566783055813
Ge 5.730425631839437 8.335561665995131 7.258723305270908
