8
Energy = -27.99202078 eV
Ge 4.6763213477918475 9.02922896497972 7.957377092145718
Ge 7.93801731292086 9.274028908914657 5.48915019999181
Ge 6.840856649052671 5.27478822523521 8.665234985721385
Ge 4.795914381104145 6.515295328536599 7.3552742057766975
Ge 8.887487670089753 4.350025707552299 7.044451142513514
Ge 7.000244732308057 8.732938918858636 7.92758590727439
Ge 8.963387762204178 7.074696652875612 5.457966117224473
Ge 6.994473876671435 5.735439502372027 6.180653986871735
