8
Energy = -31.1231996 eV
Ge 6.78723001932362 4.2429100553438195 6.133199896147007
Ge 6.665659299738874 6.085453859638349 4.129194493719112
Ge 8.7828796873972 6.712285567750462 5.310119530483738
Ge 7.2554190233777875 6.6587560976118745 7.243204716409853
Ge 4.5793863644590695 5.923477182806732 5.974592684367687
Ge 5.94976811508951 8.305042057965212 5.541682876026396
Ge 5.508390319149205 5.110323781061122 8.387556461746037
Ge 4.988250856483694 7.6601176555633215 8.017982603045564
