8
Energy = -30.41236854 eV
Ge 7.211517243954931 7.085569014093377 9.210441394032031
Ge 7.051180810982494 9.217579991108726 7.4441331735153184
Ge 5.442948600043898 7.297558355121625 6.954439629675644
Ge 6.898276497901334 5.356698828723367 5.209929367114051
Ge 6.846524404418164 5.045116164433095 7.688555619301803
Ge 8.228563448839532 7.053293761885411 6.4169231903598725
Ge 9.57975356494543 8.278375966823607 8.163097070692082
Ge 8.585933378356277 10.545252637664355 8.70310626753982
