8
Energy = -30.08159467 eV
Ge 8.037172709397906 4.5116631301903 6.325063441154298
Ge 8.352838439287307 6.784530516150977 7.5135972120476335
Ge 5.511536303778119 4.221755743601768 6.021792497101042
Ge 6.0918506475963525 5.776564930692765 8.103235639443641
Ge 6.7823856962903015 6.690204144725057 5.431448500284476
Ge 4.590460591167763 5.520203524671227 4.032886813871743
Ge 4.107832066803321 6.66506021928949 6.513410009793237
Ge 4.911533935574091 8.046914846266016 4.372197752568208
