8
Energy = -30.37590032 eV
Ge 9.92879297437446 7.1832726701892975 8.178711074540901
Ge 7.55220727626043 6.740848493600561 8.758329650337854
Ge 8.459326511916993 6.201891314033236 6.212809555163292
Ge 8.502760419377893 8.854157391557852 6.911214461215542
Ge 7.581944194369141 8.052523116161268 4.6298867940501465
Ge 5.982610738622305 7.800642423226761 6.509616584188876
Ge 5.479193235317022 5.5314355683282255 8.435718446625375
Ge 4.832746726886991 8.016063938465017 8.610179658264965
