9
Energy = -34.35443947 eV
Ge 10.217695080478936 3.728515712841613 6.045258245535836
Ge 9.585817571063453 6.059095489388835 5.883987032351195
Ge 8.088876624887163 4.176146396371453 7.149460393364504
Ge 7.247273731178732 9.53496332382345 6.427733104712637
Ge 7.394564005662494 6.596268425801043 6.996367869153561
Ge 6.654425553160833 8.2494938768927 8.749641173145285
Ge 4.133746843902704 7.700828367061929 8.589601755321178
Ge 5.251133137298235 7.692375775715567 6.255545871641692
Ge 5.064698161729008 9.953176064581433 7.56175531469538
