9
Energy = -33.51565987 eV
Ge 6.193549829766563 6.166772667532499 5.582148709052949
Ge 6.0004181560128185 6.998478141306947 9.506192576822155
Ge 7.872069003542398 4.387671467921852 6.574005531720582
Ge 7.13698615471041 9.066772736104694 10.260949469138673
Ge 5.127622491678878 7.900903169470971 7.29266554923454
Ge 6.601006623215496 6.929147336249478 3.257669569319301
Ge 7.383071962057544 9.017832882562919 7.73346681141809
Ge 7.881891943415777 6.606940117748709 7.949863704238312
Ge 8.203124688899377 5.347896870668614 4.251366283346324
