9
Energy = -35.77308528 eV
Ge 5.147687255617894 7.694336918352493 5.40770816970189
Ge 6.910266937238748 7.954710933718848 7.601267747177461
Ge 7.87720075746141 7.467930462573719 5.067733059526148
Ge 6.973076430041938 5.529137325068336 8.863349703863063
Ge 8.898014034685408 6.105282316008266 7.221437384858387
Ge 4.597940335096737 6.463725897054816 7.818301625492919
Ge 6.173024287167955 5.704141111260059 3.8284755305687783
Ge 6.6437134156718205 5.2289757981190075 6.3241564508603005
Ge 4.22140852669325 5.120748851539195 5.439668592360233
