9
Energy = -34.37959538 eV
Ge 8.246109361303876 7.856457595841953 7.422833840411715
Ge 6.150661595446057 5.400746869321368 7.059655767341119
Ge 5.008534118974275 7.706301212012326 8.168768185113626
Ge 7.070973555218598 6.358037344160237 9.379870574987017
Ge 7.981559462442575 6.17186656426993 5.220698174449447
Ge 6.814473941077314 7.5431569981843065 3.4833354450329317
Ge 7.062495966203521 9.005400873051945 9.278452798424249
Ge 6.024711401664984 7.90520456216168 5.771603769747055
Ge 8.99178530061107 5.415772015518357 7.470190290763279
