9
Energy = -35.66287693 eV
Ge 5.417112755916541 4.949883329554574 5.787021083358354
Ge 7.937411904037004 7.860141725249663 8.031932903281579
Ge 7.742874265178118 5.135345829351416 6.824130564629412
Ge 7.592221982547601 9.4334011695933 6.040461244506396
Ge 9.002104868100819 7.226456113162609 5.636252114838599
Ge 6.323208132727871 7.312786886493983 5.364093099425803
Ge 5.453750978049578 6.182928344929682 8.012409586902606
Ge 5.464191187613581 8.828829004946133 7.453234707011317
Ge 7.577112243400019 5.665805138499858 9.313791448854067
