9
Energy = -34.24501645 eV
Ge 3.581822085834656 7.040929511732529 8.801258930349436
Ge 8.297295184883442 5.939308976873295 7.828657893325176
Ge 10.118552770465959 7.846978513206326 8.02999449579851
Ge 4.149134578727733 7.34595430318451 6.434401901261789
Ge 7.798989586397622 8.821152710701023 7.534392124720826
Ge 7.9056385649363765 5.251428325259365 5.088717253707345
Ge 6.5803576285308045 7.195299750346651 5.86770069586107
Ge 5.957975372529332 7.2262614071661435 8.49999468679673
Ge 9.450581801139757 7.167971983198938 5.725399960149875
