9
Energy = -34.76950792 eV
Ge 7.18751236413261 8.518643558869167 7.583855211667351
Ge 8.225497482543206 6.45762525998435 5.946926412236267
Ge 6.526941136993337 7.479404339440248 9.85319773040031
Ge 6.884351084563251 5.7072493382648135 8.083497125476624
Ge 7.960490865366225 4.950169695585093 3.9263804832703535
Ge 4.506489026398878 7.486299888494839 8.303155031954086
Ge 6.096797273471155 4.554145456242994 5.653885476818672
Ge 6.25116145147547 6.83070830682078 3.746948011572873
Ge 5.486003097328699 7.121720793275023 6.0716066390016685
