9
Energy = -35.08764389 eV
Ge 9.236368233902011 7.284952122758967 7.481894679911509
Ge 8.359750955906051 5.858530634779315 5.4826962392091945
Ge 6.371562925228144 4.202712967109693 6.392679542706439
Ge 4.181406808909018 4.74075101517975 5.079495613382341
Ge 7.437111020103529 8.549324333041733 5.94009242300365
Ge 4.333528038338963 5.9051625500908 7.494619844557733
Ge 6.985035999682585 6.3487523866505615 7.833069330113738
Ge 5.836335505831988 6.556935179635095 5.047820567308708
Ge 5.125878735576634 8.347109310674755 7.1138106918675295
