14
Energy = -111.31172935 eV
Hf 9.73183638373734 8.85799108573416 8.15259745692661
Hf 7.263100057963381 10.119768105064114 7.7233852770919444
Hf 7.71099642261357 8.129039331531432 9.966099511793788
Hf 10.658699416104522 6.985537874194234 6.298137936124867
Hf 6.226190692893835 7.485970687999796 7.640602216468836
Hf 8.396001924191681 8.39836894396224 5.56963988082559
Hf 8.939755200345388 6.031086268928837 8.239017487382418
Hf 5.752752330914345 9.289606061889152 5.3551523614073515
Hf 6.629503941075909 5.417888961385539 9.6981681282581
Hf 5.991078569837553 6.570959162922702 4.813130753572839
Hf 6.482960558642864 4.539320378534048 7.072092331368232
Hf 8.487574082245464 5.467196671608518 5.383988822834601
Hf 4.119247150324574 5.665652670340045 8.245419949387442
Hf 3.706689444398156 7.478633779256761 6.297245639645972
