14
Energy = -114.29830781
Hf 8.012099074522215 4.320895292083624 4.893795913617457
Hf 7.048005681220067 4.632179926924506 8.13175169661323
Hf 5.764112811835219 5.097177635822976 3.228603905155901
Hf 8.714017437489357 6.662796403940112 6.559232942815999
Hf 6.779684574389329 7.643648491099045 8.383789138986538
Hf 6.038048053101615 6.043226974633717 6.013983285286723
Hf 4.363899451318241 8.185181165449583 6.867523204152835
Hf 6.912187525480844 8.879674753199378 5.7973216664962575
Hf 5.409112951330345 3.1135235516864497 5.069644738475192
Hf 7.85353568087375 6.965437739749802 3.8438219261206514
Hf 4.997174994088925 7.7090882343388065 4.017764678923304
Hf 4.363708390036113 3.700910082862157 7.500780555276552
Hf 4.588922589249473 6.06903726258399 8.800091597650427
Hf 3.5093043744738766 5.331036075035471 5.245708339837907
