18
Energy = -145.12064202 eV
Hf 8.16583891662907 6.753339029931983 8.073891766472341
Hf 9.4009363850878 7.57664359552284 10.877233741791974
Hf 9.964283087700187 9.544372139662975 8.970692074836139
Hf 9.277398738122763 5.212637318951541 4.184705832843192
Hf 8.562948778835912 10.322910943581032 11.330982659481784
Hf 7.562070641526917 7.264307130248438 5.047059916330619
Hf 7.144550378200075 4.668690007862816 6.075703823685066
Hf 5.664179152208486 11.115285898557824 10.545152873003085
Hf 6.940551791850245 8.827245253218777 9.5888516721794
Hf 8.856710859765005 2.7175416382776207 5.2100941343713325
Hf 7.915916108465409 11.558294802868282 8.867253771265563
Hf 5.485574557525755 10.727129040110142 7.744354764238202
Hf 9.855212317877164 4.743920640586095 6.874075763704425
Hf 10.229970934513071 7.532764478737628 6.023406828341452
Hf 7.955837510568764 9.474610097331864 6.7108238786770285
Hf 10.963317437082628 6.909404739289004 8.709444700263571
Hf 4.048281563571765 9.058266283454026 9.311439686503489
Hf 5.542386627379543 7.889796135597726 7.070745856296991
