13
Energy = -104.3890719 eV
Hf 9.618612136449254 7.554419662228069 6.294028760091282
Hf 8.465001694142694 4.88276387252766 6.687099339896364
Hf 8.908428483963977 6.651064507509131 8.88371662355001
Hf 7.9162384127239 6.410547327383821 4.242193039798526
Hf 8.295670697058242 9.270261424836304 8.103514048354167
Hf 7.627256905375837 9.120765681743507 5.024953973244074
Hf 6.762414040890765 7.135393304411571 6.8434693719737245
Hf 6.637881596527023 7.7669494400061945 9.937479335801466
Hf 5.9598604619296385 4.674754343841237 5.340229644984185
Hf 5.210186534489815 7.191528690492335 4.368976000025164
Hf 5.90682081695289 5.237815720630312 8.601930633662693
Hf 4.3701703138888846 7.656289148621178 8.545523962968018
Hf 3.859464856268685 5.9200873729309205 6.586555961014715
