18
Energy = -145.03356551 eV
Hf 6.501354833986929 3.7852511430747215 7.206963667281869
Hf 3.79281980461886 4.304047464071748 6.4249156711012585
Hf 9.483182568140373 4.609693013230952 7.8853602921750285
Hf 5.919490814230576 4.3786908767786885 4.582309906726581
Hf 4.611122593612964 4.947538634530543 8.970047049263439
Hf 9.996221588162594 6.4932679896435745 9.902496520400769
Hf 8.230666028873426 5.72428108050465 5.346976370633532
Hf 7.324264554768528 5.902544130408189 9.171853541774988
Hf 5.610106226063208 6.5380941754455355 6.575707647971079
Hf 8.098436122429932 8.61241825621844 9.858679861165903
Hf 5.122464295728749 7.723429136360906 9.347771661179754
Hf 6.176930432996377 7.0575525034471775 3.6966686675223617
Hf 6.722135243049484 9.103803156695776 7.454237525346756
Hf 5.262019056557172 9.402182011992007 4.926684398201991
Hf 9.394468998543232 7.42316907702944 7.370613182034008
Hf 8.092766885122078 8.882904592749203 4.93076782125067
Hf 9.149195669763536 10.274956009948601 7.349896158858896
Hf 6.994979387595734 11.356623107470082 5.751514367516669
