13
Energy = -103.58663586 eV
Hf 5.134323844412922 5.401661994888259 3.680685799644365
Hf 4.318714101292932 3.814617681738757 5.78751752787841
Hf 4.456456476914846 4.852410073106536 8.327900157783402
Hf 7.5033102270251115 4.1547459641900755 4.345202938252245
Hf 6.2704587254050015 5.8727777514662645 6.28107859217073
Hf 7.519179169433902 5.110557397094293 8.663249248775847
Hf 4.958046001563622 8.073729208978131 4.055335461272922
Hf 3.5976516108044514 6.668087094061965 6.2181895056880725
Hf 5.595376937940379 7.289628326553822 8.716728071196595
Hf 7.6779431211354146 7.08027353205387 4.213951883908455
Hf 5.883294393162984 8.85072843717187 6.401377465546386
Hf 8.217770836031905 7.652348772134242 7.473666408073126
Hf 9.165056511809548 5.476015566761857 6.132698583276552
