16
Energy = -131.45413497 eV
Hf 6.912107839561265 3.4363665591089467 6.844625070210772
Hf 5.736658188279775 5.033482929180903 4.752044917672274
Hf 8.616944782092727 5.20136420446572 5.266010620369043
Hf 8.883651668040507 5.0424528168207585 8.23441481333994
Hf 7.076011984574256 7.414901401442832 4.208208479034802
Hf 6.651612101062216 6.393998834647506 7.0776880754070275
Hf 4.33863343225619 4.810152739670489 7.222981212763311
Hf 6.280501747783017 4.598368237234817 9.424943121194882
Hf 4.682486596513786 6.965538680495183 9.05182807227537
Hf 4.465300277695185 7.628023019586673 5.986658174229751
Hf 8.827919167728004 7.8078883682314295 6.974206684514082
Hf 9.279373218992278 9.35137252685568 4.775121646257754
Hf 7.521725164174561 7.221953205731964 9.74643493080758
Hf 6.681072538836463 9.71727053997394 5.6002384443063695
Hf 8.643863061645185 10.494440532628053 7.372012967994826
Hf 6.091318321583308 9.205838991425336 8.200485446316035
