11
Energy = -86.00641466 eV
Hf 8.222409106736666 10.705363763704261 9.032891472663813
Hf 10.169583703618702 8.635006002779324 9.352371848117443
Hf 10.731889079396963 11.40724733023061 8.207594112470614
Hf 9.932315181756485 9.336603522787447 6.636744483072714
Hf 8.4753161362472 11.627346444003887 6.4728406841901425
Hf 9.110646361816482 6.812696567835887 7.384264188549898
Hf 8.829483439364672 5.7195325798446985 9.908311278012095
Hf 7.386002850115033 8.127326411001125 9.79051975134783
Hf 7.178800174266222 8.9273333747517 7.049219495352828
Hf 6.620752745837258 5.936940146026569 8.203084733655233
Hf 6.284975112528609 5.706777748719159 10.904331844252171
