11
Energy = -85.7896759 eV
Hf 4.62689251380478 9.78747253976266 6.5708730484814
Hf 6.654823148311201 8.04657636997309 5.668155949993848
Hf 7.06947656231668 10.566680203965984 7.012028276230905
Hf 9.019914481722255 8.544762277196012 7.551251085180853
Hf 4.038213855535125 7.257382493810804 6.624884979057228
Hf 8.746840670084968 6.047967113397004 6.173550525153314
Hf 6.100464265853119 8.23459038685547 8.407909158623028
Hf 6.144117331680427 5.414882957892591 7.170404302322887
Hf 8.166578398163157 6.2383623052497175 9.017296238588417
Hf 8.806631021412423 3.8765134136560446 7.818886227442311
Hf 10.699088883599362 5.922781886799407 8.067569270484903
