10
Energy = -78.32757104 eV
Hf 5.34304391138781 9.650692026130562 6.1698273681538565
Hf 5.7687259084401505 8.632620289386155 8.95841731633687
Hf 9.837936061454334 7.174334015144504 6.439937148859836
Hf 7.7400589666564406 8.928235365950545 7.061950483898784
Hf 9.20731939546583 5.061238282177504 8.356814513148233
Hf 7.5317698443228505 5.720752146641057 6.3303433559083
Hf 5.161057979232524 7.037126714257386 6.573239050003806
Hf 6.432394706796434 5.859088470953984 8.936889119237012
Hf 7.212115380102322 7.940834499220835 4.617348619118426
Hf 8.66451713912027 7.573208835834481 9.208997182746797
