11
Energy = -86.06256184 eV
Hf 10.118310292447987 8.63224306449385 8.317137744584505
Hf 9.778549530376896 6.932901219171095 6.129599814486279
Hf 7.935536538356605 9.058561019230378 6.732611597082839
Hf 8.216663196521878 6.534805884956477 8.377605324391272
Hf 7.741391922286106 4.685816424729434 6.323444582569436
Hf 7.194551727854459 7.108170645075714 4.981368329555129
Hf 5.540737227880788 4.720255622535388 8.236912042531026
Hf 5.094162424374114 5.432267121546702 5.472675286692975
Hf 5.701321488141635 7.420334745321123 7.761557025891997
Hf 4.585206161723704 8.254117555415657 5.494121586025895
Hf 3.2869416351727203 6.315689019725918 7.2232784111757145
