15
Energy = -122.97803113 eV
Hf 6.996319168303356 5.5957200160137734 3.8897827737467976
Hf 6.575795579469251 8.458030983056505 4.4076313911630844
Hf 9.138755567332186 6.954682410790197 4.863265934166339
Hf 4.473563831304962 6.436547992421461 4.464006790270468
Hf 5.594680139840425 3.9478780481114213 5.55398737962655
Hf 7.698385679704111 8.180332623976488 9.10571846016297
Hf 8.385930928386 4.389390086569711 6.183039427700021
Hf 6.646217090765631 6.648926969237133 6.652690703014764
Hf 3.604082080224331 7.226488127761505 6.992995335353695
Hf 8.389608591364222 9.09082528746054 6.537489205216265
Hf 5.628353791371677 9.29075315982133 7.249806308879138
Hf 7.387113589797231 5.179839749483524 9.01740426623783
Hf 4.662778043590284 4.725535502122544 8.064957185386415
Hf 9.476627085019343 6.588454155278167 7.647816609275121
Hf 5.190794918985445 7.13560097335373 9.21841431525887
