17
Energy = -139.30980684 eV
Hf 9.210854437565345 9.93260396502016 5.98859366158825
Hf 9.575967356095667 9.443298628678358 9.045093589828468
Hf 9.874259422255106 6.139673522902582 8.718861045888358
Hf 7.599480575000039 7.233070512127699 10.546685122549002
Hf 7.211725551492409 10.87503016562411 7.602921438794737
Hf 10.895048280010386 8.041542303161666 6.844017378949951
Hf 7.242548867170698 5.040562200818694 8.7367582918592
Hf 11.015547865928308 5.536034225104365 5.945652571183077
Hf 8.760195799487201 7.300941825077289 4.911126694585394
Hf 7.737861278823459 7.911115989823387 7.674407287214368
Hf 8.438351336739206 4.894535084675993 6.380403190205337
Hf 6.896127451982624 9.961515710348042 10.097777663759842
Hf 5.041313118311318 6.461033863852016 9.064159335629114
Hf 5.89816831078907 6.361767992163601 6.265542166520824
Hf 6.5210468086751465 9.205969449419253 5.39771706935706
Hf 4.994422463590817 9.07504423960301 7.960313806631809
Hf 4.862119651844033 8.437397544981147 10.8971200332943
