10
Energy = -73.52681574 eV
Hf 7.4157914472497755 11.094680856703171 8.033278159039977
Hf 6.800948535067524 8.70007685736129 9.387933924075432
Hf 6.8498795509271675 8.82058722227504 6.460029387300931
Hf 6.258461921700861 6.223078918243817 10.63022892957859
Hf 6.243548935548436 6.292639022281897 7.809717544416207
Hf 6.344110861779479 6.465287965222343 4.992762836831591
Hf 9.347642093738116 9.033437149371856 7.964941482313301
Hf 8.74382874085255 6.513141185079245 9.326989801562675
Hf 8.787142752203241 6.620285616165199 6.397446720221388
Hf 11.157341667537716 6.862734646980652 7.908765250744505
