17
Energy = -138.74143212 eV
Hf 6.023495775174321 9.649894773371239 9.3073651370115
Hf 4.283102277159065 7.132878078957465 10.097402369329476
Hf 7.07596980854957 7.20233167407796 10.201607115883077
Hf 8.515305794780737 8.765831630367671 8.133536332113987
Hf 6.587981617181203 10.05467430799267 6.507914779708168
Hf 3.596531169902352 5.4559290429146134 7.514317762195988
Hf 5.758273267980714 4.924924820399308 9.225001804999991
Hf 5.578380679877738 7.440811894324839 7.630679611943919
Hf 9.195392688736032 9.473970016003197 5.415537841529542
Hf 8.337072381404704 5.629706341443694 8.122962941470606
Hf 7.3703782707630054 7.342842708742351 5.435469129464146
Hf 4.513869098721411 6.478432025964819 4.974592658206019
Hf 10.177659431746688 7.032528372103197 6.3894835265829855
Hf 6.040467519590613 4.497510549392494 6.302211535953147
Hf 9.503616701108312 6.858347792698191 3.6846357079109424
Hf 8.858296719493648 4.757305742988743 5.4112670197943045
Hf 6.764737457339211 5.290691786375719 3.616534764277415
