19
Energy = -155.56800393 eV
Hf 7.5279658065393935 6.799150192414079 3.318714123403774
Hf 6.780898250912825 9.540940665243001 4.010549009326013
Hf 9.206321915845827 7.622467511102639 5.396434797576443
Hf 5.014080992566282 7.3712868703555845 4.305540054529839
Hf 8.98137382533027 4.845387044919711 4.692748419758153
Hf 5.964342880014088 4.648872513187175 4.06394091506019
Hf 4.339172368290966 9.51938784623938 6.01950436107555
Hf 6.808190398429624 8.880954185901047 6.669676509249723
Hf 7.0228179201641 5.390647331968251 6.463431123471395
Hf 4.380039285968132 6.756366534678684 6.950672222986766
Hf 7.429690659118213 7.115631319346947 8.488510756073488
Hf 9.792418623826224 8.850778901566454 7.97900072209284
Hf 9.96582892645994 5.979130553843507 7.596585395826849
Hf 5.2053475921404715 5.421343981812829 9.345905538298153
Hf 4.934861031201156 8.320094629737056 9.228811122170864
Hf 7.662927510541941 9.468966519384832 9.845650859576654
Hf 8.036087855594001 4.713450257297276 9.554813632080464
Hf 9.545084068004156 7.203913009931079 10.27543466709651
Hf 6.7772540886247175 6.925934130643861 11.16877976991816
