11
Energy = -84.92282993 eV
Hf 10.547807693704197 12.058146336587717 8.69871589789263
Hf 8.21253645762923 7.951099944927804 5.567262083550019
Hf 9.887152427222212 7.130135495795471 7.777234772451119
Hf 8.21479394871576 10.943137164264103 9.638435326096408
Hf 10.691723347957899 9.450159114052479 9.667178608150921
Hf 8.528163769810822 5.520217094484044 9.711725547243502
Hf 9.28391902103801 9.87360098854498 7.303283634664841
Hf 5.867749486268573 6.910901049709744 9.625228368323183
Hf 7.223980638357285 6.194859166799755 7.396718912300029
Hf 6.567328444525435 8.968266860390735 7.726243478818921
Hf 8.216785576611425 8.241417596284125 10.129914182349014
