11
Energy = -85.67562311 eV
Hf 4.2897603603586925 5.590654368518714 7.208003192430212
Hf 4.291890630131339 5.584018354725368 4.320794281070913
Hf 3.1089773625994286 7.713292519644869 5.758675739379124
Hf 6.439648028425229 4.28697552343906 5.769148822302127
Hf 6.073034607568626 7.359195888716482 5.761504339193386
Hf 1.8946317758323827 5.300852378090712 5.763307439798736
Hf 3.642940324386212 3.244675860812755 5.7692611439014945
Hf 7.670961440566928 5.9989782755116705 7.688346976282951
Hf 7.67413882923553 5.98967886026048 3.843828127441153
Hf 9.330244965448308 4.78599609700004 5.770377554684875
Hf 9.00040439198457 7.562314330392274 5.763385100052544
