13
Energy = -103.65081693 eV
Hf 7.584859765555526 8.076025574617992 8.827782499191155
Hf 7.57555899614587 10.026496487735779 7.069239651983576
Hf 9.875513506725097 7.9716332861085855 7.236175909714161
Hf 4.909155135882399 9.064553642670912 8.655751661872936
Hf 8.125363118851707 5.427541555140713 7.591554735667485
Hf 5.651097190039744 6.282031036281676 8.66016835797105
Hf 3.4713842995510102 6.516334091736769 7.26604622617919
Hf 5.397253985382139 8.37503422425867 6.199216433929487
Hf 5.442979319477192 3.9439044878888074 7.015937741391805
Hf 7.925413438964293 7.48858802967173 5.30077895662279
Hf 10.06435103847879 5.7501565536944055 5.633493199325918
Hf 5.413765644875359 5.901549456444989 5.264067732526875
Hf 7.755099930288526 4.3970184885283485 5.024705265123112
