10
Energy = -77.62174448 eV
Hf 7.590691029835138 4.659914554296207 8.104494215289353
Hf 9.02449374345694 7.225579803302954 8.189416112155367
Hf 7.555243360269067 6.592855616004006 5.8759535448249105
Hf 9.62782722550301 8.601697121370211 5.711222130398791
Hf 5.224270118692132 4.431769805597147 9.361017165259497
Hf 5.137956566001116 5.125724855508446 6.750076548605947
Hf 6.145556235867473 7.1113088698563205 8.560373171904624
Hf 7.261151445323972 9.046645593700658 4.3759424595198615
Hf 5.102270612238188 7.9601533200736645 5.980620406897386
Hf 7.374255614186739 9.282552368304781 7.093949937358347
