15
Energy = -121.76229473 eV
Hf 7.783252567126195 5.025162616549084 3.7374065704413266
Hf 3.879623850842915 5.0150357351456645 6.268583287471797
Hf 7.621931770756849 5.0218050201335895 9.03414111428234
Hf 5.105174596035579 6.362699142745367 3.818193436531034
Hf 6.533939356845647 6.343789086151054 6.348771919728592
Hf 4.953649506658004 6.359676588574704 8.791455698486121
Hf 7.660067381768706 7.623303960424401 9.027913601271317
Hf 3.9124890893544064 7.726463385990375 6.271430755691827
Hf 7.818404628362692 7.628687925147475 3.7467193031905963
Hf 5.9114768043257 9.068971100470643 4.903316289544219
Hf 8.292277639912532 8.814991497146563 6.403926090467181
Hf 5.824419139162948 9.067495563713502 7.759480481216458
Hf 5.7654645962697915 3.6278615196529524 7.752072950007206
Hf 8.248821359898095 3.84877373276054 6.4014827833487855
Hf 5.854448356546612 3.63072376926128 4.900546362188627
