12
Energy = -95.42478472 eV
Hf 4.842859378121969 8.884907960620026 6.5255131592089235
Hf 7.643410622436618 9.78528147501516 7.98063750369904
Hf 5.888073530853903 7.838429350624288 8.893556624407537
Hf 4.8250043676034755 6.139188822995981 7.035460055901137
Hf 5.588964999165848 6.505490173113914 4.392141577501054
Hf 7.273209749835962 8.380078639922864 5.597188443203412
Hf 9.653991357015652 8.008642688959977 6.908990610289943
Hf 6.514462371169614 4.224540259049451 5.947958361582267
Hf 8.418226741957263 6.034980944765255 4.749236176347394
Hf 8.567742684483198 7.5043770429803 9.537740663423305
Hf 8.383257311803362 5.641417410891516 7.4633085529441825
Hf 6.378177275732277 5.096866151460968 9.110114654208935
