13
Energy = -103.65118175 eV
Hf 8.121244859511224 7.642720102750752 4.711217747934361
Hf 10.162606280926349 6.07949682292973 5.9689633439074345
Hf 7.508562911729711 5.15209230817199 5.619683219859262
Hf 8.531411095105112 4.367049157341991 7.928379607625095
Hf 7.126446524208003 9.719982306996314 6.429930737568584
Hf 10.077728152348602 8.948303181431536 6.040481622396138
Hf 8.521752413288237 7.402009505027999 7.744937161346516
Hf 5.540224800375798 7.181039646026273 6.130764625606381
Hf 5.2995742735107365 4.336790948436647 7.176484566640198
Hf 4.131361674721238 9.392776762484942 7.049086315196874
Hf 6.414528518964253 5.900491166016081 8.993921728357815
Hf 6.0049546556476745 8.584836393550354 8.820183254353799
Hf 3.832806307957984 6.807347577669101 8.26124877800974
