18
Energy = -147.83468853 eV
Hf 9.181958880017694 4.13199212270195 6.875920427108203
Hf 9.235476638588162 5.527400100196435 4.48592383560031
Hf 6.617833877490985 4.634471601422004 5.439043560957396
Hf 9.08365552175727 5.964751064306833 9.053239387925839
Hf 7.139806792123533 7.3566779962293625 3.8940783917779136
Hf 10.692436698461387 6.552992916929462 6.833117067045342
Hf 6.758370773574397 4.4291811631636 8.417409668486941
Hf 9.683892604134387 8.293945941267742 4.8882299922483154
Hf 7.727324442255883 6.88569959262239 6.6475584117541855
Hf 9.111340007101715 8.865428517174028 7.824508171403089
Hf 4.8535291756945504 6.557832049101887 7.203717162246014
Hf 7.484043246358047 9.79451530634125 5.457859335051949
Hf 6.485542257539417 7.017957721621253 9.66353721935831
Hf 4.873936856335807 8.768348528293702 5.074165679241938
Hf 4.274022347680354 5.33392748957372 9.7975744298388
Hf 3.8642454034627964 8.04179638774278 9.590745587112796
Hf 5.751801555418035 9.314252479200398 7.738891136698887
Hf 3.0311464229516534 8.780077385214526 7.0778136334821005
