10
Energy = -78.354296 eV
Hf 8.384453783721264 5.109042663146274 5.863115293396823
Hf 6.777447291829944 6.975745963178852 7.116688176561679
Hf 6.653580616787143 2.893331101437748 5.549481114097796
Hf 5.427742526469462 9.12663108981859 6.519107200028809
Hf 6.321276989790411 5.317446718710216 4.019659499649186
Hf 4.389218338095582 4.638956103421504 5.940559399371061
Hf 4.500985925128327 7.24683659880811 4.922057718192347
Hf 4.15181345690486 6.733961900340043 7.813806825903251
Hf 7.376015686159515 7.865977753794119 4.609297469025734
Hf 6.303370443209151 4.377975165440345 7.932132361868859
