12
Energy = -93.81409467 eV
Hf 7.3047992862518285 5.079905616227649 3.1358030768983465
Hf 4.717924091421131 4.35849755964187 3.470664785823393
Hf 5.026177271736042 7.086658800914109 3.0539782143519214
Hf 2.5001918272726056 5.938129328342388 3.8347362236981413
Hf 6.435646973584041 3.7152555303426347 5.650801895727086
Hf 6.677970014331128 6.578987869589441 5.3964846553268595
Hf 3.615070871122458 4.376504512371852 6.032202535888105
Hf 3.97591990559677 7.179671647175235 5.885340614942639
Hf 8.435495158654762 5.473723188601214 7.2212717267793005
Hf 5.652848373173981 5.488650717176549 7.860596659165188
Hf 7.159374465774807 7.866919689052941 7.87486810971212
Hf 7.747219262919019 6.105733042402689 9.831889003525598
