18
Energy = -148.66615793 eV
Hf 5.374390656938987 6.770570934546553 3.268578788400912
Hf 4.828850300829251 4.187430940309588 3.961988495113276
Hf 7.70628198558339 5.112318461893885 4.002562780393227
Hf 7.562328774790718 8.066464705450564 3.8476385506487345
Hf 3.1278686322709968 6.6373082564835855 4.827649138609115
Hf 7.942162601305247 9.297400419013576 6.295725188591469
Hf 5.113803098295777 8.839231283717622 5.352852156722901
Hf 6.653118432322548 3.1320874566190127 5.784246604666292
Hf 9.527087668786505 7.022431474576347 5.487749333335571
Hf 3.495919612960744 7.656222487701395 7.39918032228688
Hf 8.901753965516377 7.478274074371404 8.150216336667144
Hf 4.451021781194773 4.949792648187291 6.642905207475376
Hf 8.707395810211736 4.645407608711273 7.177104197465592
Hf 6.0691614972953944 8.417054615687768 8.499290136097278
Hf 6.7705353813357805 6.615755940232259 6.343456800338532
Hf 6.201632687505794 3.5995363271763536 8.445812365155968
Hf 4.552895068526529 5.96690393529918 9.300570086007955
Hf 7.293113293358431 5.885129679051337 9.491794761052773
