16
Energy = -128.77443849 eV
Hf 5.4681153681072345 9.52743999889762 10.699263408887678
Hf 5.7593384089602635 6.440056850089352 8.63496921679766
Hf 8.402266898265609 5.627685096708111 8.387427347023426
Hf 7.679406016499629 11.005106722190687 9.542635887212256
Hf 5.858428089503087 9.395624868047047 7.891376173676715
Hf 7.79693587285317 9.984473585632784 12.087737900793334
Hf 9.073560664541763 9.208103998140897 7.523243677523305
Hf 11.819841867324545 9.254015280672146 7.682307208844509
Hf 10.073109712138656 6.6582047831106665 6.395529162367116
Hf 10.30508273738832 9.863536037665693 10.100823350299985
Hf 7.795990308849177 8.073109729713757 9.972578027874738
Hf 10.635371057794554 7.188850840408052 9.132879082040377
Hf 10.436643234729868 11.65140021792522 7.987997278862054
Hf 7.211346642978131 7.600095001151914 6.221574006991257
Hf 4.545908995231876 7.05943449066349 6.356772463304193
Hf 6.586949103396009 5.016543623424043 6.275079236314203
