13
Energy = -102.92868271 eV
Hf 4.760999942652647 6.592194106185909 9.154531966152575
Hf 6.08514113009826 4.231462407981931 8.036627496818866
Hf 8.895512604047685 4.7393456818189295 7.400700580287373
Hf 4.756217504340847 8.610456727001054 7.291282937863647
Hf 7.0786944407334635 6.907057940206141 7.554563244859545
Hf 9.06827328830015 6.683639119466815 5.468564623834067
Hf 7.024677575957872 8.771243080683867 5.458370661706355
Hf 6.983084057976356 4.665141992673899 5.321709550802674
Hf 6.943909542758809 6.7717039269120844 3.473477560779965
Hf 4.294324805597622 5.86640303410919 6.4613316903654185
Hf 4.629071481157786 3.152841740239374 5.728373149223112
Hf 4.5430968753242995 7.844100338655285 4.488665791827231
Hf 4.610189663412371 5.0242574725407865 3.7140697888830054
