16
Energy = -127.00078625 eV
Hf 7.636368243695557 4.869555909067216 6.664718362522156
Hf 8.098921646754208 3.7779801573933667 9.120117495074915
Hf 10.153073886041954 7.246750960248286 5.638245494374972
Hf 6.465426108902292 6.125857751869416 9.061714703363107
Hf 5.082535139842547 8.580232490482603 8.073301187913145
Hf 9.235450822386163 9.828155480381664 5.084325870557425
Hf 7.560086503605891 7.888380376056706 6.573341526430625
Hf 7.746817284807892 8.80891396429022 9.588869206911262
Hf 7.315649414677842 10.662778501477115 7.552787398937019
Hf 5.0748044578032845 6.074713507256226 6.497146000663143
Hf 5.398645278166033 3.7658737302393956 8.081539690938225
Hf 5.618950071333284 10.585979830460676 9.935715907902134
Hf 3.6441802606696614 5.9402553167374625 8.808370245492286
Hf 11.885941802308945 9.396348849789744 5.574923787982679
Hf 9.882405264057509 9.258046763333422 7.696927098499912
Hf 9.402060049033976 6.3941180059184966 8.451105897677289
