13
Energy = -103.73455798 eV
Hf 8.214109916046503 9.594478289857465 7.862192352389301
Hf 5.97697601038238 7.877686981777978 8.407758843885427
Hf 6.053233714571667 9.534540501634474 6.077091505523042
Hf 8.86946741776625 7.168034787989552 9.127021989686362
Hf 3.669888740610694 7.8489176421676135 6.4268018684397035
Hf 10.534900310357713 8.04524573031505 7.14478291979128
Hf 9.884154957585416 5.313653079873436 7.204135194707946
Hf 8.020138398107015 7.148264854037095 6.255020819828055
Hf 7.3618729721597 5.017613411556308 8.402867592828178
Hf 5.676994508836571 7.0495667313045765 4.758617838123203
Hf 4.879196826085166 5.4682547244263295 7.383591731812994
Hf 3.8153676392048963 5.19815203648345 4.962561933934382
Hf 6.8235543601466295 4.494706358120629 5.61838790861006
