16
Energy = -128.15364639 eV
Hf 10.69734546811022 8.113417242492194 8.111331357604495
Hf 7.7344419914297955 10.229165588813025 7.035082234718462
Hf 10.44947341863568 10.419057124644892 6.505377280041412
Hf 8.840878393291852 7.82829620037982 5.880937173437421
Hf 6.652038733597508 4.639868767546979 8.118478894915567
Hf 9.286325660665906 5.747926068223 8.30863215171207
Hf 7.721127097344024 5.139401947032571 5.661986471577331
Hf 9.110011692894773 12.60268439288997 7.440839735052944
Hf 6.42488891023478 6.991278964864271 4.182218366596799
Hf 4.904547522912149 5.237458544994066 5.947825119958857
Hf 6.157243701537756 7.463398362418604 6.824309596107196
Hf 7.582761063187954 8.095321095803115 9.175920414598998
Hf 7.51036023492457 5.655657738232236 10.584696471538104
Hf 9.581497767571946 10.390573983171251 9.236429906312065
Hf 4.952656599861607 6.462979147399508 9.207329548827644
Hf 9.751175785229027 7.5102528493550835 10.658029428589597
