13
Energy = -96.89877668 eV
Hf 4.041177838628026 4.7291031138077475 2.742080481940578
Hf 4.4503220677278295 4.597477623016399 5.533900256217007
Hf 4.918513564801169 4.66246386945636 8.492360482911273
Hf 6.74717970452359 4.635147358171706 3.8113468217924145
Hf 7.10460262806176 4.601100634625905 6.637877686699833
Hf 7.4943332916743035 4.710884597496149 9.527745782848216
Hf 4.02428327840126 7.3197563916408885 2.748705979078266
Hf 4.433237616889819 7.448364590025493 5.540012654560974
Hf 4.901558055749146 7.3759270506620656 8.498137021246448
Hf 6.7301456302827765 7.443826170537961 3.8166286429349117
Hf 7.086656850621862 7.4718438164316465 6.6431871506101015
Hf 7.478824376981621 7.35598372863353 9.53161103887739
Hf 8.992317650676519 6.051273785623158 4.879558029975608
