18
Energy = -148.89117879 eV
Hf 7.1762301411805 4.133550191976583 3.799854047992761
Hf 4.730416776448153 5.607788669456373 3.498951478111659
Hf 7.114038436362002 7.1408130684102105 3.682113943234849
Hf 9.036584688892075 5.266717348425814 5.827861194325181
Hf 4.79982421611583 3.1486383822693793 5.113308411334859
Hf 7.340740532040084 3.032299959631787 6.418688866614247
Hf 6.584867726303262 10.126006777389401 5.3247857650163075
Hf 4.533953430047284 7.9827967523653305 5.188497981642544
Hf 6.076668950826842 5.593810954214341 6.059378323914951
Hf 7.864807624338406 7.950445933241053 6.223499518510031
Hf 3.203687433946787 5.354481523370739 5.928614493883237
Hf 5.331081845926133 9.374777936113098 7.635450487394749
Hf 8.065894254563846 9.895436822689614 8.089415940854407
Hf 4.8474304083830795 3.8804483844989277 7.961422610576806
Hf 4.200439705208394 6.770836501198069 8.065438642667567
Hf 7.711159108410094 4.86528837087837 8.495846725647258
Hf 9.409675125964764 7.130966219032942 8.298674263396366
Hf 6.769349880229599 7.541746490024597 9.185047590068846
