18
Energy = -146.54958686 eV
Hf 11.22785391683086 8.14168971167358 7.183641570608687
Hf 10.552643786041772 11.033621201888444 7.243252713840757
Hf 8.502956932687807 10.909337751801372 9.679525396774016
Hf 11.268749606189512 9.872900733342565 9.526034253376519
Hf 8.771732689308868 6.716386504534503 5.868049124207646
Hf 9.648584246115913 9.46514572977301 5.123126574879282
Hf 8.514575460602279 6.424484523993291 8.927441277266487
Hf 8.737024192284043 8.908458634146156 7.9074969271973945
Hf 9.54169577331337 8.493668832741507 10.943135018520756
Hf 6.9338323075173625 8.296806005232185 10.585180658049103
Hf 7.457540562283856 4.387787670780319 7.672530444412775
Hf 6.73080210086832 4.966827230481451 10.515955260456394
Hf 7.757600093795428 11.18236505596508 6.598945592578516
Hf 6.956608819230827 8.900060185967435 5.162664206896694
Hf 5.847865191218442 9.25378163943242 7.830209540339746
Hf 5.202858981307224 6.796105313762498 9.132109612955526
Hf 5.9463932750403 6.556443124168762 6.441228970773968
Hf 4.895193813656267 4.242294780640088 8.35012288912199
