18
Energy = -147.64978669 eV
Hf 6.733736985352278 2.8212401399239044 5.14920039725563
Hf 8.818245955296977 5.030948816296436 5.600410550458429
Hf 8.942766025568545 5.362264610677937 8.400608223323369
Hf 4.250238669246727 3.79839418662622 5.245888675450291
Hf 6.345016844522315 5.541614207196183 4.2918969466589845
Hf 6.111320604793798 4.725885139726073 7.168682490384529
Hf 6.827042128502694 6.0243875131635045 9.87277846867208
Hf 10.081893883212725 7.417449639146351 6.761641909295144
Hf 8.75339957840485 8.116584958741454 9.246484771920825
Hf 4.3296408423756985 6.863758989217537 5.754344328779956
Hf 6.322123449234155 8.401314310461423 11.041714602164046
Hf 8.762608511311633 7.585937043648415 4.329289067045571
Hf 7.125014025229222 7.272599894097356 6.835748572986914
Hf 4.677976947959225 7.610079199699616 8.678753237660862
Hf 6.187114936385351 8.556573793443324 4.252948685474826
Hf 5.100085732683795 9.539594237114143 6.540664338711544
Hf 8.141301700747908 9.772098956183632 6.246223308258089
Hf 6.513324683980605 9.869768184117946 8.762937119435291
