13
Energy = -102.72731809 eV
Hf 10.804207073411037 8.155985037885236 7.154254801483316
Hf 9.269665857412729 5.711050197953724 7.152889984108292
Hf 9.380926468791566 10.395241979044547 7.441121596645986
Hf 8.360092863472333 8.412756667218675 5.749349789509159
Hf 8.35838407175599 7.994191075970913 8.61681184930448
Hf 7.311624242398043 3.442501186567207 7.138125913391413
Hf 7.110097056671971 5.380177394541597 8.992433112262908
Hf 6.565525690081327 6.019647369931971 6.020728594152744
Hf 6.632349765300393 10.05247768507937 7.474332271812478
Hf 5.295154233878123 8.677636060176685 5.481649096119999
Hf 5.217134751873174 7.5085884584225715 8.158439109106446
Hf 4.770407570106423 4.629030911008169 7.726937940006092
Hf 3.783588241638566 6.511727705146632 5.932835637150026
