11
Energy = -84.36126115 eV
Hf 7.245366144099228 10.159268829338973 7.884758054824089
Hf 4.9380098362341345 8.372343809602757 7.857644723040262
Hf 9.647899473188911 8.63980188542352 8.213451747833755
Hf 5.8691596990491925 5.7001048013928886 7.545450043017154
Hf 8.775965134257708 5.77411045066431 8.05621358638377
Hf 7.24332183633699 7.823204545505307 6.330372030463406
Hf 6.98601525502123 7.363984795750816 9.487265401265175
Hf 8.358414588826419 9.667763163087681 10.516518548520294
Hf 9.539092362866217 7.107621876301886 10.563178008736696
Hf 9.171254252318487 9.803097433459653 5.667388961207865
Hf 9.97442927949106 7.136662425932804 5.844979457600139
