11
Energy = -84.68920509 eV
Hf 5.011641615815437 5.465084255146933 5.085737633240444
Hf 5.865336141829147 7.952728871383832 7.3052595832906
Hf 7.469289164743263 5.004471270783633 3.8453846695552754
Hf 5.855157292015229 4.995222110133764 8.157600026836137
Hf 6.753325994887374 7.638848344595919 4.488502098107566
Hf 7.8407992338632955 6.903868523047675 8.859681484986305
Hf 6.451599261615648 3.3127505162748987 5.988592141807042
Hf 4.034770518057324 8.028144092999948 5.277664482217877
Hf 8.108729667102574 5.505114650059838 6.501402116594268
Hf 3.530225718246725 6.265372740408032 7.479316396352713
Hf 8.525127343157616 8.37439670694144 6.456861318345918
