16
Energy = -129.3898943 eV
Hf 9.40718263004584 9.462614503595601 5.606422938973827
Hf 6.897896081853816 9.197300186763139 3.9648367692773965
Hf 10.244547087523213 6.851149056469689 6.467955657090109
Hf 7.607702494790956 7.29432207422633 5.861093770685363
Hf 6.892975353977708 10.105799126948334 6.5443811629847755
Hf 8.660049308652548 8.476763337898651 8.33764537204495
Hf 7.620848295903772 4.2251996460709655 6.164044113803981
Hf 8.815201921875923 5.566060632146502 8.409240937936742
Hf 5.526559028374794 5.602000309763787 4.689733707452141
Hf 5.702652904030999 8.648935341161168 8.515757027783486
Hf 6.740153497887895 3.7529904087836927 8.871679055500437
Hf 6.976739764856581 6.616608976498164 10.151927032462696
Hf 4.845882754467781 3.5094902188926933 6.549575249114412
Hf 4.772244886594433 8.278754688725535 5.7242409881603775
Hf 5.622321163340104 5.947305361457546 7.666608896482088
Hf 3.193487341832314 5.709988731491287 6.156513770959213
