14
Energy = -112.0932318 eV
Hf 4.9867747487347875 8.960555456927771 8.789112422925648
Hf 3.408189127513528 8.497532421732064 6.520834476019233
Hf 6.863007705795285 4.440909633599469 8.464771200758152
Hf 7.121333489847969 7.228027655245364 9.185686708202736
Hf 9.396577397481076 5.835181911489758 8.085274375813945
Hf 8.467943399902284 3.879269384887131 6.210224124370986
Hf 9.991362914410947 6.565164598222677 5.48955290959273
Hf 8.885889237708001 8.606250047760176 7.120977717810771
Hf 8.01860465921132 8.320936677065887 4.410277263113564
Hf 4.552984005554942 6.250247526282079 7.773400171285382
Hf 7.180013185980342 6.43298601426634 6.369960408621143
Hf 5.483773492268179 4.16215544772343 6.047433342285383
Hf 6.0753378196305645 9.196639347221817 6.18501295058804
Hf 4.80925836996685 6.932031958530289 4.782464448843075
