13
Energy = -101.30074181 eV
Hf 9.301364797531848 5.470084593742767 5.817742791204275
Hf 11.127934064234204 7.409775981429327 6.2713402532655715
Hf 6.9721750608606055 7.253584366573694 6.2600986056600565
Hf 6.806287263549186 4.645628929405284 4.828951261368485
Hf 6.596022232640693 10.194111837029826 5.998103089594032
Hf 9.155672734236788 9.225414554946077 6.607853728944392
Hf 4.9371457365368565 5.147511878013349 6.8506938575963074
Hf 7.481237770996843 4.588772737580167 7.626648389547367
Hf 9.182695352207157 6.9001559988359915 8.341730085464361
Hf 7.308593898464342 9.169862470170061 8.60036499387656
Hf 5.993034805334115 6.613055266911315 9.126769309826068
Hf 3.2323618021229032 6.683294298485546 8.29461570322264
Hf 4.802918110884094 8.785693040599567 7.613845571037462
