11
Energy = -86.46350779 eV
Hf 4.893967168101104 4.7878119684226705 7.8239422329194035
Hf 4.917560330016975 7.2580190351898635 6.657964992235668
Hf 5.070521077508969 7.845434759147424 4.096982600248101
Hf 6.9980469866697534 6.791567364874882 8.36106523375264
Hf 5.754068646433099 5.083108497426118 4.369215070183141
Hf 7.612449182657837 6.84330720917133 4.86056627783735
Hf 9.29605654720384 7.0882502309354605 6.942932732496966
Hf 7.148659101297266 8.999393761695236 6.433422290266312
Hf 4.986996951270313 2.9484226218515692 5.822517280391298
Hf 7.511082543857182 4.533002810590869 6.640367002661707
Hf 3.269020195843638 5.2801106466636 5.449452667649091
