14
Energy = -112.99433674 eV
Hf 6.357280869150153 6.153195412546526 2.753404734930784
Hf 4.968072743577271 3.770928505213459 3.5277531727099927
Hf 5.463453400510892 8.402150932477028 4.154281660505083
Hf 3.6767137267739973 6.25219090550421 3.531660502941413
Hf 8.063963817484717 7.488243086686191 4.617270358445117
Hf 6.878297659164024 4.954759840695943 5.315534072472281
Hf 5.2936484740076954 2.7228906037594376 6.178401538749097
Hf 3.0697147636627022 4.278368195464917 5.509763998975948
Hf 8.384423162834493 6.447169427758265 7.258839741394033
Hf 6.635571643549846 8.571196506067942 6.76204390083572
Hf 7.003498778604089 4.068307259972596 8.046307591956815
Hf 4.661617122841492 6.566213579080775 6.210528875186026
Hf 4.239854980228863 4.447414101125415 8.109933607914122
Hf 6.020078404241264 6.593161190278935 8.740465789615202
