16
Energy = -126.07671914 eV
Hf 6.507041121699371 4.454707891286218 5.758343088546725
Hf 10.130301913403883 7.821186705903628 10.87930274281516
Hf 8.245678351214966 6.452646976217879 5.356632786201761
Hf 9.776093059726975 6.582536866219276 8.33365901047416
Hf 8.232619339884272 5.893914225337384 10.585037732230026
Hf 11.662608139982476 10.584188856281484 6.979815827990605
Hf 5.0949924717943125 10.31683624692804 10.53547482988668
Hf 5.075499525742736 8.689174364969624 8.160993666045874
Hf 5.541803615071505 7.110248402143186 5.488616030374288
Hf 6.664754671002685 10.994955164835874 8.530186620206122
Hf 9.704311626383111 9.74672583609908 8.814311851422572
Hf 7.522552155367623 8.886388688258155 6.692450461684186
Hf 6.767052389678274 6.283815889971564 7.894880831104717
Hf 10.549763783442593 8.296261171587199 6.279477545509189
Hf 12.070853056329208 8.313977560413841 8.64765608009699
Hf 7.38180047587068 8.56664560111717 9.89438040906253
