15
Energy = -120.92025864 eV
Hf 5.559850865517081 6.233095522756249 8.12151679595377
Hf 8.430805696359457 6.666013101627191 8.496672364740476
Hf 4.301214724186523 3.590880641553947 8.197394527605967
Hf 7.248623671972478 3.9752030723286533 8.017604326148017
Hf 3.129997241581124 5.618385205239295 6.6424176535581285
Hf 5.49989510258619 4.006744379748664 5.7165554359334205
Hf 7.925628790190383 5.813103048361998 5.892427819879059
Hf 4.929815589915202 7.361603201849255 5.217560580083817
Hf 9.566857155998665 8.089232216371233 6.298865526684309
Hf 6.970264765000067 8.47777393996188 6.920569629793357
Hf 7.428604406282729 8.089967335449403 4.091878959673639
Hf 5.106509790868905 7.401140295852811 2.378691880758592
Hf 3.6335800965118894 5.264140720967294 3.8168260936762044
Hf 6.510633064181598 5.410665710456618 3.4478706514438424
Hf 2.825416131718191 3.0697489253722257 5.8108448469376235
