18
Energy = -144.72249165 eV
Hf 8.648267426337085 12.180270959787418 5.98880502052555
Hf 9.074944068026252 5.567675758879017 9.789015528315502
Hf 10.728361076169968 5.086553939849308 7.801766731894608
Hf 9.220443475630589 9.986836939025181 7.852089922077225
Hf 6.386740957837416 9.763247793730125 8.112689789593844
Hf 9.79083997860416 12.609380908300157 8.671833406461545
Hf 5.8924967212666575 11.623784746795604 5.913660020928049
Hf 10.813289904159246 7.7492486260937445 8.120999980800873
Hf 8.086124026691202 11.021524135351466 10.306738802206842
Hf 8.2412095987331 8.164397263123625 10.1689136482611
Hf 11.725116753036556 8.421529992583912 12.858216675222787
Hf 7.01252637519171 12.67733032435574 8.214080253593904
Hf 10.859397737473978 9.616922221562165 10.390206919488795
Hf 7.58115137232536 9.463129560136382 5.484917819460266
Hf 8.202143182428308 7.187474559285112 7.394428266837812
Hf 9.170954385211665 9.543356222047182 12.69522912248411
Hf 11.665123010984374 6.626913943470683 10.486470785061183
Hf 9.577616131572924 6.777863435447933 12.3716517750752
