14
Energy = -112.18579613 eV
Hf 3.404204237085124 9.106339100672457 7.288605217330383
Hf 5.965725959828363 6.177941185239472 4.117072712652496
Hf 4.490266105042709 6.91398388052859 8.53387063611243
Hf 8.019475387197659 4.331205834229144 4.9615309935700855
Hf 5.937643297928609 8.30885369896547 6.275374329658465
Hf 3.6816327015232178 6.664310300297737 5.82832848367978
Hf 8.344292390031384 7.014912875864341 5.795968118183986
Hf 8.625044739374763 4.690563678763978 7.706883553518091
Hf 10.107629155520039 7.087551989564913 8.004995064241427
Hf 10.57476875452411 5.254482938684999 5.86087879178796
Hf 5.8941142632196994 5.094051986665618 6.7101954478420165
Hf 8.393959735782776 9.399603153831274 7.6714332263120575
Hf 5.768527166801831 9.421206374314352 8.87091958763322
Hf 7.396671649001786 7.075619235071266 8.897810157236522
