17
Energy = -137.39674037 eV
Hf 8.733907250774433 9.121680083080827 6.939357996374524
Hf 6.9345522309839325 11.177885460535583 7.099311018965608
Hf 5.786345575203444 8.824691699566664 5.670119321158991
Hf 4.37263270795738 10.87245447911996 7.186522493557574
Hf 8.471975521291688 7.556083284520022 4.531449977023444
Hf 8.716658429640097 7.5082553932805824 9.327733453294924
Hf 10.251236101313795 6.387732249644305 6.822731927143838
Hf 5.8930776126543885 8.760009846182456 8.507660272093668
Hf 7.402418722441687 6.582845176611887 6.986160721112995
Hf 3.2260385572784407 8.559334032477137 7.1689502927323145
Hf 9.659643958182773 3.382609599907136 6.822935870845335
Hf 8.55188990836804 4.816017457416196 4.883720311815877
Hf 8.778670691729362 4.770969760737572 8.909964354608492
Hf 5.976081474865491 5.808503789255251 4.656809769709946
Hf 6.246183754368583 5.7384933151960515 9.446102675887397
Hf 4.5661405115781015 6.172379414861337 7.142481575470368
Hf 6.633655871292152 3.8287824165096436 7.004480501129085
