12
Energy = -94.98551188 eV
Hf 5.104284506233603 5.819830471365117 7.480314212086523
Hf 7.121515011664973 5.0871143490220305 5.780293498972827
Hf 4.741887458040631 6.257280272167352 4.657919283188796
Hf 7.990093910157756 6.690431379595623 3.92659732466953
Hf 8.695783921291586 8.019604523385965 6.381981875414218
Hf 6.6793848066093355 8.75205026623201 8.083082462253683
Hf 5.807634274579457 7.148831431426177 9.934998286686797
Hf 9.060360178256452 7.582159717609154 9.203179492106386
Hf 6.142154434702409 8.304998460074485 5.434053001471098
Hf 3.967688801755749 8.153601117133919 7.316267709641216
Hf 9.832403374728036 5.686982119399389 6.544808267636996
Hf 7.657848732244793 5.535720044694135 8.427803608864348
