11
Energy = -86.48276571 eV
Hf 7.876893718027761 8.140742064782303 9.197915545151945
Hf 5.980224626398009 6.12934914644383 9.365420238962372
Hf 4.847054765983356 8.390414277185219 8.248728345757778
Hf 8.720447654246302 5.615892483515376 8.436231809079047
Hf 9.637206307174546 7.491581678109118 6.628357416032718
Hf 6.87774684270411 7.188704068473491 6.771518030771167
Hf 4.747235021778011 7.994233225201071 5.143759411933038
Hf 4.2076694934949534 6.003823709062825 6.997774846268343
Hf 7.754936442840461 7.43110118879165 4.126612736479175
Hf 8.597518406045495 5.183838602124051 5.5123029131886065
Hf 5.818820581211249 5.520156000484916 4.568993183921432
