17
Energy = -139.06691922 eV
Hf 3.745653128973977 5.963021136652269 5.280094509031865
Hf 5.747099724926651 4.197488789667276 5.760541191402387
Hf 6.376757983699412 6.566761920797256 4.000538559690647
Hf 3.4841443514028496 4.41417350997647 7.583170394729035
Hf 2.73965760309619 7.369829095094454 7.463815555503883
Hf 4.670645513869663 8.493628856705996 5.586570380253641
Hf 7.2555937415683 4.35936440284282 8.129201302879226
Hf 8.46001965746359 4.691735367107287 5.391196668541685
Hf 5.112208017304816 6.426715927460402 8.220403660866333
Hf 7.296217111333506 9.310104459057293 5.1820262969831274
Hf 7.14592263319619 6.874294383712922 6.610330334301421
Hf 6.034009987485487 9.252582484906128 7.928233748384639
Hf 9.828977714347676 5.37564244348344 7.686477218459231
Hf 9.694370798322845 7.476491458301909 5.586211076385128
Hf 8.206959583030308 7.285848754124049 9.270075356259358
Hf 8.783111911970542 9.567466903330896 7.495576574017597
Hf 10.788255242863794 7.874287424539885 8.229360839923578
