11
Energy = -86.46895838 eV
Hf 9.503361273395004 8.559453992387345 6.335739097757982
Hf 8.484867646690947 7.848982923587761 8.835797163727879
Hf 6.730221160084411 9.16359282264485 6.4250398211815565
Hf 7.391739676921459 6.522039156524076 5.506572702217956
Hf 5.11299527836582 4.85567452778346 6.025868151642349
Hf 8.197996613509057 10.422324734604954 8.241642652959355
Hf 7.575386466936663 3.922163215355239 6.5691678550864765
Hf 4.606664720539092 7.3981466269711635 6.693813871445631
Hf 9.41801405959803 5.721500263420493 7.318570967838032
Hf 5.828371748317782 8.810035784231088 9.046861354638898
Hf 6.427670481783187 5.915932083117107 8.281764119005512
