15
Energy = -122.04910294 eV
Hf 6.06606282840513 6.607567108559129 3.5027725499248725
Hf 8.72451505363502 6.583471297360935 3.675233396796576
Hf 7.434462630154244 8.873989381623987 5.000065173141919
Hf 4.647816667815325 5.040992634260894 5.348468164875459
Hf 7.936888763696203 4.548898714993806 5.567478003502246
Hf 4.336008895296274 7.90828314389338 5.224406451612352
Hf 9.633228793105834 6.898990569071019 6.171292139767539
Hf 6.644399040931159 6.757042169796811 6.483812886948712
Hf 5.527320247578399 9.21597196082819 7.422032063429319
Hf 5.913638163110217 4.1026561598616125 7.590408088899706
Hf 8.346427570226009 8.619114546340041 7.92761261238367
Hf 4.091448982966101 6.479296849639456 7.905003219101103
Hf 8.380729197391751 5.587249958148042 8.484517756070233
Hf 6.364914831209552 7.5756393693971535 9.491268089407246
Hf 5.788213794412257 5.036911596158698 10.041704864073004
