12
Energy = -94.27530175 eV
Hf 9.511784359954914 8.274831869352717 7.5568842627100565
Hf 8.476191409393675 8.134638691560136 9.940968990707251
Hf 9.399414688479858 6.48141253044329 5.604297240190019
Hf 6.000750620973227 7.304712748956495 9.377680989374534
Hf 6.742249893862103 7.571760345972432 6.587809689070867
Hf 8.41306269556391 5.747009093092459 8.29898614878425
Hf 7.336773256730365 4.730620961052882 5.703942123334913
Hf 7.012280932452574 6.823213497512885 3.7967797323832837
Hf 5.498706964740373 5.131332863982021 7.852049514188422
Hf 4.764991849271414 8.414980464078734 4.710392257773893
Hf 3.9163687611205695 7.463988933138846 7.277333724374753
Hf 4.758518648872811 5.753101891752075 5.163069293108402
