12
Energy = -94.67918698 eV
Hf 8.824657789337385 9.89882244728846 6.018399583752414
Hf 6.502004101368335 10.370483679383385 7.219518328951745
Hf 7.961411548211083 8.13214890625085 8.083418014491158
Hf 9.461210738277767 7.2412822989825365 5.439967135770366
Hf 6.772510599020719 8.18467481569346 5.384913218047051
Hf 5.07695682816424 8.021222433757895 8.147148567270312
Hf 6.557224090518754 5.642364850743796 9.05528637032718
Hf 8.407894802301985 5.332956660499811 7.122473078552146
Hf 4.059001850216968 5.037672119218964 8.41659119546531
Hf 5.316938880488265 5.943422887693144 6.251932705959398
Hf 7.452288694894328 5.231619882134698 4.587565268837237
Hf 6.224708920664095 3.5583989373257774 7.068785622595822
