14
Energy = -112.26836032 eV
Hf 7.90274422455456 7.0663030176542385 10.337853426961411
Hf 9.68336944127027 7.781885371788303 7.698571011632336
Hf 6.861182398599653 8.123360910070097 8.133870198736156
Hf 8.574870432830767 5.3745292965646865 8.14947474613797
Hf 4.934569413990508 7.616388141360832 9.875720543401943
Hf 9.43684695049429 5.714502933473525 5.528862336348327
Hf 7.390715070376352 7.586672381682428 5.559298890435482
Hf 6.065388559061818 5.21161305348934 9.192388459636327
Hf 4.4785897327439095 6.335467183471311 7.253536845463396
Hf 4.798852126572143 8.835185321467014 5.921887535201818
Hf 5.979369983344217 8.428971500803089 3.28393230925694
Hf 7.316845230858041 5.842150930938924 3.4073986654769075
Hf 6.697524855770961 4.657014241308325 6.067538896220785
Hf 4.826007761077351 6.350805396032145 4.515888483881433
