17
Energy = -137.62477707 eV
Hf 9.910449271389211 6.542081773510301 6.6171828326361
Hf 8.908462762394187 9.335822298654714 6.716471477987011
Hf 8.077892448400405 7.580778888595974 4.4639924624798075
Hf 10.799342930816282 5.619758160967489 9.288649341732738
Hf 5.592926651178812 8.569391369916572 3.1631114878286164
Hf 9.044416013713137 7.8277801811387056 9.292699490721459
Hf 7.712741422395413 4.843831723653654 5.567913061887382
Hf 6.0631647033778995 9.500148514686115 5.785585245592735
Hf 5.254040008132535 6.468241593385394 5.014087226758145
Hf 7.1470211554243726 7.142568387425984 7.149727001872171
Hf 6.587878629230516 9.436675583724462 8.73937796201698
Hf 8.228212601009698 4.765640940632862 8.508697711864869
Hf 3.4846780159935236 8.665465953876401 5.000811708548762
Hf 8.694007928522227 5.711722490520371 11.123744420529288
Hf 4.384803692806024 7.742005672387805 7.682332300412967
Hf 6.2167786035119885 6.703289544345598 9.838006739689275
Hf 5.390679554564278 4.945321977008515 7.592198324318036
