12
Energy = -94.92966503 eV
Hf 6.863905321293672 8.143071137180607 9.03233236162257
Hf 9.165613412406987 7.13642514173859 7.820468569981576
Hf 7.933583604228936 5.65310636390085 9.9216460969423
Hf 7.1323747436870075 8.494490384570051 6.031873357738918
Hf 5.096317285722687 6.244979430042773 9.798436545826716
Hf 4.652308770437868 7.792054902782924 7.233901303502797
Hf 6.618915724295088 5.576261606975434 7.482866218340499
Hf 4.828276700350419 8.917065671484215 4.373598599465547
Hf 9.23016820733823 4.441535521025128 7.628342067100087
Hf 8.465975952633746 6.1184091844593524 5.22518209752845
Hf 5.571627071291502 6.3170424640419744 4.889926667215189
Hf 7.022731102987084 7.945795751060117 3.214265656484525
