13
Energy = -103.44832501 eV
Hf 4.825294694220038 7.110874048922945 7.350709548011708
Hf 7.790986948371072 7.185420311367374 7.330464954378931
Hf 6.579454843375413 5.116590397820306 8.711171610511194
Hf 6.391594898018037 8.886465107067849 5.68982294094494
Hf 3.8383757489105297 4.758435001108981 8.445273112955949
Hf 8.360439917513771 4.644291427896145 6.471258509236441
Hf 9.033813904517658 6.7900402674424525 4.819305955111122
Hf 2.835168153726507 5.371913933188568 5.9686536758627575
Hf 5.461095359988497 4.249263504793271 6.187516612320778
Hf 6.466273335480875 6.627020907350402 4.243221922170255
Hf 3.9258855050003483 7.518672755719975 4.601521039798117
Hf 4.434904593294874 4.855241273922842 3.575632306210787
Hf 7.399154857357692 4.153185773544802 3.910989131913774
