16
Energy = -127.4803152 eV
Hf 11.558721982964688 8.527002252022957 10.599744164935043
Hf 8.78746202968341 8.377486685658745 9.85467154501805
Hf 6.994991553685294 10.829181764864835 8.831002352060425
Hf 10.342170464498333 6.024678919429621 10.121519003048878
Hf 7.396929537313693 5.89583360869365 10.040192887210857
Hf 4.259382630805625 10.266677367034356 8.370714129358314
Hf 10.991835709025981 7.801367548694606 7.985525031006297
Hf 6.162012073498257 8.130755258899653 8.559551553886324
Hf 6.008020985258694 10.13905833798124 6.299053955361582
Hf 5.925223591865764 5.507752084412522 7.248750960427194
Hf 9.651664158972112 7.2115600844550185 5.208933217321171
Hf 4.236841288219662 7.912818265116497 6.625420882174659
Hf 8.698955611296363 9.413443808464626 6.947218463596002
Hf 6.811258624010109 7.544401465526765 5.312113338354551
Hf 8.76570931398275 6.09534679769197 7.625005000770701
Hf 7.848140352953924 4.974235095402666 5.20763261285594
