12
Energy = -94.61938499 eV
Hf 3.9828565650006613 5.606314228686351 4.245988583646469
Hf 2.147571996030509 6.62136106893227 6.03239650505888
Hf 4.647067223001563 7.902020904901236 5.689125946456295
Hf 6.749272265323364 5.920347387826603 5.2569915141589405
Hf 3.4864471822836935 7.639220369895733 8.211156665835396
Hf 4.480655614753626 5.336335939095748 6.984841039432648
Hf 8.728079673920881 7.832055890987483 6.200293431604126
Hf 8.48146700612015 5.288628011220829 7.529896101918024
Hf 9.678082559208441 5.483445893839631 5.015858739568293
Hf 6.4183906676897085 7.2933194085379105 7.923196477828307
Hf 9.18700193700538 7.596076151931179 8.937953335559289
Hf 11.013338239903375 6.502770368951227 7.197268250349801
