17
Energy = -136.31802412 eV
Hf 8.925219511376964 5.506956774070286 3.921469812248777
Hf 4.309326546977237 6.7901374873601394 5.079894883168473
Hf 6.181053840161201 4.777889234815594 3.773955127385428
Hf 1.6197135509640759 6.376942653374202 4.315131870810482
Hf 7.1724786590874965 7.327650266423964 5.054342353262846
Hf 10.848044033222184 4.5837757481321635 5.489504927401721
Hf 9.97650817272573 7.461931541373127 5.639460471708102
Hf 2.577365406472278 8.937939422043762 5.046761352664982
Hf 6.09680238270805 4.903530479058697 6.438431044963363
Hf 8.300116694109688 3.252440529837572 5.5726070156464464
Hf 2.0845432060844935 7.00374326679722 6.9583025990952025
Hf 4.429657467527749 8.617754696867893 7.265811821790077
Hf 3.181309314139465 4.464308079953199 5.906670517365159
Hf 9.108138425707397 5.492398465389039 7.362779491049667
Hf 6.930254429196553 7.20270495164042 7.988322843342304
Hf 7.034242882121691 4.428835336218089 8.856322184198682
Hf 4.274679519280039 5.920515108506081 8.379685725760238
