13
Energy = -102.84400855 eV
Hf 9.356656477067853 7.252627764903751 5.09177846371211
Hf 6.901313685205702 5.747682998191537 4.47825429266551
Hf 6.740331949866462 8.168504424923283 5.6211917889958025
Hf 8.646428810434283 9.128320632542893 7.319807831217297
Hf 8.111636786864148 5.576986598765164 6.8646781537985735
Hf 5.35313999269631 6.224935192142483 6.969035922351262
Hf 10.697095134072217 9.76179038052231 9.130067585209868
Hf 5.832420705996727 9.319954709897836 8.12796197103799
Hf 10.194012317140851 6.952640825758728 8.374309906830526
Hf 7.357911405444634 7.058523110287834 9.003466970624833
Hf 7.948258099850574 10.505177191091603 9.756977101373758
Hf 9.179407638490744 8.22415485366333 10.86280723671134
Hf 6.285872621828343 8.683186942268094 11.004148400429491
