15
Energy = -119.58830201 eV
Hf 4.162067891259855 4.290646464425049 1.7134559288406828
Hf 5.436061885733892 6.999664319043824 2.0045308395026793
Hf 3.2305886998640827 6.517883505626639 3.415111380518442
Hf 5.9664270144015665 4.994562425241604 3.6310396475613373
Hf 4.885778424229123 2.459965868915807 4.075393093733092
Hf 2.4777410222284098 3.8506137649872345 3.9704613603263827
Hf 5.601227602807084 7.246092126959192 5.2563183205668915
Hf 8.154694494081458 6.427368905593254 6.416373996666756
Hf 3.4384001352752622 2.78842613822067 6.4749465743121135
Hf 6.0399947370464515 4.272484583830449 6.342610825171139
Hf 3.485191126857452 5.527848058692333 6.03738530586857
Hf 7.0910893910532815 8.817124447589494 7.347061595135993
Hf 8.056457003659716 4.610438887672465 8.506601201150271
Hf 8.526901116254143 7.259502282011841 9.080969052181404
Hf 5.942944801484848 6.432943567426927 8.223306224701602
