12
Energy = -95.04391599 eV
Hf 7.2686097349691305 6.680679367006912 3.1864481386273016
Hf 9.70707071174282 5.803568974354444 4.329916351113413
Hf 7.401853169779963 4.635077937925273 5.073905546639661
Hf 5.396367589177058 9.06092867234711 6.494599606144118
Hf 8.021132155804649 7.5222862861314335 5.658688394203356
Hf 5.259823897414952 6.408835367731101 5.437810921979729
Hf 6.322408114387764 4.988044230876344 7.71233667171043
Hf 4.27147698120955 6.9098010450635945 8.056930863472902
Hf 9.116024233478818 5.480536621875028 7.232366094184258
Hf 5.007106297843152 9.089226827157313 9.449611480054003
Hf 7.129110158912568 7.760641325077621 8.294994082864283
Hf 5.80025886310812 6.5276110299076775 10.336282590276676
