15
Energy = -121.66900436 eV
Hf 10.145737113153116 7.624707882969471 7.625106939754179
Hf 8.673536199022957 7.49252198078761 10.040492269047705
Hf 8.878784908501686 5.1939213517800376 8.453192534975276
Hf 8.571267613158174 9.920650613370439 8.142091433624309
Hf 8.533724498803767 5.877283998132524 5.477341614981217
Hf 6.319795133838183 5.582749284767451 9.594993944089726
Hf 8.7176725381109 8.943398029701413 5.521352520244675
Hf 7.365784600421931 7.412438151392868 7.504929404142219
Hf 6.140447164650874 9.823710546757795 6.284631903495983
Hf 6.531785929646124 4.321486045315116 7.157774555689314
Hf 6.379905249731192 7.774041179347598 4.462930649740659
Hf 5.5633690254784804 5.202184622559517 4.778512865118187
Hf 4.794771348609065 7.054708711052434 7.192243443212807
Hf 3.6407479369135007 4.719992248682073 6.712483612240806
Hf 3.5349522487203884 7.084055235701185 4.86450673259229
