11
Energy = -85.8619623 eV
Hf 9.462511158739714 8.669855777403662 7.538896009948331
Hf 9.252872528117317 6.743465890623191 5.259178284836312
Hf 8.561194020801732 6.230003320738265 7.954790345037727
Hf 7.711342045106876 8.05716341481591 9.668186992637152
Hf 7.001469362652755 6.750239038047204 3.6673451483183834
Hf 7.1525863963260665 8.434380111812983 5.798598477357064
Hf 6.173856098383095 5.518589184936377 9.301972370051416
Hf 6.620282370483143 5.376707785112688 6.190642466813264
Hf 5.452419186270299 7.7473496405606825 7.904998839459188
Hf 4.625263480594828 7.034024540801862 5.183143659548799
Hf 4.035451450033066 5.491578162600283 7.521611208315167
