15
Energy = -120.93278698 eV
Hf 9.140836942167935 6.089124507972621 8.645233182917522
Hf 9.57174903687552 6.708537207756722 5.9662220015121035
Hf 6.492962135683865 5.081697316295408 2.931574985667439
Hf 6.435127965004074 5.414599696084103 9.473953896626876
Hf 7.595887079967325 7.964316115524463 10.11879150182282
Hf 9.145965694918441 8.843234827696694 7.931427602467564
Hf 9.060591932032128 5.270514808986223 3.4703882724441297
Hf 7.3867599070134125 7.37230882074575 4.2922093141365085
Hf 7.269106527977113 4.9223815631379475 5.703637645796912
Hf 6.347154073281179 9.835964493860665 8.415046980221748
Hf 4.782278539414467 7.76701906073341 9.524933161350244
Hf 6.770013784212028 7.221106702750072 7.282575617181479
Hf 4.224886717831436 5.743183926925046 7.612490890636315
Hf 4.830401818765445 6.365776232993671 4.96921544896707
Hf 4.141418374957984 8.489049191029583 6.872658668802225
