18
Energy = -145.07502888 eV
Hf 8.425620205447963 9.479613553551813 9.031363632617285
Hf 4.75792938511542 7.134753130038341 6.62895746364717
Hf 6.2536354835238 11.208111300470481 8.191366437724477
Hf 10.993685990492908 9.214750200406264 9.870385196175455
Hf 8.598546665277771 7.043352642041119 10.439332523625502
Hf 6.568261312122392 5.3037601036318724 11.033674748063067
Hf 8.949429263534924 4.829235108013888 6.6117447446877815
Hf 8.436983221190614 10.623532185441062 6.2878835474482155
Hf 9.932485636162637 11.635723884202278 8.534669621893066
Hf 10.724477678232946 9.268002668512231 7.105748556143174
Hf 5.890442828343009 8.259785991007776 8.861430247928855
Hf 6.878516571648263 5.588974935045068 8.375805673497048
Hf 3.749213143219899 9.622088235375795 7.6706108542925024
Hf 10.48908083360822 6.6274167385834835 8.26267918271873
Hf 10.440130732754541 6.796262388397039 5.4472077464360416
Hf 7.976122893009058 7.6329322430877005 6.547972235678867
Hf 9.019951251860963 4.400762170680789 9.651478618682964
Hf 5.83262836786633 9.571469379190916 5.973617222062268
