19
Energy = -158.05997511 eV
Hf 10.26483628070179 8.779727906037357 6.913177556976345
Hf 8.269288369238405 9.332374547934569 4.9195419749232325
Hf 9.742236296569704 6.836166264552728 4.760864327855982
Hf 9.095726733554118 7.837103850203906 9.352823007979858
Hf 10.255329640193521 5.903350201842515 7.530219781707591
Hf 6.804601432251069 6.927555314331683 4.00399747209943
Hf 7.128206604122338 9.78400427279587 7.830144245976031
Hf 5.630959436575148 9.25048773203823 5.423629035537308
Hf 8.021099698582333 7.278111800498735 6.816485555060596
Hf 4.215620156370777 8.508584859083532 7.94435477357767
Hf 6.44413188772522 7.7813028368365895 9.792032642518606
Hf 3.953744646511192 7.230328865750415 4.965238138766841
Hf 5.730199405138115 6.524427846447848 7.000186573817066
Hf 7.750709530482454 5.216244525383915 9.109525185574947
Hf 5.2292685364187665 4.6507765022285215 4.927902263790433
Hf 8.073949910857591 4.527537471685016 5.873609057383141
Hf 4.794296126577974 5.7065874246155825 9.49598008931785
Hf 3.3263880353272377 5.3092157034138605 7.039964713393538
Hf 5.72712319468406 3.753725047759522 7.597062731075444
