12
Energy = -94.33731572 eV
Hf 5.189339145034953 9.05449502143982 6.4459875782781495
Hf 5.277610863736882 3.5170833680696663 6.370103088209829
Hf 4.755561173570772 6.311128809699937 6.844571994296042
Hf 7.762832638513348 4.634849492519618 5.552072227114566
Hf 7.441514003227732 7.521672436274716 5.7399292128377954
Hf 3.4622894515040894 4.832018475440244 4.565363411384556
Hf 3.757784733871662 7.719944678027826 4.662831556854677
Hf 6.867630123909408 4.937430486406265 8.22996142817562
Hf 6.781065775678413 7.787123055639659 8.478026165775656
Hf 5.889908100933639 6.094722335955413 3.871637348053729
Hf 5.779190371401993 3.341832754018112 3.701263266629777
Hf 9.117568273512266 6.329993222553734 7.620547117859374
