15
Energy = -118.77034793 eV
Hf 4.478981535788691 5.0337988898461985 2.604870457351186
Hf 6.769985354393643 6.255232389297565 3.528382387588935
Hf 4.384498227508652 7.8176829628682665 3.1807771291313616
Hf 2.925411581976254 5.9627437767588125 4.79568045884071
Hf 6.700875242932132 3.402785567482406 3.3734332187984486
Hf 4.305073373711064 3.4343131770930193 4.917226644561638
Hf 6.641066356119132 4.602554183636636 6.019428761729839
Hf 8.194979829315434 7.168395772226268 6.074478220963687
Hf 5.225632831280387 7.227191504036707 5.8883224268177345
Hf 9.086244979781945 4.868097030444512 7.5374648844806265
Hf 3.963603631844566 4.920438935420927 7.405922013668998
Hf 6.705605421781567 9.248453599289965 7.36562201005929
Hf 6.545908632424392 4.726308056398964 8.847723335088597
Hf 7.991267336330049 7.160918219382652 8.823148368196136
Hf 5.17195924819766 7.262179519202386 8.728613266108518
