17
Energy = -137.71660554 eV
Hf 5.094961889993373 7.664563648259653 1.8486989811149126
Hf 7.608436063218446 6.67814313371897 2.8834209583389994
Hf 6.18238258566905 8.42807132945933 4.358871802634575
Hf 8.444523209481499 4.30032831987816 3.9124306091035543
Hf 5.953187753671532 4.691699172761304 1.9940036610172869
Hf 3.45172297384422 8.519933882144258 4.244470378168818
Hf 3.9063177422548776 5.943549706892308 3.6068618953225315
Hf 6.033278150045707 4.9401514435644 4.983274307893962
Hf 3.006675291821683 5.286184496359653 6.427844669822441
Hf 4.951560738321578 7.30208348839562 6.54358369648159
Hf 5.107843169517679 3.479140592278307 7.10171109772648
Hf 8.02013716973012 3.8176412357093503 6.867564136386139
Hf 8.176887184572314 6.588846511961719 5.745305598471411
Hf 4.3187738816248595 5.789474546179724 8.979552341667427
Hf 6.919532795638944 5.860107051720568 8.247407332115632
Hf 5.961431091826999 3.525181699098956 9.6181038459534
Hf 3.1118518421585635 3.434403275009307 8.886398221172747
