18
Energy = -145.18470423 eV
Hf 5.838283842517217 6.239264851401177 11.17000995715219
Hf 4.796714046358414 4.042066748466124 10.333305683055913
Hf 7.218300502618162 8.066908916710537 9.645819270758038
Hf 5.4001558776039165 9.273156337100941 7.726618744181835
Hf 4.681143400008701 6.247420069305689 8.428379837365208
Hf 4.847807654243558 3.3099065126415854 7.875333801299367
Hf 7.19012424986585 4.872415868993042 8.878402693367667
Hf 8.427341887164005 9.652674008351655 7.536188454075278
Hf 9.560923563481799 6.928054936138824 8.376929394569387
Hf 7.104679522435377 7.132330131855079 6.952070020036052
Hf 5.947327357420855 4.775952180534198 5.818365367710123
Hf 9.52630940216004 7.949228179222668 5.4570443979885646
Hf 4.677536186771439 7.378857915358682 5.48817494378968
Hf 9.486468231586754 10.7614737671471 4.866501288738456
Hf 8.830120845445617 5.0161565909017 6.161865602658194
Hf 6.966587601042588 9.397201287246846 5.0486201421523695
Hf 7.315006968387804 6.678272495324782 4.084992242321024
Hf 8.847663890994573 9.072686345326305 2.904109630703521
