15
Energy = -121.87358331 eV
Hf 7.310334803687029 8.114062016419636 9.87575067809672
Hf 6.366150684924598 5.342165315988734 9.84883155295711
Hf 9.001083903602561 6.0186865061123935 8.743327342382004
Hf 6.605632515881213 6.828806731084095 7.4766874650365605
Hf 6.009496000045402 9.581334236460213 7.70837042545136
Hf 8.801524965555268 8.624802406460846 7.319785191746724
Hf 4.514329704374097 7.54309519056725 9.212080779679786
Hf 6.9276508043857845 8.369856597144238 4.967242100834308
Hf 9.673230113258013 8.4447114368601 4.24807355913186
Hf 7.190664395804111 4.045271623717033 7.25703386152862
Hf 4.182403070920633 7.632481031451421 6.21794614746268
Hf 8.810584433821099 6.123896316036496 5.627249120135805
Hf 4.499154605021957 5.080579846547404 7.558849224527985
Hf 8.0998959494309 6.747864241911573 2.9557198040515176
Hf 5.94370923396707 5.544002417990408 4.976262364628193
