16
Energy = -129.68997365 eV
Hf 7.973466831187551 6.323903610026118 9.9965784481797
Hf 6.745686885053815 8.5729065136844 8.603150924126263
Hf 5.241391618261334 6.3664490793606 9.69959525767344
Hf 9.656877744153151 7.7552530364403784 8.338366282034151
Hf 3.766549276221344 8.233239568217298 8.031568977078859
Hf 6.712064065713263 4.127666584443839 8.737959021119527
Hf 9.665702977672613 4.878422530554393 8.315809165168236
Hf 5.647611812070332 8.929108981795954 6.073548622843494
Hf 3.641248182515595 7.638860867657362 4.916042327220784
Hf 8.455231504731213 8.657672883786896 5.680774505773052
Hf 4.519431296724714 5.819197294915342 7.029052771989973
Hf 10.287950530909422 6.5454068378645465 5.979917999923263
Hf 6.378303433139939 8.268039114102145 3.4562926820118127
Hf 7.553438263467931 6.173256920952632 6.923818219392775
Hf 5.761320825851097 5.838132046406872 4.552494100724105
Hf 8.449041130395852 6.374649546577944 3.885806322123798
