19
Energy = -157.06506975 eV
Hf 9.493715329362423 6.724227231223205 4.056387988596729
Hf 7.849766574376144 4.506821950660889 4.716005327258759
Hf 6.5615137427363655 6.986879288390949 4.311202215624436
Hf 11.103783957737644 7.932501812634277 6.279055664189604
Hf 9.241263043038618 5.7958080670192 6.719391310831483
Hf 7.145877173403801 3.69615416091211 7.396240221165438
Hf 8.468025632094887 8.893665548602495 5.60542776962285
Hf 5.205046287735048 4.750585283549911 5.600557044120023
Hf 10.140201435257335 10.253174664801953 7.35035994013631
Hf 5.551770560643538 9.22178483828558 5.797087710533314
Hf 6.487866290834986 6.937767255670038 7.448153652351
Hf 4.736912016197636 4.605559452006589 8.322041525535953
Hf 9.147852718146952 7.944157467279438 8.529725092624101
Hf 7.257097861176259 10.170787002648458 8.023614809599172
Hf 3.7346595449274917 7.008785256795235 6.8336488459902895
Hf 7.1320233778246225 5.447641746292157 9.777714166053308
Hf 4.6886778786245165 9.156610870219318 8.444134251931754
Hf 6.810661232352041 8.326483656482838 10.236450884669827
Hf 4.515403330794834 6.8075337481145155 9.82610503657603
