11
Energy = -85.98182048 eV
Hf 6.6689044186482835 5.788166005373219 4.117157420286909
Hf 5.338948711778541 3.5669262502545567 5.643292972121582
Hf 8.581477366316811 7.81921205304499 4.481758910696934
Hf 9.23445598894172 5.642684445390364 5.902595047229115
Hf 5.801876799994142 8.343655676429188 5.022592259872251
Hf 4.107095759874119 6.047964106048651 5.4381163189443935
Hf 7.685819664677503 8.072719813323992 7.13840799226914
Hf 4.861472654085764 7.753257857429207 7.687689032775998
Hf 4.230487156262884 5.010822520455707 8.078009795932479
Hf 6.601021759304393 6.3964402127243885 9.381706856243873
Hf 6.724417679110616 5.394129161762436 6.944651352622355
