12
Energy = -96.2118177
Hf 6.238608739265339 6.415093909805663 6.002796119127711
Hf 5.929971273356439 7.6089328279445425 8.617971730339193
Hf 6.2070829609609035 4.801673965987815 8.399546847516941
Hf 5.93094169845854 7.587749622030686 3.375505850140989
Hf 6.210809054327 4.78023082892152 3.605974425270986
Hf 7.722223950335754 3.927322603043117 6.016459842143791
Hf 4.276642225101161 8.539851255912104 5.988386921093717
Hf 4.78627372405588 3.8580830627985074 6.016795787065252
Hf 8.60860548444774 6.080239579169198 7.627810342696855
Hf 8.60839908433603 6.068281063031482 4.386971350737899
Hf 3.757415455246196 6.190757259155925 7.48487163503706
Hf 3.7610490689194194 6.179806741010578 4.514931867639883
