14
Energy = -113.66468403 eV
Hf 9.16126789126333 7.393914564447405 10.431089258908118
Hf 9.657208663840748 5.876671376252596 7.530650236153563
Hf 6.367959463464143 8.483401731127696 10.229408929472143
Hf 7.115371883908724 6.292297964432816 6.0012314714815265
Hf 5.194657698960551 7.903788218044715 7.577158957293195
Hf 10.734307439791175 8.59172575276863 8.191526871154606
Hf 9.486574950611889 8.004968590364308 5.577190166815624
Hf 8.750292397056493 10.162483765420362 9.728598736244587
Hf 6.81717914630506 9.230729272607507 5.515524382491384
Hf 6.362645468084193 10.556173550726811 8.062994579351235
Hf 8.99716779310919 10.614630152559299 6.834704511381398
Hf 6.648048265332967 5.797607857278965 8.91090326622759
Hf 7.966187413624544 8.16177115646542 7.927408735881048
Hf 8.9530546874916 4.709015812936196 9.917954979862966
