14
Energy = -112.34348945 eV
Hf 9.38670059202879 3.9517226782483403 8.395326946591563
Hf 10.261244900161383 4.885102898594374 6.004146455540221
Hf 8.911999985848237 6.680245980863045 7.852409881906399
Hf 6.786100740014868 5.218700642300118 9.082212710657068
Hf 7.608251552327472 4.537148105897488 6.311415912556795
Hf 7.917485125373609 9.292552837059104 6.9744712390360775
Hf 8.321784276638352 7.135260540356516 4.999350317504834
Hf 6.638986322028706 8.084678290451206 9.327200576276507
Hf 5.943281530859461 6.762768914917232 6.747348674200772
Hf 5.6968432578532395 6.4098964991317 3.9665884987551396
Hf 4.015019491026242 7.197767314718499 8.645946225793276
Hf 5.0590100024540785 9.5062698898313 7.427448113167152
Hf 6.038865919758308 9.002516293201438 4.804801155410637
Hf 3.6053921618360576 7.833723042679952 5.6518038265264385
