19
Energy = -155.30528364 eV
Hf 10.97382529295368 5.940767123781564 6.074590280280661
Hf 10.098189838436449 4.611872514320846 8.544040119639897
Hf 7.554074685655725 3.210415253886965 8.5659133542792
Hf 8.663182477016482 7.549309580971912 5.245910823269839
Hf 8.326265530352082 4.7519041280342655 6.339416379880895
Hf 11.01521894866441 8.748726382459173 6.040763574177205
Hf 9.660552633835103 7.4069047070696 8.135306937741023
Hf 6.067434409500716 5.979160332169275 4.671737979152909
Hf 7.684809310952252 5.787940910335091 9.540888818388984
Hf 5.554832885567245 4.646007993382226 7.099342698316233
Hf 8.662629624796368 9.85819982224099 7.212710966953717
Hf 6.515424166868466 7.525797192560799 7.133658843525094
Hf 3.8243387697623903 6.922812980149543 6.37479304036203
Hf 4.934001537409038 6.355681888968238 9.25320804024314
Hf 5.629629274515032 8.696033803571284 4.612792556300281
Hf 6.971815575725304 8.82047644649583 9.515043769386187
Hf 4.144033402867822 8.952600844284413 8.653702278802278
Hf 5.941298456152228 10.512911748001653 7.1984405111931355
Hf 3.5091321010842345 9.728298913606954 6.028928389300235
