10
Energy = -77.77803934 eV
Hf 8.556473556018954 6.391833663345282 6.895682969056453
Hf 7.140212000742187 6.446642382010462 9.257723737690355
Hf 6.712793746649413 4.350010879289428 7.159037534734575
Hf 7.819318401713342 4.872688641821578 4.598110694075552
Hf 8.343970774014771 7.955225070042099 4.804826710824989
Hf 5.976685092669672 6.839218734476379 4.766349777871458
Hf 4.471550153782408 4.701221737326865 5.452252796332707
Hf 6.506980927300421 8.42132433462979 7.16465069400367
Hf 4.783504357085624 6.200947245183628 7.859040699059771
Hf 3.8199607656543138 7.725415043257664 5.95792779367496
