12
Energy = -93.09361028 eV
Hf 6.305270022641022 8.548314055293961 7.7695222764082
Hf 6.10935032334016 3.8641507069531964 4.642646892531916
Hf 3.924624048388955 7.800309247275542 6.278313591746169
Hf 6.333969936585965 8.734062554630782 4.939260796014118
Hf 7.5881110582739755 5.997850015499435 8.426531542902719
Hf 4.786070414991161 6.131217979151164 8.397416182812496
Hf 7.625813743656965 6.282533263686915 4.019756756605151
Hf 3.7918867266171583 4.8382247173172885 6.097675298992122
Hf 4.826462217730346 6.416679746851649 3.9887728621675276
Hf 8.623253598622863 7.576592053610636 6.316331467176985
Hf 8.490054770841594 4.613864786670123 6.13628746006138
Hf 6.080710802017289 3.6817784951106636 7.473062432148026
