14
Energy = -111.92503401 eV
Hf 5.492445848853641 7.139532793790243 9.33690371646221
Hf 6.533515347986908 9.604526598401192 9.675809246602732
Hf 9.534466486443613 5.590601972275554 7.63424213724158
Hf 7.196398901293623 5.006814838491281 9.231733363998652
Hf 7.585324523310852 7.821277912670285 7.397697936679701
Hf 9.41895676150409 7.824258824040419 5.246801467432728
Hf 7.760400636493346 3.4720868055268577 7.0427075018413445
Hf 8.1252860081786 5.378301818790683 5.117234016767876
Hf 5.386707048247622 9.38406184504327 7.0416512226741546
Hf 8.320465555452364 7.387669505315273 10.092958430441703
Hf 7.873359705240394 10.780485424132507 7.732008473295314
Hf 5.711647734416767 5.572018358467006 6.771095727044469
Hf 7.541522556045508 10.006689164807492 5.231261632083867
Hf 6.547794332553953 7.563935003698669 4.666616057808789
