12
Energy = -93.63452363 eV
Hf 9.436150638719162 8.752774525951882 8.914501463290215
Hf 8.235251190190256 7.5354148658708135 10.93842321106944
Hf 8.509405027888757 6.039569636287838 8.474804182675154
Hf 6.653210047117306 8.182820106058815 8.681043025907783
Hf 6.268043517819648 5.875409342900901 10.308680254118489
Hf 5.734896887788819 5.543070694367743 7.615298287932929
Hf 7.76514364254916 5.482752044300902 5.637253353870169
Hf 8.555365909388756 8.104494169638922 6.374100413375064
Hf 5.69781166425648 7.844537287405366 5.811458495524142
Hf 7.243927571395993 7.26759397984589 3.5605134991056935
Hf 5.248199229906489 5.4553273927454935 4.439552201598642
Hf 4.555958410939338 7.852552945735559 3.238793244490277
