15
Energy = -120.91958538 eV
Hf 8.143133842157823 9.038026996461982 8.877285536633883
Hf 9.033283060041702 6.467731846333431 8.242062502591894
Hf 7.226373737081983 6.608038611172413 10.326231337112164
Hf 6.726900500124233 10.173614071976623 6.731812234175867
Hf 5.586162823794653 7.925040367521024 8.249297599551793
Hf 9.099143975003006 8.853477104999085 6.181444931436144
Hf 8.483005986839473 4.159539850497879 9.62925246349184
Hf 8.587807204392464 4.143996231578292 6.680658359176119
Hf 6.24427246761727 4.89331395382876 8.129011241363838
Hf 7.143434590633934 9.129930694210271 4.126706097636976
Hf 4.724292783006082 8.657138980467392 5.485980474130009
Hf 7.15876603970668 6.777568892436161 5.829026652426942
Hf 4.2678577876006365 6.04525328875293 6.2835330592822825
Hf 6.058757745044038 4.162441250844858 5.300961177968609
Hf 5.328066825156237 6.627084475416418 3.7141220136534505
