14
Energy = -111.66745127 eV
Hf 3.2703470933348733 3.1006731530248706 8.167126661324954
Hf 4.632871093093069 5.5831562963950905 7.7220464249012535
Hf 7.981258619594542 7.609362234031448 4.7253873832487745
Hf 5.657435670829169 5.800781569119524 4.1541324215299875
Hf 5.891926143604591 2.8991221431693646 7.379775279024948
Hf 6.665086445787263 3.0575713723009565 4.69349993320323
Hf 5.504989399383349 8.553944501634371 3.6789260758674107
Hf 1.8586897038590129 5.135964610353268 7.130065045248513
Hf 3.3343996398637596 6.935040384529788 5.527936103420264
Hf 5.851374720388705 7.883807439849926 6.4216523995876456
Hf 7.390276814251592 5.244074512003302 6.512004048040193
Hf 3.836996433618607 3.8223278486192163 5.555588630794428
Hf 8.460999390849208 5.012098701172388 3.8237807707142024
Hf 7.301959621577563 7.000686023831941 2.146689613129795
