15
Energy = -119.85556072 eV
Hf 5.772227631659216 4.592433473665221 7.262086171949037
Hf 8.721135697795736 4.530353246815015 6.943321284289264
Hf 2.8234478663880895 4.53031206017428 6.943252141506431
Hf 7.251196879744257 7.187357832793075 6.731995712993954
Hf 4.292978648621005 7.187082294938697 6.732211892226866
Hf 5.771988218856461 9.789371607521877 6.610794851046178
Hf 7.171187880866091 2.1906115480326998 6.882031775718304
Hf 4.373593563023926 2.190636075300726 6.881251144457062
Hf 5.772021228725099 6.306199626711892 4.123826780904057
Hf 8.735204366900332 6.31400409302324 4.609167384816175
Hf 2.8095033917729832 6.314317266145324 4.6091317428189615
Hf 7.242576674783495 8.835284701276946 4.4537775202491705
Hf 4.302728871303124 8.83509523577338 4.4545768007791455
Hf 7.242652089824475 3.8902665480894276 4.67349085583379
Hf 4.301478784141641 3.8905967029945843 4.673006253667171
