10
Energy = -77.563031 eV
Hf 4.882929983319426 7.242302635238086 4.654250211512873
Hf 3.6672055811576247 6.4395023871450805 7.013162862756184
Hf 6.198772930578488 5.756986388946539 2.8853218632922775
Hf 5.788239349837505 8.670935066853879 6.708563411421443
Hf 3.907946063007822 4.645918265967768 4.659182966964945
Hf 8.127752850882283 4.453261019704758 7.120575032966339
Hf 6.3314030176895075 6.304628075595839 7.80170394536712
Hf 6.62325082943273 4.127757468901048 4.943478118527027
Hf 7.694388884033793 6.811038529832676 5.285234609684272
Hf 5.102374717639082 3.8719343693927115 7.252791185085768
