15
Energy = -123.67275785 eV
Hf 7.757983807121601 9.161616572357563 5.392173835994746
Hf 7.345550496984424 7.376369627230879 7.403605082442007
Hf 7.832877064527947 4.483604163190487 6.5063912695420525
Hf 10.327028085299865 8.461028402379547 6.98342103118486
Hf 9.812800644549215 5.833535254765187 7.92912109675631
Hf 5.777324030498441 9.880174004617782 7.672405558423326
Hf 5.212471733303578 5.3826378544478475 6.864106556900163
Hf 8.452756817823131 9.962922063891835 8.330462742015252
Hf 6.675848334789506 8.614989376927944 10.108513677021168
Hf 4.590512856107964 7.393675887923161 8.71792334531868
Hf 9.263211892889133 7.736087650795847 9.89049977976869
Hf 7.05965346706067 5.659553388925605 9.384347296890468
Hf 9.350766366265475 6.5942296363696915 5.242493040768103
Hf 6.6450682300392545 6.363648148116617 4.60855082439784
Hf 4.800249340839098 8.00003124912086 5.870087917713656
