12
Energy = -94.85291114 eV
Hf 9.17753996852921 9.2137852612806 8.826689381477141
Hf 6.644896855843396 9.916020014752458 7.966677369526678
Hf 10.621309727740996 7.44927814280932 7.195927476319281
Hf 8.307531851024804 6.493642030827619 8.386368437918987
Hf 8.407439900415703 8.585468405169378 6.017116860434591
Hf 6.714400862625136 8.175754910293733 10.113769349882872
Hf 5.666565918446447 9.159389489811696 5.491437898194562
Hf 9.031464457502798 5.685737708957553 5.705332930756231
Hf 6.020798635375674 5.511196018183409 9.602124171582355
Hf 6.5078193321071245 6.571131465049372 5.006781191459541
Hf 5.3460850376764855 7.291939509527629 7.6161868622331745
Hf 6.568044991011043 4.648360859337546 6.993574633643383
