19
Energy = -157.26728532 eV
Hf 7.368329417254409 4.634269043188492 5.1796913137072975
Hf 7.177041606509184 6.827705483169089 3.764038133196158
Hf 4.64003670990376 6.184889284383179 5.202324914699379
Hf 4.737668254997055 3.4442438282009964 5.824059015510829
Hf 9.524153537587242 6.902722211294634 5.535265377216429
Hf 5.283349054835045 8.786365226615908 4.621483018764767
Hf 6.316982930849732 4.139346443559042 7.990131343616985
Hf 5.682079083618035 6.611366719462391 9.559141837267005
Hf 8.317885089872918 5.383858617652778 9.297270100220537
Hf 10.341089991851062 6.9327145547064895 8.23138270493183
Hf 8.334247079365916 8.007680312495058 9.846458394449021
Hf 6.186558951969164 9.420527074705237 9.05438221621148
Hf 9.42533485272029 4.33832583418551 7.004238532530163
Hf 4.22477967046733 8.295550679869724 7.303779192327504
Hf 3.8349310138859933 5.398180871409525 7.711124943123411
Hf 6.331853568097505 10.374810785068792 6.561355553514182
Hf 7.0037782214961055 7.300914747357521 6.987932492395818
Hf 9.010600948512106 9.449150236361259 7.448540194052966
Hf 8.092066279042536 9.24783902645495 4.772396315829193
