12
Energy = -95.42467357 eV
Hf 6.893126250605177 7.40604026798146 5.007128458813828
Hf 6.761746117571942 4.469168812803084 4.113278665968731
Hf 4.688290750221863 6.195007922340447 3.6097846628162493
Hf 4.209374876424777 8.820104777877724 4.50084955938802
Hf 4.167910669205822 3.873592133748901 5.056754077297731
Hf 8.532581097943083 5.176085411911501 6.132096130635161
Hf 3.152380208510931 6.633305751024301 5.910112525204041
Hf 6.655998156800861 2.9748419374086277 6.483119563371627
Hf 5.155298749584283 8.386117258046552 7.074731517732824
Hf 5.5949481521130515 5.458135486142371 6.966277955951601
Hf 7.691130554331466 7.28747798192588 7.775123517888149
Hf 7.7396880103559225 4.562595852458318 8.613216958601365
