18
Energy = -148.88595278 eV
Hf 7.8504619978564785 9.438516240323114 6.5324285099738795
Hf 3.239721392149845 4.396954453511058 7.690476107100959
Hf 8.29960536221344 8.194489843184726 4.04105996814062
Hf 6.533654480687297 6.226923560800063 3.181082230299178
Hf 5.783288463796172 3.491871550190925 7.241576841868751
Hf 8.481061594437813 4.68044542365352 7.166095393705139
Hf 3.5072138952178995 7.178485745632411 7.029416824907689
Hf 9.091701328550812 5.5171807611274994 4.377074135083932
Hf 5.512973473904523 5.969829481469569 8.81646257219069
Hf 9.739106377547687 7.311163413785819 6.432744792671551
Hf 6.918280597600624 6.64818190582689 6.124349973859512
Hf 3.674244228702184 2.7888125065384353 5.389019103349182
Hf 5.396642254206609 8.597609772561597 4.927004936623767
Hf 4.485010959541651 5.397838486064686 5.023679685965172
Hf 8.0100358106152 7.467833008066301 8.670122465958832
Hf 1.8314946638636596 5.026662586499058 5.483655572673562
Hf 5.586841176748441 8.723216825304357 7.936880657547572
Hf 6.881377115524651 3.7666996086254247 4.759585401245185
