18
Energy = -148.96541121 eV
Hf 10.00238364304693 6.223715819708315 6.378810097412933
Hf 9.151996926244363 7.26731723243804 3.873185319817116
Hf 9.56453906080002 9.014794170589347 6.2745648074996225
Hf 8.767165000969106 7.490234300393645 8.812787762991883
Hf 7.568574060351516 4.677570456028071 5.301009563353723
Hf 8.686359070926278 4.508640128889098 8.086771576454137
Hf 7.390441351207766 7.430096228844543 5.893830754693549
Hf 7.39565527966552 9.637878896766843 4.363434441862422
Hf 6.236598010060246 7.0238804469523375 3.460319829001549
Hf 6.870600237017554 5.0898172056711575 10.195659261416298
Hf 6.391679465779942 6.305924569708003 7.848678640231824
Hf 4.850030714846316 8.724843139149277 5.241749088317353
Hf 6.613191954964829 9.519610115720537 7.6258337267125595
Hf 6.031600329236444 3.6096779420043466 7.727233765903848
Hf 5.724754858328623 7.810306121138729 10.012822245679635
Hf 4.608061525710278 5.768640409070507 5.730766115616573
Hf 4.137495731106673 5.459243740744803 9.038504108705943
Hf 4.01771573886374 8.00201036329134 7.7660519082535915
