12
Energy = -95.25361109 eV
Hf 4.9490880174021585 5.09706986371976 3.5114027033593054
Hf 5.866016429646095 5.939334788315771 6.200075682228134
Hf 4.991201329397044 5.043492674201205 8.882399988783764
Hf 7.316404953342842 3.8375004551530383 4.694777319140816
Hf 8.745464188321398 5.73228297068871 6.173347622669426
Hf 7.355838134833735 3.8162788391625333 7.653304475531142
Hf 5.0102137370282644 7.84704369386833 3.876083271477322
Hf 3.7706209332489466 8.018190020797629 6.2379209530670225
Hf 5.0431629670735365 7.800776993950749 8.58223476300479
Hf 7.3714863883680435 6.420462327573003 3.7268001800003545
Hf 6.599295882243245 8.494896636709324 6.22570996457475
Hf 7.408127326548184 6.3795910233133 8.662863050150094
