11
Energy = -85.77134617 eV
Hf 5.42875241072568 8.55461735212288 5.349520586307047
Hf 7.07163480922495 8.669908616522532 3.313598495062768
Hf 4.731632328029665 5.672432251033053 5.935084294745494
Hf 6.186545833354447 7.342123579593815 7.792400419015998
Hf 4.790059019687625 5.005800177288229 8.726437037232854
Hf 7.335767894886478 6.402141922220636 4.98943963357715
Hf 8.221646081032015 8.82960323585118 6.124425786033328
Hf 7.469578357720831 5.807887608190052 9.704749648476248
Hf 8.482530116094386 8.431738431307611 9.098533868732387
Hf 6.962037754436743 4.463940633067632 7.214810092330805
Hf 9.02577204925965 6.390058377655825 7.37933017836065
