13
Energy = -103.37531393 eV
Hf 6.759059544602688 6.3857451866931445 6.1973580722456205
Hf 9.335975415105008 7.536325418119412 5.824050091141674
Hf 9.02683431029867 5.3640102515418056 7.628435338470212
Hf 6.9939202227556025 9.251480065549694 6.180272352633976
Hf 9.463033626009416 10.100864289741159 7.427852424620191
Hf 5.04584035703924 7.870805055011004 7.792952807601328
Hf 6.997974813498435 10.61864272664209 8.76890043948894
Hf 10.591228029869953 7.632599397062148 8.496149878748334
Hf 9.233886116363632 12.220582221890712 9.399464684458385
Hf 6.455657431850718 5.259743989196051 8.768041050489051
Hf 7.632247958455396 7.837063360347803 8.70119551028167
Hf 9.231037985736577 9.57718384860705 10.25295161264174
Hf 8.975820820477622 6.087470821661146 10.304892369241996
