13
Energy = -102.28788501 eV
Hf 6.274410951005463 4.263418803486185 8.707960961288633
Hf 8.664594090511446 4.35433482432405 7.157587954893136
Hf 7.546393297989311 6.711729178170934 8.216721140532453
Hf 6.244194546204376 3.663603090109917 5.849387525648172
Hf 4.935527688140466 6.3547217716213575 6.980060758145603
Hf 8.525232202481643 3.909010245462726 4.382209804799146
Hf 6.585264819370576 8.733989104401342 6.3967690112429185
Hf 7.757882366798233 6.4601613872637484 5.262645852619163
Hf 6.1680970080996165 4.967509629598269 3.3232624553024714
Hf 2.43452740533989 6.957409360328197 5.707841563229054
Hf 3.8754550911544188 9.007813914340693 6.561431561867687
Hf 4.880633351371997 7.452759050518542 4.3393468233233685
Hf 3.704466924835539 4.760638733336105 4.69884996318258
