16
Energy = -128.83752631 eV
Hf 8.375696621369817 5.9646828208034615 6.95421472193067
Hf 11.138252015821793 10.682457109739286 8.541652345412636
Hf 6.51100035668111 8.053176630326847 8.446516941562948
Hf 7.5594103115811535 8.743468632390009 5.9058993854519555
Hf 9.930815985500399 7.653121088501072 4.98655014757864
Hf 5.594116157989562 6.18733271103387 6.354782770142481
Hf 7.564767416362764 6.444768299562812 4.302865904879275
Hf 8.454230851579617 6.843898413230799 10.258420790768787
Hf 7.1469417494489065 9.409923832592806 10.9305007464437
Hf 10.01610041314495 8.156898275797035 7.9484867586499
Hf 5.693118967389202 6.989163432727167 10.96013552993697
Hf 9.974847045620384 10.319999991515754 6.038770797365774
Hf 3.994839305527496 6.556582447643755 8.730799598653737
Hf 6.363103890731823 5.214530040602703 8.922584424704537
Hf 8.393476841856064 10.655506326958276 8.46627826692545
Hf 9.886425298449186 9.421925231345615 10.613641141303923
