17
Energy = -140.68599826 eV
Hf 8.87352150296472 11.45668500201031 8.22661901483532
Hf 10.710506685328047 10.752921825365432 6.235602251046856
Hf 11.046839438156573 9.539908977675157 8.80470828723363
Hf 9.135480734407494 10.499837096772547 10.716740773803073
Hf 9.994534398113565 7.8826233763402165 11.02820054780225
Hf 6.4383334362563325 10.45251430186284 9.538492285794906
Hf 10.858577280423738 6.606106463954091 8.788160357884683
Hf 8.197711775683532 9.815034597927479 5.785034302802592
Hf 7.334994390625637 8.443407254173104 11.519608975528158
Hf 10.328279785321262 7.848811045172185 6.206080297488708
Hf 8.278210966129757 8.27467221467837 8.530085997228165
Hf 5.718391636237836 8.961110051484697 7.089642165492023
Hf 7.580075023467274 7.229906941222064 5.558407947318327
Hf 7.949103384681665 5.886489854578573 10.146006234631065
Hf 8.87251589343133 5.490174612962819 7.332620540785811
Hf 5.533717322040421 7.766106118611619 9.660186419106028
Hf 6.2165800586507025 6.061840512196593 7.736817444541137
