15
Energy = -120.92574577 eV
Hf 5.413267150463433 9.963243550260183 6.786036675042931
Hf 6.23401035252711 7.888638518137702 9.452272808632598
Hf 4.011561485548108 5.3724330298533545 5.3980780861179865
Hf 4.501711297108436 5.102930393089139 8.28403563032933
Hf 7.304174065348223 8.895684159357433 4.943061348561823
Hf 10.579541832912948 7.9558394141516455 7.149082116694531
Hf 8.03929467784599 9.395055772881012 7.690164246354414
Hf 8.394827950950864 6.556347648138787 6.458130873975616
Hf 7.245367775196105 5.166576319702429 8.998776814443598
Hf 5.66376004235503 7.166211362841258 6.774059251499912
Hf 6.417075936148329 6.209133702188531 4.130928726385664
Hf 6.444762992112658 4.291617031470453 6.366187369243266
Hf 9.001092219627765 7.32731582009607 9.323045197193096
Hf 4.564989255601233 8.342117677930467 4.482919921952161
Hf 10.047959039576194 5.131301437955763 8.022831315295292
