11
Energy = -85.14269492 eV
Hf 8.94431337645015 9.34555441339614 9.345259515959766
Hf 8.255123416109674 9.049633905863752 4.431196649072395
Hf 8.751519091385584 6.658494363845475 9.62651573141091
Hf 7.613886258565474 7.824699193144201 7.10696297445083
Hf 8.432196758151857 5.092274904746712 7.152729402650862
Hf 5.773549795117038 8.000843891882356 4.744311583270951
Hf 8.027149717713938 6.352236337603425 4.522031774367909
Hf 6.494982878274572 8.301186977616052 9.85453752662803
Hf 4.795681399795818 7.745372390701988 7.510629512778687
Hf 5.840047898987941 5.531397767933105 6.042788998514637
Hf 6.243647257394716 5.701057257905121 8.879221424434848
