12
Energy = -93.64636777 eV
Hf 6.308288949430706 7.882523833703833 3.7181261026177728
Hf 5.6171110809012745 5.867217270804839 5.2682615355560145
Hf 7.308541224459924 5.01776939539049 7.207473376632949
Hf 8.539568982403962 6.82025322965201 5.179285207793617
Hf 8.109765287162926 9.590407277809833 4.583092802930777
Hf 6.501117501565827 8.25539466102386 6.566712459153389
Hf 9.140667210795401 9.231579163184877 7.007743668019192
Hf 9.207341521161895 6.719447222376694 8.086691214605766
Hf 5.238979797797512 6.390220770014987 8.560289300866353
Hf 7.444165237694528 5.478619269319348 10.0722661063016
Hf 7.264080007703898 8.227706905712795 9.474544149513934
Hf 5.429499628882821 7.081097522502589 11.207548378242699
