14
Energy = -111.28557933 eV
Hf 9.526137821314405 5.3243609898971975 7.5695872092589855
Hf 9.851839008074547 6.479756342306469 4.969189241655895
Hf 7.328486438547525 5.736494074928061 5.851046267458523
Hf 6.8539402197836505 5.059730792393358 8.739480224550007
Hf 9.862599266987424 8.164085683703448 7.084468070354442
Hf 7.6694294647897125 8.613931070718873 5.029680025551538
Hf 4.823760929060761 4.730715378422148 6.471711430562838
Hf 5.065017226156784 7.279506344122408 5.187304466345772
Hf 6.228534317981596 7.103634750030739 10.484126326144018
Hf 8.946804016865073 6.945423407245405 9.806023483806651
Hf 7.190515228420365 7.999811023195839 7.984371932831639
Hf 4.572016127452079 6.9254440391454235 8.02456687202895
Hf 8.043343060636047 10.50695134826829 7.00158164842885
Hf 5.391453367976077 9.634194710235409 6.707227743824902
