15
Energy = -121.08143504 eV
Hf 6.3014676731689345 6.301686103007784 6.301541257145526
Hf 9.156620667071937 6.009995506146351 6.313612544479267
Hf 3.4463027778697826 6.593270389711754 6.28952202667019
Hf 7.528686909223309 8.895690211955662 6.286201224923716
Hf 4.729728425485581 9.08802412422234 6.274986057218311
Hf 7.873349754961316 3.5146432261311444 6.3280004246518695
Hf 5.074141350128349 3.707024486944452 6.316885206776632
Hf 5.480210611003215 7.761690193505038 8.631633811224269
Hf 8.264199955155968 7.429159364479426 8.562084931398573
Hf 7.108156363822796 4.875565148654309 8.659632491834666
Hf 4.323924753221256 5.206590736817174 8.565724594387419
Hf 5.495022252103752 7.7277808081442805 3.943528159980418
Hf 8.278981231749906 7.396289357913743 4.037285133502883
Hf 7.123066401378009 4.841337870311457 3.971181072704404
Hf 4.338604204639576 5.173715981522737 4.04064430484358
