10
Energy = -77.56202922 eV
Hf 8.793414981542897 8.797625864441764 5.563088524646035
Hf 8.190090498886056 5.948076783043542 6.411307431384536
Hf 7.222226220477367 8.257436007984776 7.808035246195087
Hf 6.363088621556741 5.765992991144422 8.605239717388203
Hf 6.897466450333666 3.3527503384035797 7.300441759542147
Hf 6.712227881432122 7.343905573878501 4.397749222820081
Hf 4.879661862781511 7.160863426387825 6.592642425542616
Hf 4.283501602382251 4.3087435821053335 7.447309334883252
Hf 6.1781002248726775 9.754259254354903 5.696714857436441
Hf 5.842707795861577 4.853453307181431 5.195529869867219
