19
Energy = -157.47405496 eV
Hf 7.805573008153725 5.0824874479438105 10.204074931203447
Hf 5.342291482807856 5.0677590698136665 8.81574399079902
Hf 9.469295862511613 7.303977065136284 9.670406551456319
Hf 7.475210470562431 3.5036655168682356 7.841719468345938
Hf 7.581428635983052 6.502488916036263 7.5759945069987715
Hf 6.466739248620241 7.661705486565002 9.915917021015918
Hf 9.980875951675056 4.861743665777978 8.361381586173614
Hf 8.946865192013842 4.693553870613248 5.708631871026143
Hf 5.918582214302368 4.9502995406801045 5.83623699008227
Hf 10.201880519330722 7.271049365247037 6.723459715639816
Hf 4.491053485154984 7.336384118207912 7.404059703104491
Hf 8.489361538974178 9.503498466523798 8.231941824965514
Hf 8.012594256580355 6.87795129659004 4.502719996730492
Hf 4.863610947447922 7.28982874838982 4.500171048621202
Hf 9.242385030134807 9.662890733290611 5.4073060979771705
Hf 5.562014354744001 9.90600199801621 8.411148217264241
Hf 4.130989275745417 9.81836139244545 5.972665504155485
Hf 6.641377685218545 8.913594167590276 5.801549258482873
Hf 7.098868302579181 11.426797691053332 6.587828881038512
