11
Energy = -86.6105476 eV
Hf 8.276389079875058 7.359473817788089 6.375911795725662
Hf 5.1295945456929655 8.135010817463284 7.665271865208989
Hf 5.673147659099385 5.626336961998479 6.722942156201878
Hf 7.2217155363796035 5.432867063829312 4.556215152705675
Hf 8.99628095410461 8.906607355690156 8.78262661218421
Hf 6.449403085059143 9.54799191002718 9.655279831354882
Hf 8.220937872249994 4.584403996672303 7.165896800512756
Hf 7.250336122090884 6.614193582997825 9.0933581839718
Hf 5.900975100080986 7.902960546951476 4.983455004184276
Hf 7.037783507875721 9.996859791963889 6.899045636263493
Hf 9.953560507624672 6.380200510494507 8.432895303461578
