14
Energy = -112.50030449 eV
Hf 7.0030593531158996 9.825947363231576 5.203870634258291
Hf 4.673688360332106 7.6729345155443305 4.567214941908823
Hf 7.259035168134296 7.1779924448336105 4.365057180280432
Hf 8.166059947364209 7.636941513437701 7.074510916391157
Hf 5.246216910644729 9.030162912483277 7.040033774027012
Hf 7.60412895572747 10.064983429492301 8.162399982537314
Hf 8.310070153032155 5.106567392382279 5.681431120473186
Hf 8.837041627084304 7.628395231495981 9.710361411193146
Hf 5.69468708406122 4.820023222313717 4.6104305749002386
Hf 9.426177227781022 5.050661129344861 8.237490377340528
Hf 6.1032166150791785 8.048217905596282 9.368122062464725
Hf 5.245940342615576 6.110316037112581 7.003183180338521
Hf 7.014615759956945 5.54204868096241 9.251107191757887
Hf 6.753405912154916 3.579160798392215 7.163106444286992
