12
Energy = -95.44306722 eV
Hf 8.31420232951049 6.2699085004136235 6.799727978734303
Hf 8.512505211049298 7.959587942337932 4.761092564310932
Hf 9.084648596139854 8.635958455778349 7.726991539664451
Hf 7.209049000614042 5.154429743359699 4.653977490344825
Hf 8.135470604009116 6.257214210083174 9.446572746034375
Hf 6.975856717317912 4.1029454333899755 7.5500994168496876
Hf 6.663134793057363 8.657975285783731 9.190079171356786
Hf 6.896280324725252 9.709988677304429 6.293107144259909
Hf 5.736915174864821 7.557153732452377 4.394522242326543
Hf 5.361667714543461 5.853143348410058 9.079460504717382
Hf 4.787867987183378 5.175595063796907 6.118166766581711
Hf 5.550489634182372 7.545142053571655 7.045376101708457
