13
Energy = -105.66481183 eV
Hf 6.971932904933668 5.412111375247297 4.4458979622171215
Hf 8.533515381071688 7.854630829043124 4.796438645390931
Hf 5.5972276852005765 7.974840945778954 4.695012255201786
Hf 9.29348019809033 5.533558366884914 6.422900274099759
Hf 4.446401194162924 5.620370157878238 5.98934663242626
Hf 6.771927323065313 4.0416600420595215 7.13915694853103
Hf 6.856524509215005 6.782120206504318 6.881825185716809
Hf 4.401770673183009 8.212546183265836 7.322417999242822
Hf 9.178062118191681 8.114387624096043 7.744087369650021
Hf 5.199732328150245 5.903279223535973 8.92620075429473
Hf 6.949796746699019 9.739770048135489 6.605696749844606
Hf 8.183796096101243 5.762854626661432 9.177258438522022
Hf 6.769202168407048 8.311076223569067 9.275008420068598
