18
Energy = -148.40325 eV
Hf 5.242377081887643 3.9692802124419333 6.630331184792548
Hf 3.9746230537484335 5.579935807246546 8.37362120155736
Hf 7.908375605086374 3.64179379911148 6.5074780408748545
Hf 6.690693438941718 4.779786358146889 9.194395590021808
Hf 6.586782527383713 4.9921660051682615 4.424632548590074
Hf 4.331907776888931 6.537889593895532 5.590098746902089
Hf 2.9812292003220566 8.013128597079977 7.714195946031807
Hf 9.2761003523658 5.871790064726917 5.139731859237494
Hf 9.451062112999901 5.09467392068974 8.202216268279289
Hf 7.123219998583726 6.5082024910555525 6.935907794287331
Hf 6.765469441609904 7.857064645456123 4.257420270789366
Hf 10.039739543626437 7.627149625695524 7.521763737686432
Hf 8.252163405384806 7.214288704534942 9.606460699868892
Hf 5.509023972660064 7.9039162104257805 9.077093346825327
Hf 5.154672750178874 9.228523985211034 6.400299078842274
Hf 7.766985479014371 9.445349060027917 7.695589756024376
Hf 9.283656813104077 8.820784083124778 5.229145288557885
Hf 7.229653182472749 10.578785042571768 5.062115554406573
