14
Energy = -112.1863944 eV
Hf 9.359643893930777 7.990966662465557 9.24934468796901
Hf 6.862764152470886 6.695824518516948 9.595124166930988
Hf 8.680269760566194 5.6258624337322445 7.62388192828439
Hf 7.0348546027734145 9.32422925913031 10.079314784654501
Hf 9.98103250831262 7.770618395636217 6.327078273685512
Hf 9.827870887995074 5.269171892768082 5.098163428260361
Hf 7.26913730237712 4.2043443278001265 5.4401549083621195
Hf 5.575274772892535 5.811091129191107 7.197531217997957
Hf 4.902615635790778 5.768233777361715 4.47955425001332
Hf 7.597592048234994 6.927537602826246 4.78007091190763
Hf 7.418633883822121 8.712854148760727 7.362520173230917
Hf 4.7419740376718105 8.311537817666386 8.429220288414536
Hf 5.223543026196787 8.370305348149692 5.559839956861129
Hf 3.1272182308026095 6.893466559753863 6.337639047564345
