18
Energy = -147.77440629 eV
Hf 9.095137024956855 8.213021899620049 5.490554142912407
Hf 7.9069308027163645 7.019474969691467 3.1543120340481
Hf 9.693316930712037 8.32500523033547 8.49138973603225
Hf 8.58933647354116 5.327679453979083 5.5897148184794
Hf 6.90047761844243 9.423853732053882 4.233317432368116
Hf 7.542762036182585 9.689953114460991 7.198629035877401
Hf 6.314286233195328 4.7462149499165935 3.6429740074966626
Hf 5.071526428793692 7.242954602606739 3.0870562946129394
Hf 6.283515376556713 6.922969350378209 5.559031825159538
Hf 3.9832029525658523 5.2220760155192485 5.16346192819725
Hf 6.144648912960038 3.9698375777841517 6.415597723537288
Hf 7.353006766373799 6.7318425667045405 8.056987121217405
Hf 7.318277464525543 8.960706971031072 9.937087792285881
Hf 8.56797379401109 6.510506333074476 10.617385226677564
Hf 5.05011936383942 8.370110674103126 8.070578840957324
Hf 6.824446545804893 4.247154213145465 9.343587103686058
Hf 4.574715465955573 5.464842164805001 8.139266872397195
Hf 5.746966037446354 6.658070790845973 10.465122165948241
