13
Energy = -102.70209926 eV
Hf 6.579934069566858 7.378607111028369 6.628467391610083
Hf 5.624385062844916 6.611441602165916 3.933179479548081
Hf 8.088365992599865 7.7819976300979965 4.112674636919159
Hf 7.369720903002802 8.985403040036203 8.988846478259493
Hf 5.545088568650082 5.078673871539614 8.06552378427669
Hf 5.033294547124748 4.35242524007363 5.372686920908674
Hf 7.740702047899357 5.164230993914278 5.1520193479610645
Hf 8.831315423762545 6.648879253869107 8.310634383731845
Hf 3.7450089299522196 6.5346354679811 6.421044887398252
Hf 4.5607998300017805 7.643195970214485 8.783522339423298
Hf 10.027904096708287 6.732582749560073 5.742166412879215
Hf 9.019534942256476 9.049065942203718 6.808213986684103
Hf 6.688440157299215 6.602175114776501 10.168377199827436
