15
Energy = -123.73620754 eV
Hf 4.016628553592246 5.584451926271784 3.8834314223073476
Hf 4.495895000024326 8.312514206009295 4.591024127631394
Hf 4.736742190266819 3.6921827956944173 6.2330107908538395
Hf 2.9532832747343254 6.206010148124062 6.387428560153759
Hf 6.030875275048581 6.028462810270508 6.029347491962439
Hf 4.640586569636958 8.289229682653549 7.376947289545072
Hf 6.303307358996719 4.11421953090203 3.6084918531994403
Hf 6.426126283995721 6.9464911350721 3.222236543161096
Hf 7.818536716914363 3.650755198735992 5.90636381217076
Hf 7.321407447360899 8.366742338829868 5.825600782835801
Hf 6.864496630863522 4.213606631474566 8.402517266022063
Hf 6.842281829524843 7.367572356763799 8.70409977633086
Hf 8.75847415539149 5.993767315916855 7.214042950730407
Hf 8.715002165163893 5.962967602317054 4.482900429580972
Hf 4.516487443556436 5.711157216035511 8.572687798586022
