14
Energy = -112.15765163 eV
Hf 4.332852771861471 5.6361188608342765 3.6590654794250046
Hf 6.059837308906465 3.4713491777291092 3.9532423819840288
Hf 7.044117868144864 6.196988450541169 4.7198650818532
Hf 3.1629235602593586 3.478575143432187 5.136930177894311
Hf 4.922725477523089 8.139379393484164 5.374729729835685
Hf 7.7406734236935275 8.870201820946573 4.537632292807719
Hf 8.392343593266865 4.0615349983949445 5.722343213563214
Hf 9.435697661698212 6.991384522247481 5.9989106525917055
Hf 5.4940334675605005 4.385225880871888 6.447069823921164
Hf 7.202276856320755 8.281853185611473 7.091173829924079
Hf 2.9085703589781633 6.132469057872536 5.994317460675053
Hf 7.733403154525624 5.675227469096168 7.894332600608446
Hf 3.158387599918287 4.30631845290196 7.935720378707447
Hf 4.8542824938924936 6.815499182586315 7.976792492758915
