13
Energy = -103.53097103 eV
Hf 10.764592112160509 7.805252515395145 7.970090788596648
Hf 10.770080643187208 6.117712740602546 5.844769527648021
Hf 9.026223384290873 8.229459913813047 5.902907856851495
Hf 7.863436552227433 8.596118984065667 8.533772336970136
Hf 8.584216377087241 5.975587970090992 7.677666736659033
Hf 7.859794605734636 5.7577329225711456 4.937728448115754
Hf 6.181865119552226 7.7490342694189405 6.306948254085849
Hf 6.108564051073158 4.57659008540999 6.888557847390597
Hf 6.124639394247525 6.435849651907029 9.22728631908361
Hf 4.65595643511782 8.750214665327505 8.48491521275177
Hf 4.66920950754138 5.872118285943418 4.82698263612128
Hf 3.446845415985607 8.227965283820192 5.951613582257886
Hf 3.8684771814246908 6.1485213057281385 7.572824700470076
