11
Energy = -86.39980505 eV
Hf 9.136490744209508 4.437414298356956 7.89271753710425
Hf 8.603074596485465 7.3856089306072565 8.050303186956842
Hf 7.530389545653042 5.79056137525609 5.881517384124426
Hf 6.678943379327788 5.32434885307134 8.653204601897936
Hf 6.921224417618953 3.1907540175446334 6.945395648642964
Hf 4.8730713254295175 5.2128115063516915 6.459267341430369
Hf 7.793153576467718 8.685919096198507 5.6080269987771665
Hf 7.550099233800516 10.188670374424218 7.863679215140488
Hf 5.78438669957134 7.893808656767321 7.597943206980137
Hf 5.272698720969331 7.588031785295337 4.882597102072166
Hf 5.585676649319783 10.270024445812897 5.994038824419318
