18
Energy = -145.36947102 eV
Hf 7.0706661051909965 10.45541083125816 9.106939966207625
Hf 6.706857484025634 7.480009916624842 9.57519265431167
Hf 5.0303172378905865 11.4374354535068 7.524268569382511
Hf 4.792366905107285 6.474613843133549 7.882089361384631
Hf 10.126918579390452 6.863041899312882 5.8273668618182715
Hf 9.635532503573298 5.956155221423552 8.495730635740868
Hf 5.7324068916584725 8.877322151264533 6.555142017799118
Hf 7.563813378892768 11.198153859067054 6.351154625243761
Hf 11.472142060198744 8.279464668696502 8.298287300551788
Hf 7.342002619681948 6.239634597637739 6.443377547612287
Hf 7.0128152355614635 4.816880135595815 8.988547481329812
Hf 9.934318940154569 11.038911192097224 8.436839226397474
Hf 8.865092967435825 8.83142939790015 7.272486724199525
Hf 4.41732229514151 9.175187502108187 9.094544699227248
Hf 7.898583306275116 8.524993896930528 4.716904380324152
Hf 9.394881154184443 8.727777920451592 10.267785911834117
Hf 8.619795042235797 6.036615529706353 11.18658721960239
Hf 11.292659591518829 6.756544434549797 10.638259886698512
