15
Energy = -120.95077131 eV
Hf 9.14727949079196 9.080010633509216 8.335613501058274
Hf 7.372386859073814 7.1145298981373655 9.429434548945741
Hf 5.616862153376512 8.959539114118394 7.834136047877734
Hf 4.310409360717612 7.655237285117313 9.78134171185202
Hf 9.956752239510186 6.461779255780995 8.125676754073687
Hf 7.748763085392516 7.53316548155564 6.488788719884219
Hf 10.414004759071872 7.982733760997219 5.758758221280952
Hf 5.21820104943151 5.973559973891043 7.689976566106254
Hf 7.73205787488614 4.628061408898748 7.839046681645968
Hf 3.072719432823343 7.724229875160089 7.206904720349964
Hf 9.475891383258281 5.303634233645717 5.605979755081774
Hf 5.1408255730891455 7.679416964436175 5.178982094867668
Hf 8.28569327281569 7.014600020004892 3.80889493932093
Hf 6.587902711695204 5.094629026867637 5.109983831035673
Hf 3.5537015247748274 5.520745871619765 5.441163033814603
