17
Energy = -138.54773424 eV
Hf 7.969759477619429 6.706024443402353 4.614163422862344
Hf 8.225349051659906 4.0298855230698445 5.492928260598456
Hf 4.813295870228812 7.065259312903342 4.205089071060854
Hf 6.411348097262974 4.612579197174431 3.4238064964917885
Hf 3.696635310373054 4.163417668224934 4.136756728664499
Hf 6.468056315960135 9.043691152875628 5.641484178690906
Hf 7.154056966708101 6.863238595315472 7.650282570968675
Hf 2.6311287340063942 5.9893301704428925 6.045559994965699
Hf 5.742382643319763 2.467628152681801 5.062992302240647
Hf 3.3486933588440233 3.4022359794744186 6.84230628831447
Hf 9.862726950185651 6.1578225766094326 6.776851340386102
Hf 3.88806150873891 5.687170880434158 8.551400334328106
Hf 7.086106924964107 9.517043963016814 8.40299761403337
Hf 9.071422130634602 8.816676548308495 6.455708549890023
Hf 4.360588267300865 7.982373232094228 7.084233900724363
Hf 9.353798355626834 7.908456944493893 9.025235979832319
Hf 5.466408103900056 5.136983726811959 6.138021033282088
