16
Energy = -130.94556795 eV
Hf 8.634938043741972 7.494102881131336 10.335949364097266
Hf 6.118898459476403 6.275475413593902 10.678334157936849
Hf 6.098386798105659 9.07480745697447 10.716916806378414
Hf 8.629614144237093 10.267459038629758 10.8240218338094
Hf 7.5850214637507465 5.274177938480813 8.409153779511223
Hf 5.376399455056064 7.626498475210621 8.305593288823577
Hf 7.168570024476503 10.476002799177186 8.41019113771477
Hf 10.242087893639955 9.495903638297033 8.563560379893657
Hf 10.413792545494452 6.444954974933413 8.3721850272408
Hf 8.124977591834686 7.920513481486305 7.40879677007254
Hf 8.14948795947418 8.012123378517172 4.484603731305892
Hf 6.270305902410542 6.3063297222287735 5.901079167213807
Hf 9.10338099038563 5.668678699543461 5.901887050216035
Hf 6.023364237667654 9.295301953349101 5.968356764609338
Hf 8.824220166866807 10.366354709077454 6.0498636412118
Hf 10.626629031555819 8.08997716149298 5.990106392247144
