18
Energy = -145.37878184 eV
Hf 11.654924068957943 4.953262798934899 8.768794879092452
Hf 10.837712080732775 5.072698897849271 6.18806726023534
Hf 7.587772556850595 11.446143146508001 9.49246245261586
Hf 6.580337517858735 6.447195745581799 4.3206371268238515
Hf 6.655634794971187 11.53180714318237 6.95498614604805
Hf 6.641531874487353 9.103720285886999 5.4504439135953175
Hf 7.091426684970366 6.67621837360363 7.061517297199927
Hf 9.360964840056674 9.21281564785618 10.377353778533658
Hf 10.151155483756858 7.1988912105295775 8.054672080446904
Hf 7.403241809948174 7.081333694923239 9.950934864334629
Hf 8.297655744523256 7.72281421739102 12.498302672417731
Hf 9.084375419138942 7.2953144393432865 5.109710907405491
Hf 10.028394073957923 6.216985407414518 10.80333026394335
Hf 8.162268498363048 4.5436691626976575 5.424133857009323
Hf 8.952352253070456 4.613876094376064 8.373897741633177
Hf 8.650413746523972 9.663685908190255 7.439066645333678
Hf 6.644204205372944 9.528186488509593 11.362034232120527
Hf 5.92190714767002 9.308379704826182 8.472829763925516
