19
Energy = -157.04371441 eV
Hf 6.365793877974739 4.512765006991789 3.700462473511521
Hf 6.4651431749603905 9.981607296746855 7.876904925247812
Hf 9.008534418623494 9.001364364030588 8.934709417136744
Hf 6.95588107274111 7.007660215931145 8.046029453397509
Hf 5.238605495106648 7.043664767502769 3.242105341219855
Hf 5.6394546783608535 8.54340555841861 5.634645381692055
Hf 5.824645887964209 6.1061916535877145 10.631796381444666
Hf 8.5536605866079 8.861329612339146 6.221234870417627
Hf 6.523814419859125 8.776203910771457 10.374284362208268
Hf 9.618540971489598 6.321423858838742 7.667697100862427
Hf 7.824293258856331 4.479190763113468 9.323489203327147
Hf 5.114763677307802 4.655196952310003 8.396155865420551
Hf 4.775348082362063 5.735785288117154 5.8590139096656735
Hf 7.430744316987716 8.822035244414836 3.310386431557793
Hf 8.067328646228036 6.491354124925693 4.760049552259375
Hf 7.323850754784847 4.375261934867582 6.5890497715673435
Hf 7.549514187260889 6.3686882312005855 1.9240955985796988
Hf 8.627170846278132 6.813013949162064 10.558714898300144
Hf 4.35915989448966 7.683858972387897 8.411421768297656
