12
Energy = -94.52864258 eV
Hf 5.812041379262756 5.298145803569064 5.334775174447206
Hf 4.15263336433522 7.854960443106037 6.748851153056282
Hf 8.466126447727339 6.123395539305714 4.7498265867249145
Hf 5.0523036281739575 8.809277230661792 9.307014535829643
Hf 8.75281202445766 8.29190361524302 6.58695742512868
Hf 8.917513552992533 5.430161366783984 7.495651321654004
Hf 7.831988272228218 8.761865898414092 9.248380858099468
Hf 6.347173010783958 8.058396217503903 4.879644186489049
Hf 6.42769406966204 3.9293946202394134 7.814862275058219
Hf 8.057750813616714 3.5153922238854576 5.615846333841358
Hf 6.337212976735822 9.776235268632842 7.085426160046108
Hf 6.459609577794741 6.841807739718091 7.755143833687745
