13
Energy = -103.01374686 eV
Hf 8.79498887156132 8.189728360300139 7.4071145346490095
Hf 6.090930394201476 5.970984216502094 3.975950405855306
Hf 6.478544501356039 8.440523493784237 5.109949874793318
Hf 9.614933026118528 5.331309327168645 7.3050423468223915
Hf 7.510237340137839 10.590291567208766 7.0393975195285
Hf 6.963821437481105 5.802042088549202 6.637226397618698
Hf 7.533632094374301 4.248342875653366 8.995847311569017
Hf 8.690395427648763 6.579079487176115 9.698786793895778
Hf 8.80138608807912 6.905548714923332 4.831897764136883
Hf 7.301094967921445 9.137131729865548 9.597868321212317
Hf 5.3926658731393005 8.984669432835528 7.581407522457084
Hf 5.8601434269994535 6.68794082140802 9.177731584417112
Hf 4.389448979307542 6.764943026147966 6.152768487181406
