28
Energy = -235.39586306 eV
Hf 10.1497966965311 9.595442161921776 7.087544170901479
Hf 8.50578104592595 10.16474767479665 4.7038623974928075
Hf 11.360163424987102 9.804755578548146 4.441854465340975
Hf 8.95938977168261 9.42779567638512 9.863031254332348
Hf 6.828009893007176 8.100429440801639 3.2161934600748463
Hf 9.718968314523876 8.284679350827448 2.9204374386162657
Hf 7.404219028750318 10.297717060943862 7.596732569752372
Hf 9.59068929119613 7.127345194994409 8.252959935393365
Hf 5.7328383459461465 9.862680676257682 5.146751929777577
Hf 10.616180266852549 7.249426594158112 5.474062936454999
Hf 4.673221763914138 9.002287551184978 7.639244674915678
Hf 6.0489360012063464 9.863295033532358 10.10058716617232
Hf 6.98203715991496 7.416955412335022 9.444001368408788
Hf 7.494853516401928 7.611632627913456 5.9738430930548585
Hf 8.70798427646826 5.774324222617133 3.815891185767166
Hf 8.572736265006608 4.866377779524913 6.512950733612413
Hf 2.7910126142940177 6.838285723657386 7.496632464834095
Hf 4.053751903048977 7.507076399856527 10.035419688235
Hf 7.720197566399758 4.233248582709889 9.25685306912704
Hf 4.484685827227124 7.313043393913145 5.225658552589846
Hf 5.595576763833909 5.193164109718441 10.845452351474352
Hf 6.129699201019808 5.0701905914495535 4.866340780858762
Hf 3.6328296011269847 4.018800256057968 6.677044228985388
Hf 7.975944476557303 3.0276977990858644 4.309516350532309
Hf 5.529168762978081 5.674859171236344 7.783229966078328
Hf 6.472785181575297 2.9208174205038384 6.804653755866965
Hf 5.063247360597936 3.005697797041027 9.17329405263816
Hf 3.1117841426287454 4.8569867837831096 9.411588848416718
