25
Energy = -210.56844165 eV
Hf 7.266718335655503 6.194648233521286 4.014659636572868
Hf 7.460261132225205 3.4833812570776788 4.280262058619664
Hf 4.784614593166247 7.369180135699585 5.690641438991913
Hf 7.971763193324516 10.813842313384196 4.5776695359061295
Hf 8.826621374239531 8.545362734048805 3.0929889578671075
Hf 10.135956212201803 6.652122758789256 4.867534473631978
Hf 3.2245371470455524 5.669503834513987 7.291420653494623
Hf 8.646949122640997 5.242182157397271 6.779932022494603
Hf 7.350391180301736 3.4066522450312133 8.469945349364707
Hf 4.452968726147251 3.4545860385214793 8.719593701557269
Hf 7.8059831105324715 8.13758177210228 5.936538118054736
Hf 4.9168388279083395 4.8555656134324785 3.5893073998363865
Hf 6.10772372099023 4.460129258942503 10.799361992118573
Hf 6.004924387236948 6.04448637743707 8.255776028057802
Hf 6.014400326137513 8.940333936119696 3.714444138012275
Hf 8.415500738552073 5.946175947288789 9.743178394501738
Hf 10.421234162762442 9.45585283388034 5.2641231787022935
Hf 3.653574112730032 5.80712037318075 10.100605758426846
Hf 10.024259104335957 7.8104739964441965 7.672446491580514
Hf 5.644313346246067 4.286096309288245 6.140404204834068
Hf 5.958080812030382 7.299162401660184 10.850827705314986
Hf 5.853144295799754 10.113838101664017 6.502782647924071
Hf 8.731573840012121 10.505364771033436 7.3000969460116
Hf 4.237023065891083 8.240228790365205 8.559369239253169
Hf 7.302362948135069 8.728514189396659 8.884862550842554
