27
Energy = -228.15522829 eV
Hf 8.446548445794228 3.6769845868173365 4.2802086062654725
Hf 10.092906185677009 5.806997205756436 4.721271866156506
Hf 7.0210112989541855 2.8606688481088893 6.647512784792287
Hf 5.757798573742654 4.174947361945093 4.428572517873877
Hf 7.525701975785991 5.719163258515126 6.206268927160688
Hf 9.393601488646947 4.6399190871810045 8.133098092035818
Hf 7.489835699378916 6.306225563317698 3.427596208494655
Hf 6.62910725976037 4.1648451596393965 9.18191545307766
Hf 8.91040516048371 8.416596240598643 4.940414775636205
Hf 10.18298810037594 7.518274826665721 10.089968861632991
Hf 4.774782863514097 4.5430852642007356 6.972450839057088
Hf 4.9979309085466435 6.993413643385991 5.223908945048021
Hf 10.354988541492647 7.166254820753612 7.134464965899545
Hf 7.67282845428921 7.085676143838091 8.901137908372576
Hf 6.736733553078454 9.127222747838056 6.961739354412431
Hf 6.0256059353670235 9.572706709265045 4.270654467496639
Hf 3.924683808624656 9.35377547470833 6.388317416353382
Hf 8.427151800089577 5.294765285701116 10.97351950930132
Hf 9.680446456269191 9.81101960172355 7.614282868833774
Hf 5.61481580424087 6.316591470151969 10.848928891004743
Hf 4.6282798852079425 7.0463985079048514 8.167570327626287
Hf 8.129397410015088 11.215003742456359 5.5292216196382915
Hf 7.699214826284536 7.922832413836585 11.695097525246434
Hf 5.726050895018874 9.272244274705827 9.76217793872736
Hf 5.486204405929377 11.667370897357474 6.18056556043346
Hf 8.57539889731551 9.94398699496125 10.215172987957107
Hf 7.528156072174201 11.655882227431478 8.24118489062908
