25
Energy = -212.46318014 eV
Hf 8.07373610215193 7.648920949040404 10.971456845476729
Hf 9.703143987438114 6.432663091274998 8.711120930861597
Hf 8.293344855268998 9.421229088827275 8.487928925761244
Hf 7.882103654665881 10.35889131287762 5.761034541769736
Hf 5.444783532687232 10.264191004334169 7.522678283107454
Hf 10.446004551684279 5.11882693513484 6.239337266458798
Hf 5.7807773455364035 9.094859185914675 10.159273533569351
Hf 7.751657669057 4.87666092440126 10.345887844847597
Hf 5.403117816321573 6.357213192440536 10.896711817060565
Hf 8.296529962554898 3.579244548844148 7.805160354404741
Hf 9.616214585428226 8.01745964379985 6.026526501435396
Hf 7.698192418464782 5.722799676230477 6.1310197449193895
Hf 5.381083941886998 4.460114998953253 8.496993630461438
Hf 9.370196203788645 6.028190208941123 3.788418933283054
Hf 6.170879061735716 8.041308122622798 6.012997258424482
Hf 7.626475117073831 8.339399232198364 3.5935325182964624
Hf 8.580176851052304 3.474594308290884 4.788304962711092
Hf 5.403302161930149 10.216813402539534 4.492518243292513
Hf 6.8313183949130165 6.943752945853841 8.6199584346573
Hf 3.9621808593555463 7.454562176820654 8.455611640881365
Hf 6.007585249516937 3.391753321242964 5.8608588935943065
Hf 6.4401543349841965 5.3008713404687 3.621813527106004
Hf 3.424237853190582 8.642745400344724 5.870505216479168
Hf 4.691063865774727 7.61481775829805 3.561954350258583
Hf 4.262674669096871 5.739363290869083 5.870230263111296
