24
Energy = -198.23221083 eV
Hf 10.647501988510154 3.841999783837401 7.0658450547359095
Hf 7.937313941076686 2.5824766092247526 6.2520826238001055
Hf 10.966558285657072 6.48185385218165 5.871463827448979
Hf 9.809546443957679 6.296940059233668 8.527831451893082
Hf 8.722818093625074 5.025406773193506 5.514744188500274
Hf 8.382236400027919 3.845855040328529 8.61998487288019
Hf 9.693724433849702 8.936361121441573 6.705751134171309
Hf 8.6217796947056 7.6377695710596045 4.342511367239019
Hf 6.0028153147550105 4.581421510492038 7.366265267507425
Hf 7.0790689724501155 6.14639417157963 9.883241006745207
Hf 8.498365149634454 8.86852970641282 9.490741132553278
Hf 7.2635402808433875 7.423925478886644 7.232279584286537
Hf 6.92660896231213 9.733592368671173 5.408201957928717
Hf 6.039274556227556 5.852978217576812 4.703978073048583
Hf 7.531292495631025 8.381169730793204 11.974973638870965
Hf 7.865891719453298 10.958487929532133 7.839634413521143
Hf 3.7253346215065455 6.582837224747193 3.2794928366064062
Hf 5.894296566184517 8.267825943562329 3.0853678887140417
Hf 5.43116449839451 8.427006401782858 10.32407655479541
Hf 4.477018534829286 6.940602333095999 8.083282487586134
Hf 3.4331615185127555 5.518878553272845 5.78709774265333
Hf 6.707655734903128 10.851783252265166 10.501581337957713
Hf 5.3102564177336555 9.849408183219325 7.921877593810272
Hf 4.2639565351538975 8.269609991005606 5.452370814152243
