25
Energy = -210.29149098 eV
Hf 5.301167572174721 6.522126701835659 5.70561700501492
Hf 10.095619928398971 7.6177054453179505 3.944611169318046
Hf 8.231565517196257 10.538305528963146 6.173619550614006
Hf 8.06062360324566 5.468510772357815 4.397519960992578
Hf 7.456984169551627 5.103023565859974 7.311960756045352
Hf 12.494365879261995 7.126067861484633 5.241290380389457
Hf 5.340915109713909 9.627122552221666 6.363087545612875
Hf 10.22989762872675 5.846794126887243 6.2699841401274945
Hf 6.023375087249703 7.669020417729193 8.303168435358106
Hf 7.809833155384452 7.849794869366683 5.586182314494604
Hf 12.263837453957391 6.915679111124819 8.0063765566435
Hf 10.788065873155388 8.95751725446622 6.563873643298822
Hf 9.809261412581252 11.17567772698052 8.385869434726882
Hf 6.830035356052839 11.034774006803923 8.685790128807723
Hf 9.727664188853808 5.973876695843867 9.189637775956255
Hf 8.611543118882668 8.606919033708264 8.508226334998422
Hf 3.32586249166259 7.670396128993351 7.515531271798569
Hf 4.227723202184785 9.755550673545246 9.135822520173688
Hf 4.700995579885827 5.177001414469703 8.183653144825467
Hf 6.79913343260817 5.786532511868199 10.313861239209334
Hf 11.037815044311488 8.841508774044032 9.887137212364625
Hf 8.746597628910203 10.38386352149027 10.847746235805253
Hf 4.111948328393563 7.089300491141687 10.26901930479315
Hf 6.292913590103354 8.86735094578658 11.05931640721499
Hf 8.869219090788619 7.5825433109458125 11.338060974652336
