27
Energy = -227.94511901 eV
Hf 10.8127683958205 5.2617914821216285 6.594950723022089
Hf 10.799161660310101 8.056330444508308 5.928529712407523
Hf 9.178649643076467 9.149855451885202 3.444128649671092
Hf 7.91399746343169 9.239687226348554 5.934253127684302
Hf 11.466440014437499 7.21174028137168 8.634190978397243
Hf 6.674130748385892 10.594444073693682 3.8653483575736134
Hf 10.101026515978143 9.585958829702632 8.131672502740065
Hf 9.85589071822861 5.080307893692357 9.850605608202104
Hf 8.899971636659963 6.4032961427484905 4.6339770487598955
Hf 7.9488325233634844 4.173810843940632 6.721920989416696
Hf 10.12410745633905 2.908127283798859 8.04720335309868
Hf 6.763139732705376 7.849155402045241 3.421426471259941
Hf 9.201055929981894 8.029319346406222 10.419614117539439
Hf 7.738927894437155 3.1560062172416092 9.368421913841276
Hf 8.701846547839269 6.889771616354543 7.765096803579925
Hf 5.9898537181407 5.9386707418786635 5.4050741019089426
Hf 7.546082310470905 10.25927753403327 9.121730905756761
Hf 5.8987949508964075 7.997595923534867 7.89702793933555
Hf 4.671721998358845 8.715664928556398 5.040616738019886
Hf 5.5530388766338765 10.82544172223608 6.911339263742026
Hf 7.179762645534824 5.759573939849562 10.368690736097031
Hf 5.469919447864514 4.935770812023979 8.119027155325673
Hf 3.5755108962130673 6.544668256043196 6.776526922092485
Hf 3.861906791415279 7.168795626330797 9.638609737331995
Hf 3.227248298816174 9.21154208584226 7.500938403054348
Hf 6.327839159115908 8.332977845250774 10.919882202005477
Hf 4.708709790984448 10.04951520704423 9.629930458271302
