23
Energy = -190.00822489 eV
Hf 9.83681868632055 5.15638067925139 7.43220325901438
Hf 9.677425804365466 6.77665726295675 9.781017385115312
Hf 7.492263535157766 4.941639814187731 9.636387519333784
Hf 10.556982017259182 8.125959924522771 7.31063911147478
Hf 7.887930664936477 2.8567438431272403 7.493991633487715
Hf 9.36254649832402 6.843433900703027 4.984940449814083
Hf 8.036679408183833 4.459692376310579 5.319911156686943
Hf 10.210154738763643 9.373089496354774 4.410011514044117
Hf 7.740279487916933 7.236803177601417 7.76413444903348
Hf 7.041464414313174 7.8047563239825015 10.613660749288334
Hf 8.887906230493922 9.48757563438294 9.205068701325883
Hf 5.564567518040814 4.2334857107884 7.644423179848291
Hf 4.0570248738198185 8.810825923247926 10.188322917533156
Hf 8.37821717671753 9.96566678798914 6.385940998654642
Hf 7.071854957360228 6.036981391614078 3.259061199475658
Hf 5.282960721410333 4.134292042472481 4.847390377739362
Hf 7.446681947098846 8.849710809594702 3.8750977898123726
Hf 4.924146324051321 6.436877455276794 9.156710056069231
Hf 5.760038460034731 6.917459821367419 5.6253280006256245
Hf 6.070095870903356 9.754551904573523 8.55371077664366
Hf 3.4185831395197783 5.702760257144367 6.693130044670386
Hf 5.595213974184188 9.853256830928983 5.734614661531971
Hf 3.737527187014144 8.510366554177942 7.3592778883653835
