22
Energy = -185.97822476 eV
Hf 10.656361209306553 8.438678620082912 6.603075535701937
Hf 9.08458364134131 10.000304239332063 4.779473099510734
Hf 9.752137529347067 11.198729190825333 7.267157438872869
Hf 10.007731666845805 9.665760548366801 9.613518047868617
Hf 11.506277939738672 7.149718036040935 8.959178339082657
Hf 7.3051490784493085 11.794358351292258 6.089556747796105
Hf 10.012066631427025 7.4032889505790385 11.367929278134618
Hf 7.344070548209517 11.190308425771814 9.107874018641485
Hf 6.259268876327821 9.442938609999429 4.693177544887687
Hf 7.636789123309533 9.129157146066127 7.188950951146538
Hf 5.07440663849051 10.506677925306684 7.13954308436299
Hf 8.47919160785353 7.271348130756074 4.976695597507297
Hf 8.56362593686177 7.009558570957354 8.856472485846748
Hf 10.211444674097933 4.90830143075602 9.978304396197256
Hf 5.330161851391443 8.939621163790394 9.350729288499764
Hf 7.711771338124845 5.680864044938395 11.27045651616268
Hf 5.02303361981294 7.691465649046852 6.7550285324781685
Hf 7.568953395146246 8.780978103910256 11.045119729360593
Hf 6.937323057279373 5.533982442359472 6.55449010259461
Hf 9.959963542231172 5.434759282007452 6.963396632694464
Hf 5.704674114614174 6.091567203529961 9.122335056222877
Hf 7.803965670216796 4.19708729167574 8.764535508078842
