29
Energy = -244.0695489 eV
Hf 7.376664380976899 3.707943036947347 9.110195971825913
Hf 9.955603990956114 3.749034411053693 10.449754242530494
Hf 5.117070214508123 4.096548793890198 7.074992512511603
Hf 8.501207916832902 6.1279587364819985 10.066444198733995
Hf 5.888226489090087 6.439337341370395 8.934422744048542
Hf 2.9624605238343076 4.642577093965117 5.2697064892469765
Hf 3.586516369314904 6.891328077425183 6.936366260417205
Hf 7.575721610830868 2.666704200586657 6.241565141838894
Hf 6.995886076741995 8.891533906460902 9.926442441137777
Hf 4.395050962034548 9.171804146683103 8.835492165465169
Hf 9.839170533605417 2.729534534639936 7.985136403873929
Hf 5.243099985916975 3.119901046606369 4.406092300366435
Hf 5.765222031727307 11.424927293231335 10.051417289676158
Hf 7.93953328984021 5.576059847232202 6.824188335963978
Hf 5.443646435902098 5.97718289340641 4.569967557363799
Hf 2.92131520257132 7.303796949777088 4.209169239884048
Hf 10.616709343519705 5.492211792610253 8.142896623908563
Hf 10.147153633760292 4.137828637697174 5.547802065134505
Hf 9.192074436310964 8.203144587472105 8.122925934804154
Hf 3.736335534882847 9.663513334003458 5.89434652451831
Hf 6.363543473274962 8.461027091452978 6.678293324095524
Hf 7.807448124656706 4.433066766652214 3.977594320794362
Hf 7.68190115097589 10.862350212196501 7.869810477523577
Hf 5.40894735447154 8.733913337912378 3.760421960533553
Hf 10.354580571740838 7.019618671796821 5.72469603252549
Hf 7.948432979926076 7.351006101422883 4.119692959757831
Hf 8.93941784868483 9.646661222434034 5.60294398797226
Hf 4.9457499792135735 11.674848824312699 7.520064328529277
Hf 6.404798277775235 10.972488943210461 5.187315448975586
