22
Energy = -183.75677732 eV
Hf 3.0207450514379577 8.965401228609853 7.1973952330155555
Hf 4.717729372234672 9.704382413394642 9.556412059632471
Hf 5.479109757600685 10.59656869968636 6.949896610951915
Hf 3.4239824149878233 7.0645587397277065 9.34630377674481
Hf 3.644631645586802 6.098099990508681 6.465684621424432
Hf 4.690858467001803 8.58320621891721 4.96953639720561
Hf 5.554654232932552 7.839763918458807 7.642063539969044
Hf 7.619710619689341 9.41111861080662 8.710437806486173
Hf 5.459739268599832 4.981595687560668 8.919364085733378
Hf 7.527709908960983 9.263922235796791 5.596832481974176
Hf 6.063136481488718 7.411533870265462 10.461312674148532
Hf 5.786996919119709 6.013666431067907 4.298873727133516
Hf 8.344273493625572 6.31878149615553 9.225950240988341
Hf 7.392732568627125 6.134439240997792 6.630224914186355
Hf 5.5146895017521995 3.8812957596246336 6.2310296951116815
Hf 9.703425941502976 8.0235180616936 7.051315522090604
Hf 9.000848060597818 6.828581411695647 4.422868807702926
Hf 7.886197981448461 3.631391059608328 7.801165711615478
Hf 8.049423825836175 4.027431833518563 4.866972427982197
Hf 10.191577582012082 5.275098322771382 6.619724369956145
Hf 11.771703607610583 7.049250657438248 5.0772045349237365
Hf 10.885526290694454 4.850068083552361 3.845498852690666
