26
Energy = -217.81428765 eV
Hf 8.027483050751686 8.524865567824884 7.008097946616835
Hf 6.173778440867229 6.334988027167885 10.72194075344321
Hf 6.145480253337538 4.345889618781183 8.38596994812746
Hf 12.611549666455781 6.898853044080688 6.898092484439274
Hf 8.525530490808267 5.7849595305167405 9.116549397793394
Hf 4.124871085218656 9.938426264249676 7.348707881604812
Hf 6.732654653012647 10.832126095892399 8.2034055612719
Hf 7.720484181368712 8.369922782982758 4.190247511549744
Hf 4.284995406242942 5.272721975807132 6.272440453521467
Hf 7.8217726470812545 8.682516092180704 10.021406069631954
Hf 3.742735123064577 5.843781795800894 9.534670557438456
Hf 8.79113944946459 3.636080485256498 7.217432422885488
Hf 9.674936607975214 10.41000437876291 8.237404712312937
Hf 8.581276566768485 10.950762962930975 5.663395169297228
Hf 11.300555761526457 4.837801700119468 8.307065033472757
Hf 5.987094417534412 10.389909100485783 5.385663821964715
Hf 10.48609132809305 7.6406635773986755 8.566383828209908
Hf 2.8644840884066363 7.600686591675654 7.59883133256991
Hf 10.550287672128249 8.844043321751386 5.8088794130562595
Hf 10.185459630646655 5.947161087173252 6.025237666756975
Hf 6.208142798296772 3.287695623319746 5.487356764365139
Hf 5.685975352761704 7.357522067812905 8.046942103314125
Hf 4.461904326894125 8.688101261905102 10.022957551377232
Hf 7.215659723000258 5.788652126672678 5.931512612132186
Hf 5.669789523811077 5.434766586835845 3.6892294170442117
Hf 4.736522734658249 7.859337517676862 5.134985903083066
