24
Energy = -203.57391638 eV
Hf 6.947430740486808 8.907064963382831 9.13859052952521
Hf 8.468068001000828 6.737924328626387 10.226786192319464
Hf 5.756248536253042 6.257056558060192 9.668589089183024
Hf 7.808867798569119 10.11887022888924 6.785870118874266
Hf 4.17744206415207 8.51137176476169 8.876242979109243
Hf 9.683460184178168 8.317637033156965 8.042753802998591
Hf 8.361144217017856 3.863807017969446 9.322580761388378
Hf 4.879870838655165 10.50631455968177 6.727331770957753
Hf 5.701784886814384 7.776057585022116 6.358258035875825
Hf 10.564905770058424 5.716822116216985 8.784770594806956
Hf 3.6476266211559225 5.920664942490464 7.551178493611453
Hf 6.661762863468118 9.88756313173678 4.396539358241342
Hf 8.000806547103544 5.917305417880216 7.343153056465146
Hf 4.106567722529572 9.142830482458567 4.125053821889835
Hf 10.669030804975339 6.3885084630986615 6.025665190969369
Hf 5.651829400856274 3.929832806792453 8.145701540618889
Hf 8.671672368827856 7.994970709662967 4.9246782417228205
Hf 10.128279194776248 3.7659211413496854 6.852322346386011
Hf 2.8293136252506033 8.428849687412384 6.489858306445368
Hf 6.23353541992626 7.069583238581512 3.515916658064397
Hf 5.712038136869756 4.6965728226840255 5.294940572053188
Hf 7.578037001421194 3.0142215283113827 6.554987088709058
Hf 3.6282677848056086 6.429502890825345 4.635412290062611
Hf 8.56889756412566 5.006552120505846 4.56723766140274
