29
Energy = -244.00037294 eV
Hf 7.4676644290781224 3.0667980775161796 5.043054725218549
Hf 10.076804448360798 3.766318405529162 5.143079726798144
Hf 11.27340779209193 5.461621739522566 7.141633506436577
Hf 8.250069547446751 5.278443518724542 3.334123085283145
Hf 8.773189171086168 3.6948597944495645 7.688857285939972
Hf 5.418679566967624 4.397674511298736 3.781379926999646
Hf 10.86072681183527 6.238861427033642 4.1925221118358955
Hf 5.875022616759837 4.936612375877229 6.546248229781248
Hf 8.639665654311958 6.20950077147056 6.144716725999158
Hf 6.012099321105477 7.198114182816449 4.268028184844114
Hf 10.96683561577952 8.17245047723753 6.114834935881152
Hf 8.84406928819711 8.318824427330544 4.068164932153744
Hf 9.87923756783153 5.1426073673492265 9.872788131105054
Hf 7.162477409556849 5.784173732546711 9.159091920080353
Hf 9.77393712532829 7.585510433181432 8.636753732545332
Hf 3.9505810696650108 6.3132199298048555 8.337287667797257
Hf 8.291019561985983 7.285845787764616 11.270422303771177
Hf 3.574898133985636 6.1868263149079565 5.475687567793544
Hf 8.670609115051542 9.74753996802565 6.695384051992556
Hf 6.527125547601409 9.931253876334805 4.890965538830089
Hf 6.29258680497971 7.92186038214773 7.2159967221779056
Hf 3.958019560579975 9.109536034224089 5.820532420023622
Hf 5.455185629901223 7.936441789164108 10.64726494700252
Hf 7.671043989549893 9.569814828328052 9.605682241596961
Hf 1.7902968016030705 7.597147521778697 7.161440675929149
Hf 5.821630579938375 10.774046578490594 7.52108092345527
Hf 6.942763833561417 9.626006903230351 12.315291566085623
Hf 3.687510236706906 9.17453229830864 8.701465862070306
Hf 5.300874597436662 10.818142288536523 10.582643786416153
