23
Energy = -193.34318989 eV
Hf 9.262068965972507 8.521464338261342 9.532063225589837
Hf 6.919712542457546 6.820159242068037 10.132409751198379
Hf 9.358829966706878 5.783041476003775 8.7155481556268
Hf 6.791011377460253 9.766254284688147 9.265796667668722
Hf 8.666123721878517 10.126913983157719 6.9380891295855305
Hf 10.62233569349393 7.772717552945643 7.131223963608789
Hf 7.561004786139946 7.711350971096783 7.41484383852602
Hf 4.454916297404562 8.20026991413958 8.753674814392017
Hf 6.9473208527276356 4.166276320491612 8.483728025671473
Hf 9.704435369447848 8.418125748687059 4.674237804470014
Hf 5.716769191209449 9.96732092768783 6.721756135316803
Hf 4.50117052526182 5.362932015945587 9.602493836507998
Hf 8.409826631055488 5.673773508688341 5.703995702345518
Hf 8.688861109215349 6.3332466463686385 3.0636894574369067
Hf 5.443859411537026 5.989388713776121 6.896399711792344
Hf 6.947309855220125 8.587510461345131 4.515327395177401
Hf 10.996477496607978 6.014097987850541 4.778940792859958
Hf 4.029795519343366 7.893731303987469 5.454657527920142
Hf 2.700137602933682 6.110258419008754 7.53453483159265
Hf 6.198849902307334 3.647192463313282 5.4558603852074254
Hf 4.192139677342889 3.5391585001747834 7.528854718578396
Hf 5.79377844535268 6.094197201560404 3.8762389806083517
Hf 3.5757685378500432 4.88290942817829 5.07358142108086
