23
Energy = -189.81515923 eV
Hf 10.96766331725359 5.807910965367524 9.147746750045306
Hf 10.437505073653092 6.115893773029035 6.418370460230211
Hf 10.45759935585548 8.501748264495781 8.077240887670332
Hf 10.415768034381871 7.999541707452671 10.847606544685304
Hf 10.021753741361488 8.55347325657704 5.228722060447668
Hf 8.383377750407861 6.558681288818947 9.64676673700263
Hf 8.29946647078072 10.50915076835183 6.660855946089804
Hf 8.235981105061278 4.458973322533635 7.39664429996459
Hf 7.9509364425911535 9.295575060376118 9.405159315684323
Hf 7.67798495135614 9.049061235129306 4.10380434232941
Hf 7.777052612028836 7.716754508127686 6.92091090868467
Hf 6.947390842768923 3.4916925020824867 4.98981552984718
Hf 5.810764761951887 10.913355059672304 5.079018373243429
Hf 6.257467127717762 4.44607737326772 9.522132199555653
Hf 5.452631106437086 9.738081625727581 7.6840148170999765
Hf 8.060694637122833 6.114548685867277 4.64409551011459
Hf 5.76073378100323 2.813459519758592 7.351042898389123
Hf 5.471815539601301 7.169989605242082 9.171544380498448
Hf 5.152572407326509 8.094921872537293 5.085542417114972
Hf 3.7375360597849174 4.872907112089743 8.582565736212295
Hf 3.355310766005971 10.060442788322849 5.86617878269377
Hf 5.531254786884206 5.495227970420963 6.553948428189752
Hf 3.345397079895702 7.578212353460366 7.271388099749627
