28
Energy = -238.58372132 eV
Hf 7.351120349269983 3.6942036268974463 4.133043003280501
Hf 5.384622330343397 2.980806691917127 6.1351562543455955
Hf 4.950330311256899 5.34019768370604 4.437886039861143
Hf 8.195378769516541 2.640445080020174 6.62326905692559
Hf 7.405206293951008 6.829816966389196 3.929086787648613
Hf 4.052106696390267 5.7676397768965115 7.112637094520642
Hf 9.750198002345398 4.830115175642046 5.482820437562388
Hf 7.0258381921917765 5.284977946399992 6.539212067039585
Hf 4.852701527737357 7.970985108546467 3.030287134449475
Hf 2.7960008526204776 7.31626489064099 4.978819500896994
Hf 5.42978473716352 6.151715507632567 9.637015405712054
Hf 9.509270168152444 4.311433277335369 8.517737056587048
Hf 5.569704617449514 8.039466125386797 5.951654052166954
Hf 6.587300476002769 3.4773106064806245 8.827215932398726
Hf 7.901851988632529 5.256238794447506 10.640736845970652
Hf 9.625795275964293 7.819206285004077 5.459209308333639
Hf 3.660189347768537 9.96914557420399 4.620128959610131
Hf 6.572230026182064 9.989516000190967 4.072837031665738
Hf 3.140010630249965 8.869336057946203 7.309345802480403
Hf 11.049283713201783 6.454074506545418 7.517621437952576
Hf 8.15482809917212 7.285796111369767 8.262731366723918
Hf 5.6621266872834 8.932524963587802 8.854775231112963
Hf 7.979452370423921 9.873227914861223 6.636138094083429
Hf 7.253537907506247 7.864955046396161 11.047651497090628
Hf 10.091258502842004 7.258068328448442 10.243521162879821
Hf 5.266025853271825 10.84883719467413 6.662937092061021
Hf 10.465039332554822 9.092422752377576 7.900590525534672
Hf 8.427231231488378 9.86233110527764 9.58684916842285
