27
Energy = -228.34798876 eV
Hf 7.742332561096562 7.457346725107897 3.4792342326485977
Hf 8.664482460904019 4.79211231215723 4.054573699982171
Hf 6.06383969210907 5.010389417277956 3.2397860809128756
Hf 9.8060141607518 6.807566418327717 5.6728087466852415
Hf 4.747040769431207 7.463742760076274 3.9830864734590925
Hf 6.306291370422113 9.69936190080061 4.570097718400942
Hf 6.502188838900371 3.2836693354847495 5.6165126475197455
Hf 6.781882159116474 6.146112066973584 5.858746299502031
Hf 9.228655269958118 3.8344020106932386 6.72724439122507
Hf 8.745704895648085 9.640616489300351 5.8593715855659525
Hf 4.11576225970869 4.887800211636549 5.232624067889502
Hf 3.8470876267864225 7.26473995736888 6.9018049239893955
Hf 10.927525046894463 5.627820485957786 8.096650628845758
Hf 3.8282911295267796 9.878166387611387 5.6872812321959305
Hf 4.96821116536195 4.751609342425427 7.892517719545285
Hf 7.106887683640898 3.048371858693713 8.498554489125475
Hf 9.824577555134352 8.265670831962188 8.22679864581814
Hf 6.047802217956245 11.336102191498842 6.973720214448259
Hf 8.435900733222754 10.692671266323249 8.601506766861554
Hf 9.601116554860454 3.7216066686996654 9.599075141342652
Hf 6.541837091841418 8.653237475371403 7.559375521758388
Hf 5.106780748498128 7.457533770870983 9.67058866124089
Hf 3.8042148140371435 9.73479358770295 8.435864731045017
Hf 7.861747620708879 5.875758343576714 8.841925925509196
Hf 10.085098951045653 6.421172675222209 10.547781678151264
Hf 7.866167592129105 8.469983122543642 10.389296798486399
Hf 5.940260084986119 10.442589736393717 9.816829052849176
