20
Energy = -165.71080695 eV
Hf 5.130915851242971 7.220695276635245 8.072176392381278
Hf 11.593885802759168 6.863187163055589 10.259172750508206
Hf 5.0320400332096265 9.859620232103074 7.441929910863575
Hf 7.886891675972705 8.866232880434062 8.125666391672588
Hf 10.306430120324508 10.165966714701847 6.585003998095472
Hf 8.969435969885735 8.075924076665002 5.299413641366282
Hf 9.616491763382275 5.322909581110472 11.59234475171498
Hf 8.289651981903098 10.602217906777609 10.765291279209293
Hf 10.798016680891926 9.739959914916989 9.462221645547443
Hf 7.464287667868262 10.860943182798874 6.053775260573082
Hf 6.481550108348194 11.525615840837514 8.923081313174784
Hf 9.091360603286304 11.827973694797807 8.329749337357487
Hf 6.972153339869878 6.251559115848683 9.851322500160238
Hf 7.4628442527375505 5.963239034013197 6.908981456355631
Hf 10.14789388810151 5.426143399341153 6.014112875286737
Hf 5.804628072424084 9.017777593963785 10.270682649970617
Hf 9.089211083250381 7.909224349198257 10.859320351826888
Hf 9.47541359663218 5.44535814506989 8.877010645299231
Hf 6.239769104171096 8.176602328674932 5.616371996811821
Hf 10.919550191276077 7.651271356594214 7.464792639362544
