26
Energy = -220.76665036 eV
Hf 8.884519553109158 7.173925931119964 4.056558358352788
Hf 11.724797676439392 5.926997630560835 7.964134641842392
Hf 11.145633680398014 7.584052580574275 5.843913882728408
Hf 11.153765815609983 8.863462045755798 8.563274641181424
Hf 9.263156912391329 9.678314509995852 5.9926843727514285
Hf 8.786674679940932 10.674512142444614 8.597145809522564
Hf 7.155681277684478 9.661506365272672 4.045026196286294
Hf 10.548335945137174 6.497014509898372 10.461082393802918
Hf 6.3401101837600935 10.565474174654438 6.756130789315465
Hf 9.02798733450353 8.924893335961931 10.785393845369061
Hf 6.918977975698219 7.635566567579555 6.084540450095367
Hf 9.142141778336589 7.045897651150889 7.970786187364303
Hf 6.706326565271473 10.661403996903253 10.561696056910355
Hf 6.685329492430742 8.476983445810797 8.866321829169404
Hf 5.952863484605603 7.062515368628882 3.5058931669339186
Hf 9.647975861463767 4.952205536976416 6.01065695583426
Hf 4.1857984237674435 8.977718020047815 10.298005330451302
Hf 6.3071405159504685 8.007225258808885 11.637620370254922
Hf 9.57590890759656 4.307792385811414 8.893407779572446
Hf 4.574474403006653 8.968138657152089 4.982135193673423
Hf 7.018118247246846 4.9370188671319015 4.894570114926181
Hf 4.859579830332985 6.332126411563619 9.30588545348436
Hf 3.9026294494890017 8.493351396569993 7.608077408799343
Hf 4.553625684761386 6.088397587146934 6.046678128137565
Hf 7.6854650547480245 5.772434332706473 10.441884699279528
Hf 6.956537412421958 4.7773069825225685 7.727282793125616
