24
Energy = -201.37138227 eV
Hf 7.7449023542786355 11.96636113683359 6.53852603142649
Hf 9.047140001349804 10.090870533374224 4.651655131050455
Hf 9.248476045800277 12.092812367188102 9.133776004028183
Hf 10.668317265273872 11.74961057597145 6.415428066875054
Hf 6.487143024177863 10.612645909757159 8.958836074037984
Hf 6.517630392744657 9.160399667445537 6.184081670435137
Hf 4.898124371108209 8.0704866242289 8.558036373747479
Hf 6.13455078080812 6.132812959522657 6.7039269196335685
Hf 6.180241694541247 5.644987474791708 9.584257679914028
Hf 6.514317093246276 8.358321349344608 11.070221552363714
Hf 7.660656900214308 7.575756643153833 8.41680271340386
Hf 8.718583051460842 7.204830946200978 5.557405839048364
Hf 9.153357742666268 9.32196069419778 10.190413957434338
Hf 7.642876387131474 11.156109508342206 11.618554726014862
Hf 9.185917743595553 9.700333932605572 7.3383461630617255
Hf 11.633781239217118 10.112927953040911 8.869160230871746
Hf 11.487099204903473 8.78749003800802 5.9462583060394785
Hf 10.637488238506235 10.983693194760985 11.668127429422933
Hf 10.909079824797534 7.173127184904631 8.536630250121494
Hf 11.021915713199467 5.8648623787811855 6.104846987762975
Hf 11.5117321015657 8.205964651979464 11.352245487320303
Hf 9.053101151888747 8.808319933730461 12.841399110896221
Hf 8.964899875257066 6.52964303964432 10.775105280853223
Hf 8.733013036758122 5.0417315641926 7.841240609000723
