26
Energy = -215.23890906 eV
Hf 9.214974719447142 9.219638746083099 8.316569435084183
Hf 11.25499414600048 7.180623989282464 8.853753534850606
Hf 10.40023104971759 8.124868918023452 6.002215869636668
Hf 6.634133194160121 10.636936959864814 7.785287470154094
Hf 6.900867678201388 8.991010330872923 9.985452426907704
Hf 10.13988205237603 9.084550059356882 3.3583296251659602
Hf 8.661974128466834 6.475928177583932 9.876857304345307
Hf 9.552266496274294 5.607572235329002 7.154191049691232
Hf 10.632873313113619 4.573314543700122 9.512226974995508
Hf 8.47711900095654 10.282598159818146 5.54457503109793
Hf 4.524617949381383 7.765784836376856 10.88223912812037
Hf 4.647525454874297 10.512427755501038 10.140043050094228
Hf 7.1678289700425495 7.783470545977214 6.6097870697015635
Hf 7.977558114329319 3.8724320463967428 8.855017640853537
Hf 4.447778385385425 8.668896140852532 8.081931839850304
Hf 7.462439091135955 8.892688763022129 3.309869060525245
Hf 5.508274275247081 9.656795119906649 5.270438029296592
Hf 5.904457054724581 6.038302505624518 8.937819650195168
Hf 6.832384483473731 4.6565769592307475 6.182038332525571
Hf 8.754013498363818 6.488706129426582 4.1695193135627635
Hf 3.0874536880377863 6.154571379760371 8.907427382174705
Hf 4.3577666231520364 6.445894357026789 6.317310734944957
Hf 5.929964849257617 6.5330517397966394 4.001338114239205
Hf 4.585515364506256 4.011671973030925 4.628676061456553
Hf 4.507454421033989 3.8732593804673536 7.650052573328155
Hf 7.095055990937667 4.034210368070343 3.421325396613963
