21
Energy = -174.12748013 eV
Hf 10.19804512028089 8.749136157887305 5.9005482886704215
Hf 9.362452808572014 5.970667083757346 5.532658173366652
Hf 7.76270587456986 8.073996428102271 4.2787286853338875
Hf 10.28420453388031 6.985555777736623 8.087587804396486
Hf 8.070942107243932 10.636435808965011 5.873359863716746
Hf 9.54315808049518 9.904693664556858 8.542446002686855
Hf 7.114089252549354 5.073733559795526 4.0811682501189415
Hf 9.740311567978072 7.508499255528458 10.628314587685574
Hf 7.7878259807114345 3.4438716172647204 6.216817753893065
Hf 7.728677189756389 8.216522305939083 7.240370612866098
Hf 7.357774564750657 8.588563195659408 10.193689589107688
Hf 6.0691326530752026 3.3268175291468913 8.315981930313411
Hf 5.327437745750785 9.320450819055926 5.976645672357233
Hf 6.390007168696275 5.898490445294741 6.804623143627714
Hf 4.737910270831267 4.15694770241877 5.782136653925576
Hf 6.65785615419356 10.613489553571188 8.339848445598308
Hf 7.689731283524619 5.7075210738931625 9.243915179292387
Hf 4.997061264000199 6.810347513178937 4.303627989352185
Hf 4.3832536219830684 5.3298534630282415 8.851604247318035
Hf 4.942641834595653 8.275446283171252 8.72339584859787
Hf 3.609248749076119 6.902820740170653 6.6704934310103186
