20
Energy = -161.83584143 eV
Hf 9.283327374100466 8.026195322354706 4.63362172420511
Hf 6.164538095121292 8.394423688843908 5.510266666304358
Hf 11.032147792209527 6.307910872410482 6.324560939586712
Hf 5.924437193216418 11.216720960117714 6.177856367434266
Hf 8.304638692542266 9.644065719433005 6.970940282834748
Hf 8.191960855914042 6.676225696388482 6.894052086016744
Hf 3.7195642958614146 9.31291644245802 6.348150945380096
Hf 5.321857003427704 6.806505971688309 7.945033079288807
Hf 11.08872381085273 9.063149203550646 6.469591795359085
Hf 9.645775839068147 4.6087077397695495 8.19283759280328
Hf 5.450235144946558 9.639134466107171 8.419178981476476
Hf 12.625674669370817 7.893506184775469 8.284824935141492
Hf 10.391886617667286 10.033985411682226 9.043265366452504
Hf 6.75757477850555 4.246543561188673 7.584549715578912
Hf 10.119166298360838 7.237533963288446 9.1608559098746
Hf 7.816546092463598 8.709342766792215 9.823114547919504
Hf 5.25757037262579 7.338184002679397 10.69133869527968
Hf 7.477835276754059 11.476663883103292 8.851680836517282
Hf 4.915036919312379 4.690356902652407 9.728675902799294
Hf 7.504565329313717 5.670989692350317 9.938666081381319
