29
Energy = -246.29367368 eV
Hf 7.3440466556334805 2.904629940672021 7.099365622562736
Hf 9.258882385310136 4.203606112160368 5.29036240571651
Hf 7.472989239477342 4.061087089107672 9.696795978550002
Hf 9.369856323061445 5.249703658366776 7.7874305156528765
Hf 10.45487845853228 6.854459829100703 5.086325567774837
Hf 8.644671905272943 5.492733991844383 3.0102852585251934
Hf 8.449856333927912 6.609933700774008 10.211270402900789
Hf 10.160837753691117 8.155904135873332 7.927665725700048
Hf 4.5218352302566345 3.3075398240187663 6.289831405226679
Hf 6.518705113842254 4.062126450935571 4.3423900449639365
Hf 6.002695724167524 6.838679135681789 3.051666931328005
Hf 6.2002951922344245 5.498897657839409 7.3492288634639085
Hf 7.677593113650829 7.0220709933156895 5.339715640332275
Hf 4.865834425303175 3.5205277239206816 8.976807025646854
Hf 8.865691838811507 8.2045930237925 2.9911662172017013
Hf 7.312508429711287 8.26369856412759 8.154506875534082
Hf 3.442630832598072 5.784652880099979 7.726022220254613
Hf 9.242831778014478 9.256314983540902 10.404023423346683
Hf 6.608269053740813 9.484309180543265 3.9131542487049087
Hf 4.677827004571629 8.096809978868833 5.652717045660782
Hf 4.097624433054441 5.562953890771149 4.892029705551845
Hf 9.121211257911158 9.623111635122731 5.4712559936284
Hf 5.350689535247938 6.098916457660824 10.13284707955813
Hf 6.289741287848272 10.392760619968469 6.517740555012905
Hf 6.422143143909742 8.77661904038128 10.998752057494915
Hf 4.508807120606735 8.5862283030338 8.62853403387321
Hf 8.780752927312566 10.896302599895455 8.182271723074967
Hf 6.053849256438107 10.920116574176653 9.234825340361724
Hf 7.904787286522987 11.454506008680752 11.07284037717187
