22
Energy = -182.40643347 eV
Hf 10.260169856025055 7.947335562862545 8.229306327460176
Hf 8.319573900624782 5.791817187677812 7.11404784380292
Hf 11.20128127217496 5.896433833524892 6.429524299009213
Hf 7.488538470326317 4.081439742541843 9.259977532769215
Hf 5.4382461503175 10.612742841835852 7.939237887863468
Hf 8.430091184927722 4.552474037700323 11.698910820087047
Hf 5.429708010362602 5.681914849332534 8.047113316406648
Hf 6.003128657301501 8.314562564011508 9.517409834770078
Hf 8.235869651546608 6.816509983499389 10.083232610759664
Hf 3.5335108369577783 7.162036827908007 9.386344478046126
Hf 6.602652217842906 7.243959860966946 4.761664250263946
Hf 11.199270372765918 8.611209920446157 5.598568719499985
Hf 7.625106619404329 8.739407590145554 6.996861716008749
Hf 9.329712085957794 6.880522298578838 4.66322231933318
Hf 5.7041666616768145 5.653610503042389 10.895491810953452
Hf 7.6335278558978645 11.689692340355833 6.524370036315323
Hf 10.178599104432644 5.067554600193054 9.331074173676784
Hf 8.076070105729196 10.514983496886314 9.217772170356612
Hf 8.660993203227003 9.781828060703951 4.508494289604915
Hf 4.598205790026672 8.095324288995453 6.799733897584005
Hf 10.0232290727941 10.640565744089896 7.128179949490574
Hf 5.823946618316958 9.989063281405697 5.079725262554426
