28
Energy = -237.20259605 eV
Hf 13.235456704054842 7.5136205013362165 6.896658487202484
Hf 12.04081068584546 10.009688942231843 5.930898732665377
Hf 9.213472362649043 12.175107418609183 11.331555407924158
Hf 6.614921123270843 9.779292915910112 7.834659291351345
Hf 4.821269184453575 9.027119288718348 9.89839231531999
Hf 7.916627212089464 10.380800160300646 13.129533800750007
Hf 12.88021873887014 8.93399071002848 11.304768944644247
Hf 13.783929557410351 9.776172539503051 8.670500755255414
Hf 5.8503593806631145 6.621560201097649 11.343680558223998
Hf 13.354720047197262 6.931602080754103 9.550728127793986
Hf 7.742183683201794 8.72946029512218 10.3440438465101
Hf 11.092893255177401 5.815722480733406 8.169263892941185
Hf 6.092067833249786 6.888492784001507 8.57277068597308
Hf 9.096137104434902 9.705211974126694 6.025107463470339
Hf 8.3310695071816 5.855129734267987 10.168703691008567
Hf 12.214622393406492 12.071655821762889 7.746711196169489
Hf 8.15674045203727 7.4063602727580875 12.871208556291807
Hf 6.505689908023062 11.304855819262494 10.576654096803495
Hf 11.111762037624434 8.70873833884154 8.687549310921689
Hf 10.219662429200271 13.624304260718533 8.825861649068775
Hf 9.995081796906478 12.395346110197195 6.144398149351045
Hf 11.845700743296664 11.559780187309503 10.381860519978302
Hf 10.249300871250792 9.564538899844948 11.868440229385001
Hf 8.568911318864389 7.284080981635049 7.571237995577033
Hf 5.7179820130344625 9.133477787011278 12.521321438789212
Hf 10.750683034634479 7.506341534637009 5.817434109784287
Hf 9.156707936594039 11.105347657298385 8.61955162127719
Hf 10.900378050006235 6.815620261793112 11.055513091144388
