29
Energy = -247.08381683 eV
Hf 8.476150583327149 2.4672863476241016 7.288119742628338
Hf 6.470789691276571 3.7531847305307164 8.847208391379237
Hf 9.256438102602877 5.068565782642616 8.372365470406558
Hf 5.6903712319332715 2.0611889421533744 6.6132007205480665
Hf 7.804497902256276 7.0494136763574105 6.760608531246975
Hf 7.4934932126534255 6.824660187686077 10.019755972721732
Hf 9.768194613634664 8.133739616663645 8.774120174145374
Hf 5.218952014593267 6.349756835789657 8.764447512761963
Hf 7.604297084382174 2.1661418622530144 4.594575833129297
Hf 4.136593231296537 4.323994208095061 7.108808669284027
Hf 9.726467687480799 4.223785276127647 5.263435756417512
Hf 6.87283780357646 4.567965052522067 5.972472932469186
Hf 7.933869357247358 9.509921930592126 10.650196708912175
Hf 10.620780264883411 6.750208514175813 6.386511123027306
Hf 8.918870673029703 10.881135805153573 8.369627938953931
Hf 5.012295609928056 9.061085501094214 10.40928766898769
Hf 5.011765091963373 3.845398170483663 4.145577892978896
Hf 7.793274391627616 4.400841409534109 3.0633863510716184
Hf 9.312727585871544 9.379672099931732 5.98934677269696
Hf 8.980467345100074 6.93522327190273 4.005683674809551
Hf 6.477272059027105 11.561629971976927 9.517638879089763
Hf 6.4268592293156495 9.12738895411368 7.978890062314347
Hf 4.482890808509842 6.778031056241021 5.650519315737627
Hf 3.3881009966317652 8.322248386857874 7.978263049683504
Hf 6.6789330842431385 11.487753065038724 6.486651343297496
Hf 6.89248678877665 9.056120392993634 4.621642906777682
Hf 4.158580415139568 10.994696584382886 8.207639882961393
Hf 6.169689778567395 6.528725997524795 3.517190493584087
Hf 4.411388750820392 9.723027522456945 5.735922331212181
