23
Energy = -193.40294419 eV
Hf 5.42660544195464 7.663809176879417 6.244471277923046
Hf 9.268457822755428 6.244471277923046 3.8343841038365847
Hf 7.679327547538592 3.7561814920558456 4.667792074448507
Hf 7.679327547538592 3.7561814920558456 7.82115048139758
Hf 9.268457822755428 6.244471277923046 8.654558452009503
Hf 10.156226530433424 7.698681753414732 6.244471277923046
Hf 10.156226530433424 4.790260802431359 6.244471277923046
Hf 3.0281506267537406 8.90316778594307 6.244471277923046
Hf 4.731821172294766 8.86995243087019 3.834584479407129
Hf 3.3793865910355088 6.244471277923046 4.658724939294622
Hf 3.3793865910355088 6.244471277923046 7.830217616551472
Hf 4.731821172294766 8.86995243087019 8.654358076438964
Hf 5.547503363891097 10.362326940000003 6.244471277923046
Hf 7.679327547538592 8.73276106379025 4.667792074448507
Hf 6.2436197036916035 6.244471277923046 3.423154622011689
Hf 5.42660544195464 4.825133378966671 6.244471277923046
Hf 6.2436197036916035 6.244471277923046 9.065787933834402
Hf 7.679327547538592 8.73276106379025 7.82115048139758
Hf 7.8783443518670415 6.244471277923046 6.244471277923046
Hf 5.547503363891097 2.1266156158460943 6.244471277923046
Hf 4.731821172294766 3.618990124975903 3.834584479407129
Hf 4.731821172294766 3.618990124975903 8.654358076438964
Hf 3.0281506267537406 3.585774769903021 6.244471277923046
