28
Energy = -237.66112989 eV
Hf 6.901006906649102 11.857948550527832 6.445015929769568
Hf 9.443177159012128 10.31793736854808 6.768054085910258
Hf 8.571739486384699 10.686364625290068 4.189472568193429
Hf 7.661369650627866 10.000294737784504 8.76960945004471
Hf 5.927441774582419 10.698432038117238 3.6513066726001333
Hf 5.030982506483945 10.407504153941407 8.29319699465714
Hf 4.15343013378465 10.79950548072311 5.712626865973947
Hf 6.6689051726218 9.086620651067024 6.011891813281037
Hf 9.764867080412204 8.226373408796308 4.760876557715138
Hf 8.962064637159402 7.541900753440909 7.56988145789946
Hf 7.279009066820552 8.24237919226123 3.152007971600721
Hf 5.918059740673292 7.567455807309523 8.800481427116388
Hf 4.394905872373849 8.387602606767517 4.135859670774805
Hf 3.650458413778612 8.2877321603053 6.998371460872496
Hf 7.987650597457087 6.189475265385099 5.172640409545822
Hf 5.105895779280272 6.17914131067828 5.90867468014833
Hf 8.421516045121466 6.583660588972834 10.111277074324214
Hf 4.1596523148204305 5.143767227736602 8.595650517702607
Hf 10.025831438224518 4.868006018469513 8.313361557815105
Hf 6.438086500832815 3.9894879859782466 4.488313648429308
Hf 7.102886633784245 4.690449209873639 7.81147855519925
Hf 5.977804547724958 5.219368843411134 10.643542438621026
Hf 9.093280323220355 3.533226423409598 5.722579326839635
Hf 8.31774666276456 3.774585690600817 10.431310340046492
Hf 4.483025340582571 3.3900983835760043 6.5948543243461755
Hf 8.779840293567284 2.2967234860937897 8.217591763528672
Hf 6.787361779209325 1.9364903090758325 6.399334297342293
Hf 5.795526439682824 2.612656243461656 9.19239757926586
