24
Energy = -201.83931769 eV
Hf 6.8781761195024655 9.997399702843953 4.155321462387128
Hf 7.873315739607575 10.83443591010536 6.578734188160846
Hf 9.769778628666606 9.738849599269104 4.774511677012099
Hf 9.69435995792226 9.28162093034349 8.123504515989183
Hf 5.098809383381044 9.912264914267427 6.274399674095663
Hf 6.738305590868024 9.175424131206308 8.637879717723349
Hf 7.379364625646488 7.538392264017864 3.1122998611777204
Hf 4.536329087516433 8.260930846194174 3.761210513185261
Hf 8.410579048915913 7.960610350964081 6.076921748589069
Hf 10.235227605478938 6.362132804459132 7.856110975897539
Hf 8.534543425130124 7.2629219848352395 10.23911751690361
Hf 7.160358574714101 5.953376797259516 8.170651739380867
Hf 4.095380307533871 7.828927997759684 7.991935487754851
Hf 5.959791332259202 7.055454448741546 5.790844054763739
Hf 8.048407141347166 5.229279753463191 4.512480793494799
Hf 5.431249941449119 7.2503791605810495 10.28878115644086
Hf 8.775114209753948 3.896614218168158 6.846363010806151
Hf 9.163605131321257 4.4477282921246095 9.600527700345143
Hf 5.318420851246152 5.469829614524525 3.5833768301955815
Hf 3.4778668181362398 5.89566577031239 5.829735393427676
Hf 6.7586441880878905 3.0927475759850576 8.635740433641107
Hf 6.6418071383156025 4.895594432785236 10.806164275721686
Hf 4.461442097523736 4.9489751636632375 8.611484111393946
Hf 5.824017017771329 3.9189412416944522 6.004220837324041
