20
Energy = -162.65879035 eV
Hf 10.608147133347492 6.832584497776471 8.607506177807092
Hf 5.273289369646251 6.845161728052105 9.185462642505675
Hf 4.1677440750544745 10.277819088432208 5.975750433910383
Hf 4.960445480609465 4.886502306519506 7.164504545730956
Hf 7.166344077807516 5.50661068711172 5.228891965625096
Hf 8.665888321888962 10.824627815084023 6.438895199058354
Hf 10.414864455264306 9.65588511649997 8.161449451672528
Hf 7.899975039278112 8.455199945400215 9.05422972080683
Hf 11.136335574642626 5.949179118598557 11.203140560522654
Hf 7.582857808141475 5.499911478093764 8.021325671640339
Hf 6.632065882514833 9.844095505301024 4.978150912707723
Hf 8.27337085789587 11.389046082169187 9.103139265695926
Hf 9.844313931563537 5.054163489605286 6.401113223780549
Hf 5.605487367178468 7.524895018736918 6.470865283210039
Hf 10.08364888962208 8.638427173640386 10.857504507937644
Hf 5.968915933401181 9.971774289214842 7.978952605768313
Hf 6.22966356855969 12.232717907210583 6.535127935643156
Hf 8.774167733791302 7.810038773961164 6.183840435147989
Hf 9.891659823828638 4.201528883994797 9.3295814526381
Hf 8.45964908556009 6.238665504193503 10.759402417787268
