25
Energy = -211.66823783 eV
Hf 3.94075951412563 3.850427438952303 6.193289783072859
Hf 4.494993545930946 4.140731122231447 9.001201694874073
Hf 3.119396895233942 6.3469901347846625 7.717499234177678
Hf 6.514139560833432 3.045089187103359 7.120759090651163
Hf 6.517339209833813 4.512145015977755 4.532677069305338
Hf 3.936055534981504 6.279898579025375 4.791804193604478
Hf 4.777979454992501 9.028660775061281 4.5881548654188755
Hf 5.731522396019038 5.799140456706059 7.06309492597904
Hf 5.1958276444793015 6.970731891347673 9.877487453569689
Hf 5.985540562904884 6.890238735572945 2.9652740209028146
Hf 7.214103164946283 4.465344583930722 9.590332073651641
Hf 5.124095231887749 8.805381577363308 7.623660662346437
Hf 7.81040728396229 7.367391815230424 8.252676331422188
Hf 6.856413531752884 10.558602019582993 5.801026304154872
Hf 7.3028854781146055 9.312579999541084 3.237303414210988
Hf 9.874487067210094 5.5433244408600295 9.057665222772565
Hf 7.226018985198716 7.627829509635178 5.504995177419057
Hf 7.999228529849762 6.750547168998656 11.019447575984081
Hf 8.77676139333222 4.830084698223908 6.405743718559217
Hf 7.144455179332892 9.34311164634171 10.028704075939464
Hf 8.941412000633399 6.665021372032276 3.791949133488877
Hf 8.964745103041915 9.996198624261652 7.68042316039705
Hf 9.454032716838086 9.452454061397523 4.967987892002388
Hf 9.9954512944832 8.323493275762807 9.679616223196286
Hf 10.329399154042324 7.325451747343497 6.724506766832718
