20
Energy = -166.3050999 eV
Hf 7.396429783115064 7.509533451525378 3.3788808236701975
Hf 5.176678140899851 8.431191861159821 5.026535266382596
Hf 10.15140166553443 8.302419373581477 4.447643319533498
Hf 8.950747437026047 5.881901090316245 4.961888202169495
Hf 10.349572660724316 9.905056857565892 6.91118851037857
Hf 6.253591680647389 5.921933209783389 5.644355901366554
Hf 10.332867249016738 7.01902341429387 7.08661147092589
Hf 7.871145774700991 8.985599391381342 5.674393152167769
Hf 8.213276709844523 4.714327188139815 7.581880281382559
Hf 4.354558991620457 7.79266230060772 7.747648814811809
Hf 5.403753714239271 5.086909458255317 8.239154637116394
Hf 8.21314087112078 10.258666753854685 8.865580033851698
Hf 7.33672550645995 7.407775012631844 8.314166685505135
Hf 5.765707182657964 10.221047799234872 7.126724842102106
Hf 9.68291439314262 5.979480584941375 9.691814521931862
Hf 10.346089760943736 8.585753697709258 9.488620153667537
Hf 7.235560760065682 5.173825433704974 10.409541360645509
Hf 5.158767722793539 6.941748424355422 10.356491182580738
Hf 5.671851773677773 9.533920194478165 9.752834037817538
Hf 7.888133678344695 8.10013995905491 11.046962258567959
