23
Energy = -190.39916022 eV
Hf 8.364133323168234 2.4875503149326224 7.275914677318926
Hf 9.608357686045705 4.716631023828879 5.8495727234286194
Hf 10.794138059454394 7.275532996246383 4.717885799397775
Hf 8.476778242471713 4.898237914789662 8.587564932255615
Hf 9.326712046576185 7.567446219838408 7.073157427166837
Hf 9.10838636164872 7.1354889517283615 10.177179859419367
Hf 6.712364280958588 4.397526907402766 6.149741941346618
Hf 10.951485191163133 9.767857383998404 6.509930595039463
Hf 6.252986988735393 3.332164523219762 8.879389175304631
Hf 7.95100946606651 6.6562569249629835 4.52294927208022
Hf 9.870704068807711 9.66394384590766 9.210719913472962
Hf 6.482915329782951 7.347730003443416 7.666139056817459
Hf 8.147637815798573 10.390704714733728 7.137282948088342
Hf 4.816599442514868 6.580291149605648 5.2544423545881696
Hf 6.475286879315239 6.121415946408618 10.353316532506755
Hf 4.45461083749939 5.390364729282346 7.961406380748137
Hf 9.055139019098261 9.366797716449259 4.566547279634268
Hf 7.119244677623186 9.146226563171833 9.960770376158882
Hf 6.315890531733962 9.090546615825158 5.249488617449664
Hf 4.482342867934546 7.955646378763318 9.681372489687163
Hf 3.3001779567174228 7.906573860925923 7.211321002148915
Hf 5.115180572578265 10.033841465221276 7.769898490724359
Hf 3.5961632811686317 9.4421667867288 5.07803310685166
