26
Energy = -219.22205039 eV
Hf 6.3286977261716055 9.10100483514725 11.751324014206892
Hf 7.6840001321060605 6.474480862978158 11.433454134119598
Hf 8.97336182467651 9.213088375806993 10.96549562388673
Hf 4.795003490291081 6.93649501071363 10.844961023474958
Hf 4.430450573103377 9.443629611434114 9.674403639595699
Hf 9.9613630571877 7.276898409673427 9.223351272327392
Hf 11.802488161578532 5.376147652761677 8.812271036752636
Hf 9.019815118697919 4.554401280862295 9.397908417560293
Hf 5.841107376935397 4.84398578108257 9.449468527002033
Hf 9.754658455965725 10.0553395718275 8.286299491591356
Hf 6.943473909082003 8.019490865911148 9.14592348759637
Hf 6.993637729494604 10.888041386308048 9.433203048356843
Hf 4.32885700680858 6.990781004101387 7.95531876657085
Hf 5.407158739538147 9.82915537101139 7.022303733261206
Hf 8.21603199376394 8.253388132219587 6.342104173262344
Hf 7.321587694260154 5.712868960503197 7.328343795986619
Hf 10.039391507508663 5.257706772604466 6.740604598443426
Hf 5.537637378798019 7.370793906560064 5.148389734689264
Hf 11.276017391775945 7.958078714646199 6.780009840068855
Hf 7.864689665166414 11.30023632319238 6.65456700843415
Hf 9.73023313309789 9.89055675176507 4.7789179502603805
Hf 10.206816584921949 6.961673490012417 4.448255204559488
Hf 5.140828411193978 4.642702942023511 6.373733459694918
Hf 6.74929157901211 10.097642205095692 4.4873314782409075
Hf 7.602274528510595 5.4277707711688254 4.5246683982371145
Hf 7.88999028036515 7.969377814268425 3.3791937984620697
