24
Energy = -202.80710531 eV
Hf 5.192805795000756 6.615438900314973 8.938248690874845
Hf 4.27763170088348 4.231852423563548 7.65921406204705
Hf 4.7520466407212725 4.53021321270293 4.829403841481443
Hf 9.112324158314951 9.321122936079389 9.043476752751678
Hf 3.910960005390597 9.03286113877212 8.118478913323788
Hf 7.901977004883742 6.760192446066758 9.427299394365678
Hf 5.965467048658237 2.5463505003550866 6.292314768379531
Hf 7.9114815181811045 11.313054634084748 7.579561529312166
Hf 6.817763021058979 8.523432499843407 7.087775259335512
Hf 4.398170479559048 9.33086074269612 5.291300034528312
Hf 6.766005943069388 3.6112821925765126 9.009291445946573
Hf 7.566354330443288 4.122373623563032 4.263399875663739
Hf 5.955977068743518 7.091566365779809 4.447694470854585
Hf 9.955041753046466 4.841927551476103 5.735567070852705
Hf 7.111509599564557 10.251110703797142 4.8563037761771986
Hf 3.6918242651879782 6.7439452277957415 6.361187637713336
Hf 8.667989967583411 7.256464018667972 4.91195790777784
Hf 5.32109958772153 11.167580991769587 7.116678441987191
Hf 8.558375465537921 2.699358617429985 6.7416430639161185
Hf 10.165080968413656 7.11773719886239 7.500885373401553
Hf 7.058053241912702 5.33934713439651 6.778084155430124
Hf 6.299641070551822 9.740650151821038 9.600155497847197
Hf 9.475927248671399 4.533282888137977 8.571381017749374
Hf 9.595337454876724 9.628647874081617 6.208614840303845
