22
Energy = -181.8348333 eV
Hf 5.522613091272946 3.066427616753039 8.837843425351837
Hf 6.951411910535033 5.337841091958039 9.90319472034441
Hf 4.24102372273164 5.551362669723818 8.993946374254323
Hf 8.350540186973653 7.85518847611221 10.623816287002777
Hf 7.830278478996463 4.1650120885537705 7.428583170660048
Hf 5.474207306873703 7.837335275957355 10.246125215171475
Hf 5.171522812899878 4.637332799946442 6.440984763909839
Hf 9.317133325782361 6.534112868512985 8.268480721108146
Hf 10.3385488663265 5.279863044230108 5.913405983649261
Hf 6.466941990059464 7.321363485950034 7.491568570950538
Hf 9.864027418639212 9.375717612974462 8.601849391367528
Hf 3.623280525286286 7.108440203801777 6.647366586274305
Hf 11.429423591660044 7.764878571583709 6.547145318431574
Hf 7.128152899745158 9.869924685337676 9.238662095342685
Hf 4.615236622012028 9.570521368571754 7.9884954517387206
Hf 5.073804146511407 9.061878190786734 5.25068755842842
Hf 10.092916597319524 7.239635486192783 3.947482033460831
Hf 7.6762239094394635 5.889769698352686 5.077435519060318
Hf 5.036085693578623 6.550272410427364 4.173978490547071
Hf 8.860338488488091 8.636623544877986 5.996837170028089
Hf 6.930234560414123 10.631510354381557 6.579465773765089
Hf 7.286452098917841 8.366982324965145 3.592111385103118
