28
Energy = -236.86790638 eV
Hf 9.306257724073262 11.688679325831004 10.045383408582508
Hf 10.558083154343029 9.549318593938201 11.241245559737635
Hf 11.63693855791231 10.654598635440454 8.865265432165758
Hf 6.841247239421196 11.43786319022695 8.88869796054022
Hf 7.5396906463874105 9.532183821253746 11.122511506284077
Hf 9.247289365441537 11.464535568218702 7.0702024360756965
Hf 4.401795763626263 10.013550623332264 8.670404087671326
Hf 9.32198120448847 7.111004576071493 11.343651001261483
Hf 6.479374803850203 8.480817708848104 8.295029246475927
Hf 11.649380413116878 7.671121035993025 9.08656134164255
Hf 11.220399784041444 9.30874595266869 6.492597437518588
Hf 6.069207393173249 10.610283442414255 6.313753209461616
Hf 6.670859399275576 6.434247388974863 10.57223714493725
Hf 9.236401501382092 9.075873433170013 8.720948717097261
Hf 4.193824173352359 8.51381529981177 6.2848672952004465
Hf 8.702141287444388 4.433771690977486 10.630046059628118
Hf 6.1212042383841885 7.924991390859951 4.040621970807366
Hf 8.860653232003989 6.132469566478275 8.52820977317356
Hf 6.742237436566305 6.364667717097978 6.423678853945529
Hf 10.452689987564677 6.625263191640731 6.266459368238126
Hf 8.480269537687576 8.832331312660187 5.723609919510692
Hf 4.297427705336158 6.16464092797069 8.111217399627279
Hf 4.1174817241992825 6.031693578657878 5.129603860528313
Hf 6.526836980900991 4.23069311320594 8.79475748371723
Hf 8.667616951643673 6.424304598788247 4.130368764264399
Hf 6.395310714357735 4.857279697042765 3.9861919505651415
Hf 5.272038312542922 3.8780630937980813 6.400647766077937
Hf 8.327913764096131 4.0542738915913885 6.134027317777878
