28
Energy = -238.22259947 eV
Hf 4.9646800599642935 9.600656451174281 3.9879723149470814
Hf 7.133800799964919 7.575994489303794 3.1852570667126088
Hf 4.180766402393214 6.734892151075705 4.2856885910518665
Hf 7.611737916573914 10.384966837215503 4.70005690517305
Hf 4.515167824593446 3.506211362553284 6.152629016223379
Hf 3.4436773013603386 8.728104874911134 6.245562287469073
Hf 5.470309118827376 10.580239930627528 6.949670054567641
Hf 6.1258122765645595 4.776698927811286 3.693860669650213
Hf 6.409741709469041 8.067273488966094 5.693833896655368
Hf 9.700699896614706 8.347423564968679 5.047998522448709
Hf 8.87927791288146 5.394800714298951 4.567248589482674
Hf 3.369926466552558 6.21872000386921 7.220765417068458
Hf 7.331896769769755 2.980463545916561 5.43410632001853
Hf 6.249217949401802 5.364821621890238 6.577591980488882
Hf 3.803538595233091 8.83586107264986 9.214607046181852
Hf 5.929623803836399 7.715113482901904 8.235757242655652
Hf 8.407582616548831 9.997803975346365 7.462530958932526
Hf 8.67055807826633 6.837638085598056 7.317117703700161
Hf 11.16784274672269 6.066528948818672 6.325862369728466
Hf 6.517951708767593 9.97446554257314 9.742012909318989
Hf 4.865325458929254 5.051773895184204 9.224320401774618
Hf 6.6721849917785265 3.011905562423229 8.213994768813821
Hf 10.895054667735613 8.485780469713458 7.826547854715408
Hf 9.31325988445183 3.947778926493015 7.404940465069485
Hf 6.00397388482623 7.346919709647314 10.949630487881311
Hf 8.785000469711393 8.141465920644974 10.00347146055391
Hf 7.798614508169468 5.208337752652214 9.837014886674497
Hf 10.591574929245231 5.921673191709698 9.161473269567018
