23
Energy = -192.83905072 eV
Hf 10.082407720713892 8.704491901155553 6.915052258358887
Hf 9.096409916137453 7.008579031195781 4.723736097498669
Hf 7.940047934317463 9.883400724623753 5.323405715187796
Hf 7.823920753921856 9.594027127489174 8.502530417679855
Hf 10.60391532138826 5.959466089496518 7.107501729335401
Hf 6.843416571201285 8.086293811182161 3.241938763842809
Hf 9.837252186191648 7.641660597571955 9.463260483164655
Hf 5.560604900731365 10.61336412987117 6.9994061073089195
Hf 7.926383135912239 6.747365099847842 7.570323488388489
Hf 5.077737375103 9.97941965742659 4.253126401881602
Hf 7.168039250885172 7.385007177023371 10.355753527592947
Hf 3.3705278149718843 8.930831452587256 6.270067386342276
Hf 8.644764672188112 4.279638419197832 5.967168471537132
Hf 4.850589833558957 8.412833643720566 8.753417879015371
Hf 5.975967619531259 7.883241158692449 6.003530068256756
Hf 8.13929925305827 4.415399746916889 8.967059579964985
Hf 4.159997748110987 7.149613551998916 4.021384749149988
Hf 6.625440187917501 5.458976909914085 4.252414852671899
Hf 5.408589185331612 5.619034702748777 9.165205014561332
Hf 3.7447640599399934 6.202080135067806 6.880622462643099
Hf 6.031841404614125 4.076867449141833 6.9272032817378815
Hf 7.7130334452362925 1.8965033432098752 7.626581267657636
Hf 5.903299016281062 2.6537003348298254 9.432262819024324
