24
Energy = -200.60792829 eV
Hf 7.026042886472008 5.414013719506411 10.342049324688663
Hf 5.792508536481835 8.55673643308163 5.509795708344835
Hf 10.832765297880746 8.09262879434197 7.61407858406266
Hf 6.888886995833319 11.033139739000235 9.374247520188677
Hf 5.751995381883502 11.200879843303031 6.529748663846949
Hf 9.049282763276734 9.631241199613298 11.716935534303486
Hf 9.576497137418762 4.8697075670910595 11.118480291512515
Hf 10.576616645404524 10.76694237156111 6.015521998350328
Hf 5.001481278670443 9.135142480328104 8.159001016914404
Hf 11.366690103494639 12.8669294576599 7.767783124614438
Hf 9.132221909992607 7.520886014926553 9.850601521373331
Hf 12.216550371864388 11.806326356466194 10.318971705096196
Hf 7.818328671131994 10.562471193456572 4.758980808388403
Hf 8.016704390497228 7.005825903234055 12.521665672858441
Hf 9.135474971105122 5.239037929945057 8.268501728822871
Hf 11.65219458942726 6.060956681050687 9.650272690782367
Hf 12.68618461418758 10.41428174624173 7.971698727089744
Hf 8.373093101603116 12.243856694953463 6.978402425186342
Hf 7.8585851396947035 9.265353672665066 7.308410296657581
Hf 11.836300251733018 8.948767376120026 10.361117584868376
Hf 6.379583728608406 8.318597281061523 10.572181520072869
Hf 10.7751255521431 7.182926149286579 12.271242909974951
Hf 6.416499560653327 6.68876656543894 8.00628486260347
Hf 9.965332277466599 10.603983578150103 8.943466926062467
