24
Energy = -200.28128902 eV
Hf 8.249943508375306 10.420922999874058 4.755752483461868
Hf 10.795076159742058 10.458056907812088 5.783373634157191
Hf 8.486686846794445 5.1529137682622945 4.43740835123342
Hf 9.894642953000025 7.950895981350262 4.908193630196299
Hf 6.889742409927504 7.899649423689021 4.367524253382007
Hf 7.313801143813784 6.352202050589487 6.695342185187371
Hf 5.666011216683527 9.709872362708749 6.2597709836903315
Hf 8.714905335018273 9.327975088926097 7.336154626774958
Hf 11.386357071859708 8.368218177509217 7.450983778253642
Hf 6.50737971953457 2.909940355375786 4.9805136639230145
Hf 10.06368242310941 5.810202743373544 7.07667139631998
Hf 5.525691025589553 5.3534285900287895 4.660016331495382
Hf 8.194862109547117 3.6077916355304813 6.925252720892689
Hf 4.038906299926283 9.15277295416548 8.60707200051342
Hf 9.575935210037729 7.137960159217539 9.595752043853517
Hf 4.394916552398763 7.049272346243927 6.694541958807488
Hf 5.323590132877567 4.3140493188711835 7.4461048652092465
Hf 7.522504856691134 5.008326828255238 9.363324488706802
Hf 6.691915049235111 8.14768726567165 8.780438435727094
Hf 6.387769668145969 10.950937335001345 8.775797525712031
Hf 8.396562967683366 9.628490612326436 10.492860560080542
Hf 5.530259134987418 9.260496006124223 11.003356410929488
Hf 7.251707836697713 7.05636062232241 11.35843165358023
Hf 4.766182198847376 6.436845120816679 9.75742672132571
