28
Energy = -237.6994771 eV
Hf 5.854354256636564 5.532705324549966 11.427759555184974
Hf 6.070945947809288 3.69745355580205 9.23823986450632
Hf 5.067962523203181 8.223091206993535 10.450271733760752
Hf 3.9585854161371943 5.67821116047576 9.377972173424375
Hf 7.752735985564102 7.4778211526054275 11.45920368785374
Hf 5.117462888159269 4.998561836596617 6.8084136933223744
Hf 5.155243240951404 10.549936020779043 8.170649463723358
Hf 3.991196835174219 7.934978141881638 7.59964183028128
Hf 4.431256776545813 7.074253914909766 4.893200928477852
Hf 8.592132073581677 4.807224861505056 10.266226437431465
Hf 7.627556308795494 9.201874940868967 9.187848427466363
Hf 6.7420672377602795 6.451872342395968 8.82589514877643
Hf 6.716160283505615 8.229216630491589 6.290345061682382
Hf 7.708364873933642 11.859649014258355 9.130175955991383
Hf 10.71975977025266 5.082305360643138 8.247700649567978
Hf 6.442737914273903 8.154301734756388 3.385212876612247
Hf 8.059130686535841 4.138960643677288 7.254342479314648
Hf 10.020681614589657 7.477115007227049 9.728236869527604
Hf 9.131128327641244 7.024865962536045 6.800967587318481
Hf 7.204083284728232 11.417785768576119 6.523070049619797
Hf 9.746592280423764 9.928090829194359 7.361839030923865
Hf 5.006598731354265 10.016399862349306 5.20345786427027
Hf 11.855365834192035 7.538116309706718 7.440474355211506
Hf 6.9759604571437475 5.588514387619178 4.680505741677406
Hf 9.058618321179122 7.259171209626791 3.677902759638361
Hf 10.936720864388349 5.669814655181048 5.343000654294021
Hf 8.3644600390384 9.960851892422662 4.493258539501725
Hf 11.010197319231727 8.574879241917577 5.06284109020949
