24
Energy = -201.80745174 eV
Hf 4.360800668561374 2.853807288561649 7.136239114497548
Hf 5.401976807044895 3.3278900214015312 9.663131631183395
Hf 3.3948320370065255 6.49802360754936 5.524100280822127
Hf 4.427787378718609 5.52065209446344 8.11910145752232
Hf 5.574142402379692 4.891432236710408 5.277735010418408
Hf 7.026751225302181 3.847765703714681 7.388912430854889
Hf 3.173798790060411 8.34948800766192 7.711707370338852
Hf 6.711514506341873 6.042811485214552 9.591667141484614
Hf 8.192582918325435 5.180630689307576 4.0629690883712195
Hf 5.760282981258713 7.381081914569996 3.8050920749502666
Hf 3.9344779085431556 9.307819073584673 5.0934457715701065
Hf 5.794423842851766 7.841603790586445 6.755708610862922
Hf 9.155672470584518 4.949883525327464 9.127319948326118
Hf 9.983680514607459 4.276277419885654 6.4589955681088105
Hf 4.951196058025217 10.531743676982567 7.423216705024399
Hf 8.268998690460759 6.516267410246733 6.714976290535123
Hf 5.6508192547630784 8.745868693643565 9.574827257164038
Hf 8.491596291838302 8.0644545199695 3.953862547190536
Hf 8.829107845818221 7.989322418814898 9.250652003471913
Hf 6.836028471919282 10.054389794302212 5.12819527773588
Hf 10.55122189098096 6.585070249844944 4.924807392223341
Hf 10.982424043836106 6.682756276137612 7.710090700851532
Hf 7.591841108107343 10.162861723945795 7.941710679001176
Hf 9.710307317723611 9.06251625358736 6.402810416569487
