26
Energy = -217.06618693 eV
Hf 9.143148103979154 4.7360383867844 11.16356941171564
Hf 9.338941246635141 7.585109939127395 11.03664831604242
Hf 7.156070527944541 9.106765378379338 9.946104404723933
Hf 9.622937381112733 10.337478306477765 10.263693502752517
Hf 7.0767136159343105 6.175202877414413 9.866790593515567
Hf 9.82563924522293 5.676415432344559 8.638860656451715
Hf 7.952343481415863 3.5889711440124987 8.690931329003742
Hf 4.662227240789848 7.221483467204453 8.227681634191178
Hf 9.378524152728598 8.46820651689271 8.09487652796895
Hf 6.51841435054603 8.916721633334522 7.066559148608377
Hf 4.981934123200491 4.322481784323494 7.963397556995391
Hf 8.135883602683782 11.025441692514361 8.011440165346537
Hf 6.842319145456086 2.9790105653851873 6.1209175213866285
Hf 2.8818530170154397 5.911480015347444 6.5440434394495925
Hf 9.538335349941503 6.796819478875021 5.256698986068249
Hf 7.34823902229755 5.830702138922968 6.923773275854085
Hf 3.4201063853654796 8.760863568523618 5.6307769878851825
Hf 9.427099478239066 4.015219223070062 6.122409259061577
Hf 7.589207571338408 4.8912940408688526 4.077824614806431
Hf 5.939779571329662 10.018066626106977 4.475513971282988
Hf 4.547379171457905 4.137815269514954 5.037343770200178
Hf 8.715435806015972 9.5654977935138 5.4078101638013525
Hf 2.734284955735759 6.5123819069356115 3.926303750626555
Hf 7.526018801834726 7.891962998606555 3.4513649510593583
Hf 5.3357935437784505 6.909292534030381 5.1825410567380175
Hf 4.458486632766286 8.328373200531848 2.8630859745201414
