29
Energy = -248.03588825 eV
Hf 8.035022061874596 8.733193733989772 3.5117387727463796
Hf 10.306288283284312 8.720954818073823 5.349961580434186
Hf 8.020507542156109 10.391308685567745 6.177349822092051
Hf 5.564330966394038 10.041846669884883 4.524644934168376
Hf 10.301833540591556 9.562584850166612 8.030364741863975
Hf 5.088660695630857 7.789895440209038 2.9038492341449063
Hf 7.146001744333343 5.886286231047434 2.881911818232884
Hf 9.465759879758144 6.066717253862734 4.584143881457596
Hf 9.634200869253869 7.605334967699188 9.925523465948105
Hf 6.394967992654677 7.381049268150537 5.2488150288608955
Hf 10.849874189145302 6.52684820530776 7.409846693473277
Hf 8.402310986729617 7.7600787886051 7.316979726585751
Hf 7.582510647828806 9.64798560774179 9.379631486418742
Hf 5.077746985518158 10.080054159363002 7.3715985701071896
Hf 4.894029822857939 9.021453969901872 10.203869342331721
Hf 9.817383249927532 3.9372964796072436 6.491850917197735
Hf 7.2037132051860056 5.137765361876045 6.9010300275191785
Hf 3.5870396700972575 8.097577733559476 5.514809863653138
Hf 7.3881412835272355 3.558394786049938 4.668234989080263
Hf 5.606897794643597 7.311198835866205 8.06633420705313
Hf 4.728067024154719 5.160624673519209 4.394967008284893
Hf 2.9365889821113287 8.232344398604246 8.311269045376804
Hf 6.929244728298164 6.873823878130475 10.597787747944116
Hf 8.924479172342494 4.8193263141150595 9.2078544033854
Hf 3.9726338310358593 6.338624500868988 10.157379826656099
Hf 7.648332954508874 2.560658165509243 7.631154240645506
Hf 5.124990443112488 3.1489925906267255 6.551072448982523
Hf 3.5445399405680806 5.424734010161256 7.347606426658925
Hf 5.705023784489177 4.212149183908324 9.238314939174705
