22
Energy = -185.53751715 eV
Hf 8.07809099470923 3.8461625415524283 5.746077192783401
Hf 8.16184422262374 6.307279933470841 10.07376677306169
Hf 9.834779281735068 8.854245011684146 10.121543222876328
Hf 6.59475975955687 6.299769589245441 6.728118865882223
Hf 10.314467012786729 10.01026095986692 7.434494350427445
Hf 7.746003081436443 10.91484511395902 6.4296550730551045
Hf 5.589947005683453 9.929690104246909 8.285946685277418
Hf 7.160833404237935 6.221231914071101 4.007579026032872
Hf 5.310251357953641 6.950567613421929 9.448735984760635
Hf 9.684487195560097 6.092226664727358 5.55939970403443
Hf 4.341541426654343 6.5663122207851865 4.827014371091744
Hf 6.439388801177369 4.0835698195301795 8.413133571728961
Hf 9.225077954428999 4.782507392940907 8.008272229202
Hf 5.428181483983204 4.073749123289504 5.4099788190141105
Hf 5.945977171799871 8.999584944857803 5.276694056315125
Hf 3.9450978602485143 8.013227958431226 7.120857828205545
Hf 10.67462301205792 7.149883166062331 8.05896048735588
Hf 8.826826709310788 8.69620992606081 5.036818131772631
Hf 7.048942843758619 8.889851591597377 10.671298840875894
Hf 8.007112372255106 8.434381295206434 7.954740936725711
Hf 8.219064404766327 11.039449229882939 9.201717693089652
Hf 3.9213192269382144 5.289651222577684 7.429203626593894
