26
Energy = -219.50649433 eV
Hf 3.7261519703627437 6.361175216364612 9.18718853771677
Hf 4.546963443174614 4.540978775896646 7.324412220731126
Hf 6.4001991340380995 5.538726636757838 9.44769043874152
Hf 2.698106710286252 6.895358082620547 6.375580395165235
Hf 3.1139253521129113 8.882552641676691 8.594923989805826
Hf 5.39843220983131 7.639957605514226 6.958088688673545
Hf 7.144791878427425 3.5551705823640067 7.338120976847773
Hf 4.82943575553813 5.508094322016481 4.586081305567361
Hf 3.425151627582778 9.797663842091735 6.0283400268379035
Hf 5.761798532360147 8.39441123126125 9.834799084047832
Hf 5.249799140406197 10.558903768069143 7.9861487023458135
Hf 4.337869763871133 8.15978125820361 4.13721781135472
Hf 5.295833312235757 2.675500985278937 5.2294408580718
Hf 6.308228161243877 9.983910938232025 5.350434704010414
Hf 8.745884342135039 7.303496228965815 9.823039590305719
Hf 8.960249868851319 4.436152103662233 9.181659464574308
Hf 7.853163617899091 9.515402024743699 7.931519074222336
Hf 7.432472584480474 4.537359534274704 4.6051436040729525
Hf 8.472309070442607 6.487764437156425 6.966412799748422
Hf 7.041071186962768 7.443909731093387 4.0234679796025
Hf 11.052334730177982 5.951690785121591 8.535767697600168
Hf 10.508836546888654 8.612363886286508 7.931216756189327
Hf 9.279286976392056 8.861069057586398 5.325187491267428
Hf 10.0248315662248 4.168490019663444 6.3368000446014205
Hf 9.551284668958008 6.186226410271702 4.111866056482918
Hf 11.352604474827558 6.840299324915531 5.958593972762126
