20
Energy = -165.42158478 eV
Hf 7.7502796880500195 10.586806233550877 5.9325645368267885
Hf 7.867106336120543 8.04562755494317 4.729797823898567
Hf 10.294699015557049 9.049407890101847 5.688284463522973
Hf 7.08058758227919 5.4233745286075 9.019531862744309
Hf 5.5862226165908115 8.893620898721768 6.0189592855162655
Hf 9.086219907930902 11.312680662087415 8.29817511888318
Hf 6.400693472850088 6.295162599418778 6.417231322680734
Hf 9.330644772368512 6.039673960007973 5.940575949042343
Hf 11.748184694899754 7.004878748944362 7.188273640157644
Hf 8.268526912961041 8.236371332693368 7.828039964993884
Hf 9.880825866411882 5.660128579537057 8.73799279292121
Hf 11.172670178338965 9.416997108635618 8.393953699453737
Hf 5.268965516431795 7.6273318031353785 8.677474437482505
Hf 7.520224619796835 11.842328779371478 10.682894639688204
Hf 6.25925227204753 10.660101983624434 8.331903973194565
Hf 8.60470191782342 6.938330980360822 10.909937562152377
Hf 9.514288529167287 9.670495837177802 10.636457316433338
Hf 11.564918888531814 7.330903504458748 10.105087190893698
Hf 5.715590506021455 6.469448571693497 11.324846201955731
Hf 6.691973779743988 9.102905516850496 10.74459529148042
