28
Energy = -234.54994343 eV
Hf 8.842849320427854 5.197382753576267 7.517561655980801
Hf 10.80679185892206 10.233398229497167 6.034742817359025
Hf 9.079189369871948 12.35566920543717 9.94124647179442
Hf 11.390549018178532 6.063428502062562 8.657332902256167
Hf 7.825453475310178 9.419467440867425 13.491120799194814
Hf 6.410163420139554 7.201449848469595 6.757371273434214
Hf 10.97488370239922 10.672429401310378 8.91265517663562
Hf 11.168169595084073 6.447084102197198 5.900351740985707
Hf 7.566078261598314 11.813152293929909 12.143288487192274
Hf 6.237902664241548 11.54230540124763 9.540689420117102
Hf 6.759204187868062 6.008980786474595 9.275103530649233
Hf 8.47743991891381 11.409176397615262 7.417304194015255
Hf 6.92030450879325 7.1062651371393715 11.880560276604564
Hf 12.466748275187866 8.485207436260929 7.696320799375757
Hf 5.551065125824647 9.812389234292288 11.924845182370596
Hf 10.243670874304629 8.368412686788716 3.968586842698159
Hf 11.353432191606101 8.220676464808166 10.491489431441035
Hf 9.192542602193022 8.098222573240076 7.660309071855449
Hf 10.387446509810715 10.61089878756142 11.972477767012158
Hf 8.19281961416634 9.416545526121135 10.447899931250259
Hf 9.743740213026241 7.731428910971518 12.62254833969762
Hf 12.828440754727648 8.590596858646277 4.87226968637262
Hf 7.9155966730331055 9.425591267509333 5.2319921172142125
Hf 9.284859940749156 6.01788130427485 10.431488170858602
Hf 5.403555140437149 8.434896481094688 9.401596293043548
Hf 5.717134576296678 11.346624776234052 14.319543025154305
Hf 6.107829546353566 9.970078081911012 7.254730716855786
Hf 8.455891546157208 6.539607201142609 5.0043895203165265
