22
Energy = -182.3328846 eV
Hf 8.752008243606994 7.009070589439963 10.489279558066345
Hf 10.173837794506843 8.449605672443763 8.457142997490708
Hf 7.272016244005796 4.64281106804577 9.208528667234974
Hf 8.44883065065466 4.503344359651721 6.28161475747658
Hf 6.038004367313917 6.752565511337782 10.787072111582662
Hf 10.00450582797403 5.432597479830035 8.612078174517013
Hf 7.140662976366432 9.195959122598554 9.541872881237538
Hf 10.480930486822814 6.634736873127789 6.219330909691682
Hf 8.552982813651413 10.990509946141625 7.707471856596712
Hf 4.35566869458647 5.099065889393648 9.326995841980098
Hf 5.394176510027602 4.1872207722000585 6.755568458196982
Hf 9.235275023073658 9.205970740269544 5.656029592424288
Hf 6.54332970501947 4.754274708492456 4.0773509064985465
Hf 4.794309980600808 7.715046715471477 8.536981010067333
Hf 7.814126304968339 7.065445788065358 7.620107411862246
Hf 3.8239091480667495 4.953155101034393 4.564785404569485
Hf 6.257431133743772 9.713436757927498 6.643297597837604
Hf 7.722920399964813 11.46309691666026 5.075266866080409
Hf 8.490341213044205 6.72081963524506 4.33721250220733
Hf 3.0338383158951694 5.984984201462043 6.954882013517078
Hf 6.834099754375298 9.06840287190539 3.904925038034147
Hf 5.485395568885146 6.9354049859830535 5.630464789125393
