22
Energy = -180.59895217 eV
Hf 4.079492430684115 2.81690021187867 5.990786125858598
Hf 4.006570037435708 4.70303016490005 7.890048549559718
Hf 2.6995112286776584 5.315132778527512 5.5710078672757515
Hf 6.700480005423072 3.942378256029771 7.562665621667155
Hf 5.452382395568287 5.008504514161409 5.059986805654915
Hf 9.75729116434767 3.4133838447309124 7.8154854826113365
Hf 5.738157867629558 6.204597794787801 9.557366692576808
Hf 3.7694686689319474 7.479227162320654 7.621459187858797
Hf 4.448273199843038 7.609140179891048 4.623091296968527
Hf 8.702845505064976 5.059654919646725 5.830326808282542
Hf 8.612847834555946 5.582526298042642 9.032364693318703
Hf 6.638105332929397 7.130032104938548 6.8361602245180455
Hf 10.928712621943085 5.924649400478392 7.49644952021325
Hf 7.839285857854146 7.740987463135385 10.86037157566693
Hf 7.337724402899744 7.242001899018897 3.900560818235088
Hf 6.214520412001841 9.142431901620375 8.945043993226479
Hf 4.947261606877646 9.739894021512054 6.432439307824443
Hf 9.582867009082204 7.76840626327184 5.737289277735978
Hf 8.990904219050273 9.646412084849175 3.7630600129800205
Hf 9.148751553184802 8.417141051886064 8.51162874628363
Hf 7.805495064634271 9.999344670459193 6.492162521494764
Hf 6.284939310841381 9.858152360485757 4.018137353332637
