29
Energy = -243.18660824 eV
Hf 11.787207783420579 7.946177469063679 7.732948120465945
Hf 10.491738786497638 6.003271079615473 5.703065737147311
Hf 9.517204885308095 8.713079679535314 6.245958819759477
Hf 9.577423628981716 3.581525156253582 4.287919763601435
Hf 9.46169176263407 9.409035375375572 9.10240677315432
Hf 9.309683297792796 6.6488447376084086 8.244709223485867
Hf 7.522391959885939 6.21985799455041 5.862031036063604
Hf 9.032458308193648 3.796145165260946 7.082483555325127
Hf 7.238897241096899 10.605513058512537 5.824494955562412
Hf 7.782249166459111 8.707411086729737 3.823047726658475
Hf 6.99615072393481 11.254190385050538 8.682955285220917
Hf 8.64205651745748 5.940807598326332 3.183092062510491
Hf 7.956221379549776 7.491243517452308 10.851065610792984
Hf 8.045373315686382 1.6701729703791162 5.4419937530852565
Hf 7.568984768391534 10.292677875758619 11.207610014233275
Hf 5.325155921197147 10.212078438177542 3.729340920985459
Hf 6.690641174505238 3.9006758875289753 4.113106726100877
Hf 6.858091510837465 8.383286395502765 8.101745345044598
Hf 5.993585662143359 8.59208752979864 12.604572327695085
Hf 6.1136439191300145 3.2778756354746847 6.88211679236873
Hf 6.779198285235407 5.2354430602785325 8.844713758392222
Hf 5.920457154192343 6.679443260657946 3.2808676370816574
Hf 4.951069631831224 9.631407849498121 10.089874287440898
Hf 4.769037322079195 10.451557607521996 7.170432923099316
Hf 5.218209748799375 8.243427865786005 5.5027272381660275
Hf 4.556142325710445 5.425646046695902 5.873203447142424
Hf 3.9334715137469347 7.476161418334399 8.014854445922223
Hf 5.065345838161748 6.782471630780616 10.52476718692925
Hf 4.076798550463224 4.672303165450978 8.609960927890137
