25
Energy = -210.92736845 eV
Hf 8.54244447687525 7.099152400397016 3.314436686235864
Hf 5.968651569372195 6.402085351855226 3.7611775672204297
Hf 9.456618387183942 9.19230250124934 4.755590990527592
Hf 10.33599319102776 6.525539844103039 5.463249606487765
Hf 5.181382051665496 5.154771493872467 6.101955698635008
Hf 6.602538586425325 9.337688163513999 4.260590784165366
Hf 7.952995429314101 4.716287551512424 5.147339668295909
Hf 7.973341776347469 10.438258424067179 6.891349651861669
Hf 10.40361234875874 8.823590148663977 7.296253758494198
Hf 4.4347647195623505 7.813288537793268 5.53408167346768
Hf 7.434477200351232 7.346868917169856 6.073490666182643
Hf 9.248007468317166 5.269661670716884 7.779064215930482
Hf 5.1751277632226245 9.784810805165606 7.390605173745902
Hf 10.969114554862662 6.886627944062388 9.28296272240133
Hf 7.218279264868715 7.9226946755968175 8.844187520791873
Hf 4.383099282518675 6.899342841508475 8.263336286718888
Hf 6.630028073062796 4.89144986032528 8.50983751780387
Hf 9.34640841999841 9.879749205174631 9.775449616576429
Hf 4.729462671386753 8.989146953196203 10.188540816289473
Hf 12.110667984579173 9.290120319543886 9.842694145929643
Hf 8.591534956127042 6.02698976720624 10.63448002450662
Hf 6.667195408023116 10.795336669927233 9.55442425750348
Hf 5.766478838319675 6.391517656313903 10.842588578538676
Hf 10.347627716944192 8.14048321193727 11.707015993521667
Hf 7.318249602513591 8.770336826756884 11.57339811979644
