26
Energy = -218.11925373 eV
Hf 11.13840059829214 10.808967113745354 8.950782633334164
Hf 6.223510865786751 5.789967537057394 6.647718394493963
Hf 4.36091422374712 3.6215163397246166 6.3104220459715155
Hf 8.057672179712755 6.709685464102493 10.298670042960978
Hf 6.030193160127034 4.687838740730072 4.098755577450605
Hf 6.029134583172957 9.58747097326463 9.432996751437475
Hf 8.636492461659467 9.470353347531232 5.1414099251601275
Hf 3.6932015742189352 6.219828078592052 5.254186875992945
Hf 6.246841586612819 10.36384657520899 6.463556601364214
Hf 8.692373154464871 4.408391663666025 5.193362416636542
Hf 6.4806607518540655 8.246264341657366 11.911937565641283
Hf 7.023275743456815 2.955775889620834 6.7533058365771845
Hf 8.472372484404076 10.795580608995158 8.214215056003873
Hf 10.086606671542109 11.927769430940923 6.369915242638539
Hf 3.419489944735732 5.569709146631629 7.95476568162602
Hf 7.711931243071673 8.040094498627424 7.481080242842581
Hf 5.189078805481005 6.8884380325122 9.653353346881497
Hf 10.033180301902178 6.752271945589853 6.099440315487301
Hf 8.064707776002555 6.7965695808966835 4.069175397409062
Hf 10.993346335404574 9.397132385383372 6.647418078803454
Hf 8.742280444949376 4.894663201986065 8.081545227164034
Hf 8.79526801071565 9.402514039851892 10.633182279939307
Hf 4.32191886162909 8.32050361683405 7.219238591391407
Hf 5.7241400027339795 8.163747694995974 4.644494077273007
Hf 5.773953095159373 4.095850166896 8.996973717861197
Hf 10.38442973064963 7.819913323648061 8.907651232802387
