27
Energy = -229.10974439 eV
Hf 10.988820758986646 7.520704480967087 3.6807559795948315
Hf 10.511507583206178 8.471780924727737 6.545937341919859
Hf 10.944010678290804 5.540495293828613 5.770715040586184
Hf 9.220190343498789 9.69373626784825 4.095512946344597
Hf 8.371723403507309 7.594854671426552 2.3186900302660924
Hf 9.464621341591876 5.050462407036272 3.263837698539268
Hf 7.82306074547242 10.256289486925398 6.542189506505249
Hf 8.609549703276056 7.023122748031779 5.057763899194639
Hf 9.316952067772135 6.099279927495067 8.135682726719654
Hf 8.83669130208209 8.879468476938907 8.871077055288984
Hf 8.409666216822213 4.185211300248756 5.821290252364694
Hf 6.38159645564051 8.892885006045669 4.118132580157271
Hf 6.85178742291358 7.644223892923742 7.033144733341125
Hf 6.532064498933185 5.715141495215186 3.678723935886737
Hf 7.407822251517429 6.982918799124685 10.443423994244922
Hf 5.969930086984384 9.474124155580041 9.124169436400674
Hf 7.230493375300171 4.241847807932685 9.005646149351339
Hf 4.912108275392968 9.750455482719088 6.440089445287192
Hf 5.625325038067458 4.509166180089758 6.283625468034495
Hf 5.201549204962993 6.244643038640684 8.659301260182927
Hf 5.350255312243585 4.979532713051148 11.151163566287616
Hf 4.535607230716567 7.786072544119557 10.961462469310991
Hf 4.315844267458521 7.1082108423852945 5.422304535416154
Hf 3.221003266764965 8.181770349496814 8.211665778525653
Hf 4.39867790375623 3.527956011562555 8.807740277395519
Hf 2.919082433570223 5.336575492484468 7.130483125910527
Hf 2.779336110494148 5.734610507304316 9.936288452087352
