24
Energy = -202.66804249 eV
Hf 8.716624155501504 5.4400437072254055 4.946937452096681
Hf 8.02571501113439 7.792466218203118 2.9770630255256627
Hf 10.837473753078127 5.876832490850102 6.922163941017455
Hf 6.06849434555108 5.846314528432559 3.3880949457249683
Hf 9.654198420711204 8.315403491737472 5.465725464578367
Hf 8.461398497312732 4.041866974297734 7.761493621682507
Hf 6.075565427573835 4.163848654018354 5.7156432304135345
Hf 10.0650745771111 5.903414357868925 9.707316829616586
Hf 10.584255040759174 8.43178062824302 8.318995527960672
Hf 7.351761109277286 10.176561080551243 4.56832078607767
Hf 6.764103627869384 7.679589857958897 5.412188259261994
Hf 5.234156444934289 8.625701280511604 3.3612567533458937
Hf 8.41834252182078 6.826331515990194 7.738567160320266
Hf 5.757538825323245 3.761247908587637 8.701877445780323
Hf 7.809721514540072 9.745000952689828 7.44916500305738
Hf 3.838825994783749 6.684587489941282 5.09911844736239
Hf 7.153322784528848 5.7283127574756705 10.294226522415856
Hf 8.494847812114417 8.305173140144223 10.1301937307391
Hf 3.5061296160919815 4.7195086967992905 7.314781939912385
Hf 4.253188127195819 5.964149539675383 9.833017513759714
Hf 4.853505969716024 9.489255709604345 6.357567121228541
Hf 5.7380109803454316 6.325365506916691 7.508040786081072
Hf 5.72844158857205 8.564278899807096 9.258577527616998
Hf 3.235407712802372 7.5793617500365285 7.7881156836848735
