20
Energy = -164.91363256 eV
Hf 7.899925621970221 7.168698059754797 3.9690606901297514
Hf 5.308031783744554 7.813140895087831 3.689482541428215
Hf 7.259735193658093 9.848176687777848 4.684846468267438
Hf 10.010250185882583 8.507682156488574 5.110108311722499
Hf 6.228799697207593 5.520500960120532 5.516543218877135
Hf 9.192354542013586 10.547582521320892 6.770051458013109
Hf 5.077537543723866 8.269458735219954 6.301119631644897
Hf 9.25417659654977 5.601781024891696 5.746824440787775
Hf 7.82019931334183 7.874387221626816 7.090239531988857
Hf 7.769262138560371 3.9657822940690153 7.530773079387241
Hf 6.015104978246899 5.844546504059351 8.617216272677986
Hf 5.67233612803516 8.539323920786877 9.301817208173086
Hf 10.503580197760638 8.311542334135293 8.058273474808212
Hf 8.391310018590993 10.003413500223296 9.347359837207968
Hf 6.42520343657182 10.599420664923882 7.354542864356928
Hf 9.762778717180531 5.556137897781038 8.560539656784593
Hf 7.832471993290293 4.503059541291296 10.337548262645482
Hf 5.919603563788623 6.562956817073001 11.432961978048803
Hf 8.405311820886668 7.321663625232898 10.366667758866676
Hf 6.779886902718605 9.168605011856872 11.741883687905899
