21
Energy = -174.86398938 eV
Hf 6.921567349665876 9.075213016929498 9.858532672764484
Hf 7.016554586282801 9.354373501950876 7.030346613540562
Hf 7.843655846229888 9.539962652365126 4.135781289953459
Hf 4.4037729506496675 8.02124844508709 8.583737074977753
Hf 9.32253464651226 8.337814906561352 8.505169320836606
Hf 5.659866664038852 6.817313649631072 10.920063540492636
Hf 5.995051664285019 8.248857147712153 2.297118691985182
Hf 8.456505796027336 6.695352249392051 10.557232788696197
Hf 6.779953884707891 6.682589864846076 8.138771793171609
Hf 9.03900754587684 7.487892786950558 5.840857239103209
Hf 7.042390945011861 4.371800238077173 9.907584759822571
Hf 4.383713145804783 5.116414202991657 9.182606360710697
Hf 3.8724009914927247 6.536527258467481 3.4045104652795417
Hf 9.121654282860984 5.2732701514463765 7.939700403588027
Hf 6.179241728082659 7.167579230288059 4.951896457901517
Hf 8.479297951140508 7.096826343423145 3.047135662318743
Hf 3.965945204819283 5.794752043258905 6.578282845207382
Hf 6.240438422500512 3.8992901239481643 7.241883353537577
Hf 6.310497636821786 5.485606740323925 2.4714779200271426
Hf 7.967277301320877 4.826260212395469 4.9769184153791555
Hf 5.092745748781909 4.277741462580227 4.571239349845844
