23
Energy = -186.92174603 eV
Hf 6.028244084056616 10.282667151673724 8.809711618659065
Hf 8.162993833261469 8.85736239316315 10.103594219819454
Hf 7.934208002380942 8.160222526936566 7.3188886633307515
Hf 10.228902021772981 7.078182582727014 9.157822298497875
Hf 3.3398451410675287 9.269820949017914 9.118619690815102
Hf 7.038706473973826 10.632050782577757 6.142116901955608
Hf 8.911682129324053 9.16258462300171 4.511275693996063
Hf 10.654332594735054 7.917566141045969 6.4361120536329794
Hf 4.63561284462079 8.975878662551947 6.659528040045071
Hf 7.7042687467211035 5.931298546218334 9.92407074694516
Hf 5.503686509987165 7.604300598801601 9.716221587961712
Hf 9.928635156504658 4.255063878104565 9.675751092034377
Hf 6.138308929674583 8.408486974440715 4.397154962353485
Hf 9.584392923436354 5.20435678002894 7.069610941629978
Hf 8.897094500621495 6.287855099791439 4.6569304712866755
Hf 7.859368891174722 7.527148654702846 2.377521776943008
Hf 6.142256123424828 5.790577262909726 6.763847827684293
Hf 3.3965605421625447 6.6722031444279235 7.938165518296996
Hf 5.11667582851247 4.732686198655269 9.249777419186133
Hf 7.54830530089183 3.5097515484803146 8.285763700180075
Hf 3.9367605557749723 6.603029017631615 5.084054757116441
Hf 6.245076580006066 5.569726424913714 3.6895772066917942
Hf 7.632215258470424 3.708947703736137 5.407242648335938
