22
Energy = -181.02919565 eV
Hf 8.575611207070393 5.1496631938929305 4.942126470372505
Hf 7.982118136578435 7.548129240624821 3.4199181186182113
Hf 5.682345130429965 6.153164413552857 4.685525157205189
Hf 10.127235922179041 8.48003994224452 5.170753774300769
Hf 6.243705348995866 3.75844212676099 6.1679761909617605
Hf 5.415110259556127 8.718528077274225 3.444085430445794
Hf 7.472236226574122 9.884436256351009 4.950733372013532
Hf 3.644252928293836 4.545653005628774 6.517393164746289
Hf 10.621497465405776 6.078541611532962 6.765470127079063
Hf 7.841908862258413 7.399257331908662 6.503237031162015
Hf 4.8434837909862996 8.530335745830856 6.392123145669699
Hf 9.356929124592703 10.741294692326308 6.764452103806919
Hf 8.263615179640674 4.720792144949537 7.9859958603978844
Hf 5.577255799472919 6.2147176771693164 7.791944041929841
Hf 10.271581989032567 6.035774884262086 9.556164342036364
Hf 2.840761526013916 6.78077007008326 8.263666508294648
Hf 4.6717984060122415 8.4246817396659 9.482772054674792
Hf 10.026680189049864 8.47352739110281 8.182078516985293
Hf 7.0220646583461095 9.60711136130526 8.128399049145061
Hf 5.375129332221108 3.5467834537985015 8.761109891593419
Hf 7.468998678253642 7.116915304587095 9.678200762373356
Hf 4.589818890735382 5.852032083144894 10.430713223109933
