22
Energy = -179.3199531 eV
Hf 10.570488814490702 8.977842116076712 6.582811040346527
Hf 4.7155000370710285 5.126348901312885 8.986889359198681
Hf 5.877674949841731 5.58448693551788 6.488690384191789
Hf 3.7350878335848483 7.508856289109731 7.424788662965763
Hf 6.075729731454091 3.1941935772760846 10.538564926544502
Hf 6.843088113876608 12.595409265121551 7.538834098709717
Hf 7.472506830474221 10.749974203909614 9.70999294873811
Hf 9.64376056759114 12.140899414058186 6.634316834850526
Hf 5.714200049230409 8.479346368457724 5.79903659098726
Hf 8.986879392392714 13.130898996069385 9.140683330089118
Hf 8.746259718080026 4.368917549432143 6.479355646282472
Hf 5.140793848971641 10.221413122197129 7.962817959222951
Hf 12.08694013832108 7.876463421490289 8.489561442293557
Hf 7.629474228673514 5.167903033861335 8.99912507205963
Hf 10.326469897512816 5.743073495118875 8.448985262846263
Hf 10.444708940071834 10.65926783969689 8.929650985397856
Hf 11.286789136206114 6.193813656841646 6.010656293558146
Hf 9.265883855065375 8.226273888188283 9.328763661738792
Hf 7.943394436726912 9.887095963666722 7.0593903929717525
Hf 6.270442591043478 3.0278531035643432 7.8698285211622085
Hf 6.274491701050141 7.76929230461033 8.564702472424576
Hf 8.423784394305338 7.0571175961307535 6.196707288633823
