25
Energy = -210.87528668 eV
Hf 10.128389575208773 8.53723683418821 10.807633346667297
Hf 7.320564945931753 7.357560909073916 10.396881313201003
Hf 10.789308827867696 10.040747497029638 8.738916287039237
Hf 8.01603439062581 9.877918323603014 9.422766862641685
Hf 5.164000516629999 9.074661678885073 9.624911499477937
Hf 4.7870406025847565 6.226047172698766 9.274337887899991
Hf 7.717895660236918 4.96560754048734 8.794648098624247
Hf 9.471266247148787 7.541037620558969 8.246383464677946
Hf 5.385620860465924 3.7007116448941155 7.988394537167117
Hf 6.588854117146255 7.799381792030541 7.440731778508411
Hf 8.498586094385539 10.002967790254624 6.700282235219649
Hf 3.585829624844112 8.258764089565226 7.563349080415782
Hf 9.49386264383715 5.057794412393859 6.660499221855916
Hf 5.4597805861056905 10.360637948737857 6.879771087831827
Hf 9.097055657597243 7.474238293690034 5.193188272595121
Hf 7.606599759197726 2.907570646478162 6.132241638327757
Hf 6.889657171350826 9.22853576944463 4.6386154066591585
Hf 6.484412591862774 5.4707696164050255 5.753887947981632
Hf 3.5385089604142164 5.533510089663689 6.664100163162999
Hf 8.864513693725257 4.766728153275004 4.075785988029687
Hf 4.665566403416553 3.1475900044760214 5.425795333259354
Hf 4.440884764549846 8.022642146292391 4.926265529051548
Hf 6.762989613865754 6.742574967455642 3.1765666256013985
Hf 6.427713660543617 3.7748612306314024 3.411176371236527
Hf 4.188361167704346 5.44960659050734 3.7735365723468672
