20
Energy = -166.05147152 eV
Hf 9.927693573873526 10.011053793683395 6.239536991576382
Hf 7.070632202692695 10.987851795050547 9.92501167948299
Hf 10.337852086651127 7.886272442276857 11.083986200306144
Hf 5.756634917691004 5.646518990862409 6.133875903168481
Hf 8.468837057018577 8.520149708187496 8.731520201922297
Hf 11.390251545276367 9.135772682175002 8.629845456848344
Hf 8.058246997528215 6.200287703660807 10.641896611974744
Hf 8.259728084800505 5.45150493556138 7.519465954680528
Hf 5.76348821030699 8.42401948417761 10.167840103612736
Hf 5.8001257014615755 6.004641823918208 8.914264081749172
Hf 7.915150101102043 8.177672210813418 5.571351226850257
Hf 9.880109761600963 10.574584435393422 10.84761148263427
Hf 10.387467646450643 7.207643322815473 6.370791040293607
Hf 7.849317139149901 8.885120841648812 11.832522501148228
Hf 5.678431144553026 7.6158957092347155 4.252182982111811
Hf 8.069733395101553 5.688078232314416 4.571619043579433
Hf 5.3865336481161865 8.23581495144033 7.25101886896611
Hf 9.352781483351984 11.454625741193663 8.381293874927387
Hf 7.084682266275234 10.569675842624259 6.9765269723277425
Hf 10.538154991523278 6.2986673074929955 8.93369077636456
