25
Energy = -210.72006379 eV
Hf 9.927288944481827 7.627137803968694 4.488734180371081
Hf 11.342165138529296 9.979348137883022 5.424382418901457
Hf 7.1609795952910265 7.496505647350385 4.709155537311929
Hf 8.490594838076467 9.676417264607894 5.915132995710682
Hf 5.855317907196445 5.896576067693538 6.4355596723226185
Hf 4.267800245364387 7.1186388162276915 8.294360685410973
Hf 8.635128943840504 5.847364129597762 6.6130233669429375
Hf 5.260198176750327 9.022209663074673 6.222873326929683
Hf 12.612287244847398 9.92163609931591 7.9934253808187945
Hf 10.18651010009466 11.288456999180957 7.815837145139081
Hf 10.822335753166218 7.824274522633673 7.121406325792204
Hf 7.060405790747944 7.993537289505128 8.144517786208514
Hf 7.222601754879708 11.160942649947778 8.21323385432289
Hf 12.299717618021852 7.602519448546388 9.506916163797314
Hf 9.04646437169216 11.747440624102358 10.441112933576397
Hf 9.780029181442618 5.91735179920884 9.442606780422652
Hf 4.788132366732628 9.761239053529058 8.953341667949118
Hf 5.4070999239241475 7.633048477685385 10.757129432774898
Hf 9.31714621090984 8.951982564490548 9.577491066376213
Hf 6.746607936301593 5.405552153386332 9.181408770712313
Hf 8.03662778966581 6.936489033254688 11.469286988944686
Hf 10.758726651496946 7.499350992433304 11.70249826637051
Hf 11.561107912442866 10.216818028476347 10.72251795071165
Hf 6.728182660097055 10.26037380077156 10.891738528042838
Hf 9.125576003680749 9.653821992801593 12.401341833812465
