21
Energy = -172.01761742 eV
Hf 5.51940128934718 7.9145048724368925 4.116220772455135
Hf 5.7153083865438505 4.871603691277186 4.648596250544184
Hf 8.292906930472801 7.943604923791344 3.566642800816135
Hf 4.59728537241188 9.03942067988733 6.9823399420631915
Hf 6.45074890481745 10.687843514389352 8.15092224074851
Hf 7.001511175633781 5.915296823186099 2.400313793647752
Hf 3.809858352140007 6.553693565279909 5.91946239562024
Hf 9.728753610001716 7.884041910441598 5.931624717349763
Hf 7.336802562545472 9.826963574291657 5.557280045792029
Hf 8.558691714529987 5.390644405200482 4.876326861110456
Hf 11.236308841037484 7.896279526125193 8.733081939444787
Hf 6.817693983696647 7.1217850639414975 6.739111617124815
Hf 4.380422095531051 6.407052617491079 8.683416245315007
Hf 6.259051494781526 8.442040868446183 9.633809038155047
Hf 6.867666606978557 4.124668996792956 7.204661336777878
Hf 8.836483527777405 9.1756999770793 8.207603518810902
Hf 4.055528790740537 4.026431814460431 7.009660796633961
Hf 7.009218831974647 5.697779785396641 9.670683355639214
Hf 9.141928543210454 7.5296327780236245 10.511202837254986
Hf 5.096323323256318 3.6190164631861435 9.462083035580715
Hf 9.338717422818478 6.006672806966575 8.045292052885426
