27
Energy = -226.53308939 eV
Hf 7.2299583866934025 11.598956363350595 10.29609981044106
Hf 7.840893643769801 11.720189116010902 7.503256619828407
Hf 5.598535301810535 10.10294113049943 8.648914398391177
Hf 8.616134287948704 8.806063653369643 3.4502384691806505
Hf 7.543667162320279 11.043382198819259 4.4281059268386285
Hf 6.712774609649971 9.377252213535472 6.28998399184678
Hf 5.752215712297443 8.386888584978589 3.668397862783205
Hf 6.394897492950947 8.699417509647226 10.906604910045726
Hf 4.525443918601567 7.69853334737554 6.31645793418743
Hf 4.113717357646138 6.742704636434492 9.580090716765504
Hf 8.46210874510241 9.414854344953282 8.97011830367658
Hf 5.369142755268224 5.297156330488042 4.323287508884467
Hf 9.618728237456798 9.526489713565677 5.996878437348592
Hf 6.655044009313866 7.062837838243759 8.484581499942736
Hf 8.582214658901584 6.729246672643661 10.723605456326494
Hf 5.9389190222359405 6.027597905254328 11.716068463189815
Hf 4.5526257069880955 5.179562848226306 7.139310359022017
Hf 7.515685876501504 6.570347119153753 5.638392650466331
Hf 7.537454293100392 6.447819149860758 2.696619876481006
Hf 10.137733485777176 6.663757088402867 4.448417708178957
Hf 9.868857184380106 7.005676374429944 7.665869778909036
Hf 5.70096992550105 4.294945606401491 9.520990089414866
Hf 7.783649139484818 4.046728876730879 11.536315033682015
Hf 6.921691980718205 3.6569278516059316 6.526529461798915
Hf 8.622278758147846 4.6101129281117 8.763903351983991
Hf 8.170533122566606 4.208176405146849 4.034543297704996
Hf 9.763176051884377 4.5503461697197976 6.244944700878596
