23
Energy = -195.15947797 eV
Hf 10.807634193494374 8.333533450241672 8.457198833448734
Hf 10.16592731633512 6.1995769140263794 6.662356283736185
Hf 10.170202950352104 9.014131287323242 5.792863370816337
Hf 9.44587253867056 6.228734029996691 9.54546165876924
Hf 8.366537876563159 4.724386792271232 4.957174845501363
Hf 9.368942350571333 10.669684211905814 7.945688421949499
Hf 8.266831967035115 4.206022647295547 7.876290524846225
Hf 6.715496319762818 6.106266778141664 9.927297610132994
Hf 8.468685105844557 8.972146670853038 10.293058252610344
Hf 8.300597536352095 7.433098695156588 4.399283367604692
Hf 6.215434093849534 6.118829601198327 6.609980071135733
Hf 7.9917001096244915 8.134300683932988 7.653304033606301
Hf 6.32313176500765 3.2498609490864365 6.013972975278221
Hf 6.719741547011421 10.697398271631359 8.537216382715417
Hf 5.4071102564423805 4.003868081889832 8.576558568700023
Hf 5.577735540485117 8.588110166530935 9.730805508915727
Hf 3.9612556182413208 6.55628612892966 8.419104475205891
Hf 7.495317211478985 10.215785607984554 5.66016596431326
Hf 3.6244294532902206 7.082462912467251 5.468128017121141
Hf 5.598379367286777 5.373260376997153 3.968244552898407
Hf 4.87198142635091 9.16962656255328 6.977075765669933
Hf 3.8371729014986435 4.492852189133922 6.2689681541328
Hf 5.7091867272844015 8.324494576814299 4.3302224958869315
