21
Energy = -176.76190806 eV
Hf 8.529255581447895 3.793765828875214 7.409883820459752
Hf 7.986188054592456 4.0668996337389665 4.3815951558307935
Hf 10.302160776860442 5.337559507483874 5.526269566565782
Hf 5.326136844194225 4.387212262219704 5.826139430791719
Hf 7.909147248710376 5.765384296014668 9.624093862136228
Hf 10.127305743469881 6.235294108382275 8.110649002594828
Hf 8.825901637129087 6.75842085679852 3.5860617159261983
Hf 5.873093585576863 4.446598359376242 8.630191868245783
Hf 6.101595558887024 6.079700519561296 3.6858025381967363
Hf 7.737490344326477 6.163448294549217 6.215383615466644
Hf 9.624117848279838 8.304389236143875 6.069129242174392
Hf 6.006792250092178 7.590633971850163 7.5645874326920906
Hf 4.124069231887507 7.272051467188242 5.404019057388969
Hf 3.609843335674354 5.729281474197807 7.861522065163976
Hf 6.818950120408284 8.72935243309689 4.565068874035226
Hf 8.518086376877534 8.514859357204033 9.0035522443644
Hf 5.162395543211342 6.939175962422229 10.10581002772058
Hf 7.566857932491834 10.144903680898114 6.947152313036237
Hf 3.4312383567505638 8.444202209752547 8.189236306163615
Hf 4.83929802629182 10.030587429484697 6.378743198689738
Hf 5.764971087881505 9.861401276846115 9.153054827750424
