29
Energy = -242.77756731 eV
Hf 10.229256434018726 7.055699503733885 10.260609205031628
Hf 10.540999779276278 4.260417198761241 9.719895618598505
Hf 11.266542320963556 5.963979716768729 7.612189298984285
Hf 11.238108671478642 8.814412634670271 7.994276936012774
Hf 11.031319126014019 2.9387560084448614 7.414794230912265
Hf 7.217008923040183 7.40589483800262 10.888361977495864
Hf 8.204634797561388 4.726266115024999 10.963335108249364
Hf 8.188387416385057 6.147987616876963 8.405484169613489
Hf 8.581994629805672 9.209221988749222 8.866935838838684
Hf 5.7988484844555765 5.117355332104798 9.70238665910928
Hf 8.133609956198827 3.230329843988856 8.38673625278568
Hf 9.765654484704651 10.535182093624355 6.529910628627806
Hf 9.130011409425704 7.763014202641982 6.116047311052931
Hf 9.360997765270614 4.592798176663324 5.984101084463118
Hf 6.643633744016232 4.694366801813769 6.150787765128856
Hf 6.140796291534412 10.46445462545287 9.69903602089808
Hf 5.950624777714447 7.722236838332756 5.796225645435967
Hf 7.685713248068319 9.419881537406928 4.1930843048571935
Hf 5.415362594369275 7.866108924877507 8.698525657844288
Hf 5.622806381435474 8.024537629926984 2.8396188302451852
Hf 7.652818302706816 6.399584366246823 3.8721316525245317
Hf 6.922024436490906 10.51285513686559 6.880164856981988
Hf 4.117349721816322 5.537005960978514 7.190632693987338
Hf 4.258988229449118 10.5154157700821 7.765166011598222
Hf 3.0856731301049156 8.022627427584812 3.8001540758313777
Hf 4.699421650613141 5.608762236657079 4.156081112266916
Hf 4.728640670254825 10.173349722710627 4.823108533136116
Hf 3.0703700298261873 8.135322638904661 6.6264377187715215
Hf 2.023460345171569 5.906270451821714 5.202447262261985
