29
Energy = -245.67673964 eV
Hf 10.040427798774823 9.82800802046677 9.963206073044333
Hf 9.528680842977414 11.606448187392468 7.864934533178582
Hf 7.912379875417587 8.753705253151361 11.419040544040236
Hf 10.909097397654097 9.017419433828833 7.312497368586173
Hf 7.409356739177291 11.098818995278297 9.715257086737227
Hf 9.291145183112445 10.432607149159796 5.3836786824713565
Hf 9.008314611001415 6.958675620672084 9.39240117594471
Hf 6.765316384574293 11.452615055490703 6.7060631848950845
Hf 7.399810110035976 5.872630379301273 11.413402723518564
Hf 8.116650449276447 9.119902716978633 7.799988385782998
Hf 10.498232729556358 5.511297247368237 7.212954921406585
Hf 5.897621219391856 7.653235198963441 9.717644073359612
Hf 9.26040836080593 7.573210407403572 5.345267106488143
Hf 8.599701144001711 3.958801592158826 9.371796565111085
Hf 9.362412849280496 4.817118942830179 4.634670224485172
Hf 3.312585857782377 7.86812438855183 7.5215007600927555
Hf 7.648662018169392 5.372272284474822 7.014240611976853
Hf 6.830518279404782 9.224384425035772 4.452379602439765
Hf 9.170140424198411 2.9327807160948143 6.717158685717003
Hf 4.900218056518317 10.11704293237264 8.54151957804014
Hf 5.893508568412884 7.744850402052384 6.787841016810345
Hf 6.476273804013019 2.784130130611067 7.710544575669636
Hf 4.350233516938967 9.992827316579703 5.830485726081083
Hf 6.789969629350715 6.188990016581228 3.9942380936578417
Hf 5.735104508534023 4.749713443914681 9.42109011299235
Hf 6.917093012579512 3.3781667912718523 4.885986197716634
Hf 4.722656100898092 5.003138976213997 6.539282132510105
Hf 4.1806053744588105 7.4524656869325945 4.59291887930251
Hf 4.444548582317265 4.6003065324376236 3.84029451586081
