22
Energy = -182.73813678 eV
Hf 6.704806662626916 7.169249929574447 7.085565581580393
Hf 5.412472478198118 4.1868300618377905 8.91699432631732
Hf 11.297897087816887 9.24359840942925 7.045206463802777
Hf 6.919499784267203 5.274216546607427 11.020146637961506
Hf 4.83483120469966 6.949578941019583 9.419640688875017
Hf 7.950815140251863 7.657581427847283 9.853007884858368
Hf 5.7785653983214385 9.48301476100268 8.867904338351742
Hf 6.676412239787127 10.245714137197913 6.346269122478468
Hf 9.684671844063958 11.361415471859157 6.156945414945971
Hf 10.796180157976421 8.636449254004535 9.774851518788932
Hf 8.122339099588515 5.917539250351022 5.002078966572291
Hf 11.1230769221724 11.453087370736284 8.6022370122361
Hf 10.021025458869897 6.745304184069823 7.707417019790195
Hf 8.725895793123092 9.99043486379633 8.334282818565093
Hf 4.311903007184417 8.472937798935432 6.492822166384174
Hf 5.179946928257225 6.164496063820486 4.67838847972607
Hf 9.18531124709445 8.593647205670269 5.325015973182716
Hf 6.212019460820678 4.1042321086344264 6.172211273581035
Hf 9.753909838661814 5.760778570603866 10.508906541743217
Hf 6.571496760058064 8.404482806502697 4.317184041936234
Hf 3.9506922960372943 5.629949489733625 7.072480679538127
Hf 8.08679732489724 4.743232499313286 8.447351610092548
