21
Energy = -174.8602081 eV
Hf 9.088422045776392 8.885331989844522 6.2727125055863455
Hf 9.08921841255139 5.653824633263691 5.856158167950682
Hf 9.298110936240356 6.766452626326617 8.340746882454196
Hf 7.033503266245001 10.728483226697822 7.459704935365271
Hf 6.655926826876266 9.811841939985822 4.855767368630681
Hf 7.5249635552870435 7.360234550248012 4.144061437293267
Hf 8.326545150998179 9.116743727704796 9.136208685343004
Hf 10.020714170152369 3.0528387025219117 5.443918967193824
Hf 9.213156147174358 3.873187066484205 8.069120026332813
Hf 8.290156445873302 4.2764162367091085 3.550716760931377
Hf 4.541143297110239 10.102570531748281 6.6034940471885255
Hf 6.373775494665845 7.665903401894462 7.1493192765312985
Hf 4.527115102663013 7.7550969492482364 4.783421760221236
Hf 5.297303180846644 9.277797272125005 9.396324855475415
Hf 7.115714967190338 6.858257408366559 10.125742003169371
Hf 5.890938096785228 5.201889218552048 4.716057985833504
Hf 7.369027222030475 3.129569594387702 6.004188771232552
Hf 6.47653740093231 4.63963358634237 8.255290038423471
Hf 3.278638721348112 7.969622262694738 7.544897776599746
Hf 4.0588050559423 5.451254193444318 6.744998610646656
Hf 4.5670513505549755 6.403781106007306 9.345046941851612
