26
Energy = -220.31755752 eV
Hf 4.463565008503012 7.773637222394399 9.874905696573432
Hf 5.465028634325404 5.124756297894133 11.105891776200941
Hf 2.940949946179855 6.901361905129918 7.3865112000171465
Hf 3.201720171365222 5.108666387353901 9.379999057538027
Hf 7.676357628488372 6.947537508905305 10.369993578331629
Hf 6.990797552986741 8.960495187033056 8.423876280878714
Hf 4.503292186586106 9.042409309566906 7.118997495236812
Hf 4.034855140364546 4.367827651986235 6.500523670301925
Hf 5.817300757352621 5.846758207245443 8.466224037586183
Hf 5.181648348092115 3.079325875833141 8.997997747155713
Hf 4.01845681548385 7.069691654013127 4.658170217326764
Hf 7.747509301684247 4.09939289294085 9.71389899591988
Hf 6.2006850195665875 6.661731880319917 6.02563974049436
Hf 5.937241976046874 9.499823210692739 4.78132620033189
Hf 5.932721581018578 4.6609631725577625 4.195869875709226
Hf 7.0260324173388105 3.64097580646639 6.781051596882429
Hf 8.280954435657828 10.81584147775139 6.458367097184732
Hf 8.967103338947231 5.914092590389589 7.919461734518188
Hf 8.470926546767327 8.091385850838426 5.793638971920774
Hf 9.872306252255047 8.823621650253996 8.158363973085619
Hf 8.476628234969487 9.949371334868706 3.665926722535293
Hf 7.058902253887039 7.294735481227032 3.2382722203089593
Hf 8.773573496921413 5.229909877987502 4.813384048559966
Hf 10.762358324531158 9.641481866510505 5.439075564457808
Hf 11.032961521351893 6.888086104010271 6.217090970270146
Hf 10.0506854933713 7.5193321929886165 3.52403196346389
