25
Energy = -211.56871297 eV
Hf 2.587628056033449 6.72372811486147 5.413882638520286
Hf 3.496609117508939 5.192853982658157 7.675004029516762
Hf 3.545334439665175 8.067728676577143 7.541347595127343
Hf 5.295483556617747 6.9243759975475205 9.37269314528492
Hf 7.294071038104176 8.794594409928457 10.003909188016824
Hf 4.236280706341553 4.282673339469327 4.715022667982869
Hf 4.003930522740472 6.747079385708572 3.1472814176040296
Hf 5.635905524374038 3.5637922152524237 7.077823398991778
Hf 4.363758662623036 9.129585602312485 4.90037490125733
Hf 5.577258079527067 6.620632071335233 5.648321317744855
Hf 5.787909081451186 4.290355173797295 9.683215946252451
Hf 5.84482860810366 9.569545841935815 7.507221759041021
Hf 8.097459427759297 6.013788805296333 10.35260670952334
Hf 7.400970972521284 4.031377925930364 5.101267988335899
Hf 9.943823578985892 8.181908315641364 9.381298203084569
Hf 8.27145078685856 3.894692682057608 8.110187064955825
Hf 7.901456789174084 6.927028787578573 7.57367652229024
Hf 8.58393488947675 9.917686897742705 7.771901211493955
Hf 6.334013859018512 5.315515289250112 2.8703728853221295
Hf 6.405875604977445 8.102683367059523 3.07591834003959
Hf 7.691101112219611 9.28401798905873 5.238582746633096
Hf 9.860801619177979 5.12153296852369 5.899541162016876
Hf 10.387593972878147 5.655330713616763 8.51564965507839
Hf 10.337658867789841 7.963752988076109 6.437970327593859
Hf 8.620352357873479 6.7656234418892325 4.112468864561454
