27
Energy = -228.52176975 eV
Hf 2.6025422047173876 6.601043076963083 4.584434251491386
Hf 4.600575292236907 5.650741706615608 3.175711125539325
Hf 3.868984864369103 4.177248431742889 5.645813150391143
Hf 2.408649718832902 6.231146989737527 7.246826788315955
Hf 3.0013178314013755 8.760608570623747 6.179377316063288
Hf 4.716805375481191 8.570959648986475 3.793389558781363
Hf 6.8136125039872075 4.343208125910273 4.400591194263512
Hf 5.355779713353872 6.684385291277839 6.011969293039235
Hf 4.4612531479866115 5.005064379886157 8.603176167865978
Hf 6.928329507051552 6.895778617633105 3.1542006546910604
Hf 4.1222300965778595 8.135957779212273 8.629165808228011
Hf 6.216557485223399 3.5457238227070578 7.032376061690426
Hf 5.556447521827191 9.784852216994684 6.548223489163761
Hf 7.754079194640813 8.958941745497482 4.639506751545538
Hf 9.148059614414091 6.274074614160528 4.647773212152054
Hf 8.89163110795974 3.994028218720046 6.606773346499338
Hf 6.011243355630684 6.766465094283252 10.078921090089562
Hf 7.415959833016761 4.490243649060152 9.347045993758824
Hf 8.238752804038805 10.2254985517102 6.944150462310287
Hf 8.337520249751469 7.02408789908186 7.601018530011952
Hf 6.859675188220038 9.32071056034476 9.257762826013684
Hf 11.03474682718524 5.740529188850751 6.617105277127503
Hf 10.4732682714541 8.60707439139773 6.2476458021111405
Hf 10.135708010782107 4.80920654964673 9.111036611756424
Hf 8.761419796401558 7.06317127421467 10.507371840301994
Hf 9.692870718705272 9.447392665618537 9.005090879765765
Hf 11.167765515472448 7.284127520695046 8.845273622826682
