25
Energy = -211.47085353 eV
Hf 7.898154956540247 8.62905573413544 4.875766689230646
Hf 5.0906462733987805 7.278661978751926 5.5434017195631275
Hf 5.689874456155903 10.222488100779689 5.794689159302377
Hf 7.443890783564274 5.734451697727875 4.828913741359925
Hf 8.199541268103125 10.801285738427834 6.91552200631834
Hf 9.924563705894512 6.664969477604862 4.434400623199455
Hf 6.566641124303957 8.234250666337129 7.785840309067019
Hf 6.329618928405042 4.980009891607432 7.236286094376253
Hf 11.856046555404088 6.186568279331056 6.2373407024054375
Hf 10.61734899245936 8.974621522454905 6.169187238537809
Hf 5.753041892190764 10.979291986876818 8.615284293378178
Hf 9.61579449926303 4.190892531841901 6.138538517126146
Hf 8.447845641683951 4.298993689952036 8.970720917125576
Hf 11.081419823531947 4.93590850192866 8.636295333874013
Hf 9.145699202952907 6.6975929665748 7.320660603983549
Hf 3.757176123556094 9.05104870292932 7.44920619052023
Hf 6.5853681843884475 6.2438739718176635 10.033742165390889
Hf 9.631392215854632 9.418448827306953 8.972055645546158
Hf 7.382351353666012 9.188064237071792 10.707964986642363
Hf 11.716768599427745 7.675768082596416 8.621988135030495
Hf 4.273617873299587 6.444678464012082 8.305085925719201
Hf 9.572748454715157 6.661833889342609 10.330175232749875
Hf 4.742568262350641 8.627474811020097 10.13631792938246
Hf 8.151818670835894 11.84631471330869 9.872237227131148
Hf 5.854736218854338 11.362125597061558 11.397052673839282
