22
Energy = -181.26326309 eV
Hf 6.073537236274628 6.844379143465516 10.283412645836153
Hf 9.93409480314446 7.9180386029888 8.530365718448648
Hf 5.550959474991294 6.468716056801693 5.013201567937036
Hf 7.499122387050996 4.263089675673525 5.931979100812605
Hf 6.19877987482788 9.34461720434307 11.735428651785767
Hf 7.307577895238924 4.050038675242726 8.86411683113443
Hf 7.013767044274598 9.47025003817349 9.056095937992932
Hf 9.814162621333715 5.126005092335901 7.547857076180685
Hf 10.131569514666324 4.852623193448421 4.3635393123528186
Hf 9.060750045332519 5.743377076371056 10.207696130720551
Hf 4.7174103641043565 7.977215544389644 7.432257296477197
Hf 7.635663327509936 5.531646460208279 3.3132469818244585
Hf 4.89182205567792 10.773078110764297 7.450983265919448
Hf 7.4215047370844065 6.664255616892702 7.821740225665604
Hf 5.066645323340676 5.0469706651405835 7.465432049285079
Hf 4.198821532424776 9.240485713350287 9.904618242629414
Hf 8.977078885450734 7.073841492543375 5.434034550195476
Hf 9.80324575533269 7.102916079493767 2.7539138380681205
Hf 4.62181948981217 9.263315543005305 4.882281196736771
Hf 8.65524361743934 8.273021065754316 11.131469101241102
Hf 7.121444804009127 8.325066343394735 3.4453685459502585
Hf 7.077142086521504 9.477396700005793 6.142824441672336
