23
Energy = -193.12977875 eV
Hf 4.498596882812332 7.222814976134745 2.0827943552925974
Hf 7.42921862725293 6.321751994285383 2.752891221508512
Hf 4.86840502258425 5.071993302443687 3.537815067613725
Hf 5.632070560902634 4.569320877601517 9.000474400856822
Hf 3.914367147411491 7.359546789289213 5.097462369620101
Hf 9.409599795630053 5.607695390436352 5.220234756303066
Hf 6.015956992750105 8.751430294351856 3.6271366924233144
Hf 8.57018791154927 8.429128936118447 4.40992490746939
Hf 4.700971156875981 4.520309758858911 6.251675917785878
Hf 4.098713117272977 6.83536527417937 8.018621584400744
Hf 5.303181935178606 9.301899172691316 9.154536061171443
Hf 6.262087310836823 9.325688679278292 6.358719741106773
Hf 5.208093441276271 6.774917675039137 10.598933235121672
Hf 7.175731533066593 3.8842038152803267 4.411120610851285
Hf 6.733306017583533 6.475573741926012 5.615244126718452
Hf 7.662814814697099 3.9102809910914273 7.135876240225817
Hf 7.1511919476935235 7.153762277625933 8.439845213077351
Hf 7.344999222590136 8.51248973468516 11.034159609599827
Hf 8.073357470634328 9.944121523522455 8.641163510675659
Hf 9.683188659623083 8.100224784710138 6.936146174657904
Hf 9.731296773390948 5.505244912613636 8.160361778739842
Hf 7.9528334314164395 5.565786540589564 10.642683820273371
Hf 9.693692543186403 7.785702179975356 9.72704948649943
