21
Energy = -173.64842441 eV
Hf 4.984652533500014 6.424657828100164 5.453883929621745
Hf 4.653566487395312 6.301000902001988 9.753714979741122
Hf 3.0909430912115803 5.7833613955812755 7.455881723847347
Hf 4.075972805335296 8.457101454126011 7.49030680295963
Hf 5.489712760933379 4.245180995672687 7.478470175260367
Hf 6.484332427603432 8.898236799898202 5.4855060556143735
Hf 6.130316714944546 10.632711618884226 7.7101828958993295
Hf 7.113941597108264 7.1453125719043715 3.2938172345662657
Hf 6.6925562054764685 6.990853755390482 7.911020420955714
Hf 5.5855907823607955 9.06158459119294 9.884080756983945
Hf 8.867867882050172 9.280873363548384 3.7408677888053905
Hf 7.672979477949212 5.356274624017733 5.475435660224376
Hf 7.425431778730561 7.228999090596888 10.715849854910896
Hf 9.80169163646684 6.4982621159522935 3.732986848706344
Hf 8.387425347008769 9.286653821850177 8.88699258972991
Hf 7.06275769939157 4.661657587239825 9.871745196468943
Hf 8.44123166400828 3.748635883450448 7.690877836234695
Hf 8.58748226828849 10.636054286184605 6.325724284826384
Hf 9.472804970284146 7.92897291328411 6.176205889309705
Hf 9.431119287744389 6.177886137576826 8.878208003643588
Hf 10.400159014104373 5.235244851293755 6.310246680781866
