26
Energy = -217.00697266 eV
Hf 11.138924538761373 6.072455773649167 8.267162698516865
Hf 11.460739261589788 6.5592254653317825 5.568092453840538
Hf 8.737728550401904 6.572283449783338 6.670218005712031
Hf 8.449410755160367 4.894088496023216 9.037865808682213
Hf 7.331928390490088 2.5669172551502135 8.049246360358238
Hf 9.497066496377755 7.66399544530519 9.670918710574414
Hf 10.382903141861327 8.834708251731904 7.073131123875734
Hf 6.508512075764649 6.948679892731466 9.664718539332878
Hf 10.1139693843909 3.9037067140100032 6.743760398272165
Hf 5.8351658087572265 4.075752992304674 10.083265128449142
Hf 9.649612444404811 5.014332554383936 4.173174576694785
Hf 9.345792414468736 7.987285987202178 4.126224966180658
Hf 7.51148530427386 3.9285377445887564 5.556069168494902
Hf 7.687872994909188 9.118732343032143 8.334545586255304
Hf 5.9817563594202 7.3830964269083665 6.331804450599891
Hf 5.557749393732365 4.749386002006347 7.456185561202722
Hf 7.6915945102548475 9.827760921622652 5.7788929207110815
Hf 3.804606898814414 6.282816721296787 9.143515791959329
Hf 4.527778620979487 9.023480118606203 8.37317254159179
Hf 7.135168592024941 6.075135076473188 3.5718852930869494
Hf 4.341971585642649 6.918916385181441 4.017354922388146
Hf 4.41865417913984 9.541417793635826 5.36699774527455
Hf 6.439455361916055 8.692876272429839 3.574840596285715
Hf 2.858502663865072 7.484171310976126 6.643354921597368
Hf 1.8311334606900282 8.381765407240303 9.140589904665687
Hf 2.1806752540610295 10.204488746060056 7.264481740277508
