28
Energy = -234.72986865 eV
Hf 8.203769515240568 7.1914227784846325 2.811713319928384
Hf 7.098410790103436 9.991743897812622 4.482144391422837
Hf 9.326836062600186 11.253871215883613 5.35592833220544
Hf 6.662336534801645 7.3077053935834195 4.918255303747459
Hf 9.779148469148565 8.378733123602226 4.823562033000472
Hf 6.473632833593658 4.737259686905315 3.6489431304956867
Hf 9.02184438156845 5.509808794999943 5.186519482421549
Hf 5.279003240952025 9.001542416948679 6.6228136353833165
Hf 9.553939893366024 11.772880953906764 8.083852937127766
Hf 6.8506967669122805 11.731240429484389 6.893575606624266
Hf 4.5419534607377425 5.629437288725127 5.774700756706317
Hf 4.599664023984976 2.9758538292601813 4.957688932365744
Hf 11.109096410408323 9.716029472943971 7.014172057458193
Hf 8.208793376703925 9.260400354289404 7.296244934803591
Hf 10.35924502239848 7.011708195900235 7.56797381838038
Hf 6.947546263210551 6.409301475427691 7.709117844785238
Hf 6.936453899144788 3.7256567177896582 6.31165297448209
Hf 9.159654870493315 4.467551201680842 7.935083390970087
Hf 9.964725850096169 9.29593239139385 9.671794598018765
Hf 5.862621384486969 8.784959345477176 9.381312447427785
Hf 4.36347427264125 3.7203828672053754 7.791231990178815
Hf 4.0589336452675315 6.431260770085605 8.766165774267787
Hf 7.542090651434901 11.142938260847192 9.795453128938155
Hf 8.800295965929285 6.3984431802072885 10.063663879925016
Hf 6.824398168648551 4.0566957910359775 9.54271585925676
Hf 7.723409271752933 8.8076608834547 11.382035231440986
Hf 5.977260737675923 6.426538244295174 10.951705370754654
Hf 4.112739085858639 4.291064356103577 10.582975462845608
