20
Energy = -164.98584926 eV
Hf 6.264208772893988 6.831418801640436 4.182503809891948
Hf 4.483822241573039 7.906594141995028 5.9823488653535035
Hf 8.3140471477078 5.164773703060107 5.3192253794611455
Hf 8.79718188583693 7.845649583909886 4.170798695376188
Hf 6.659370825720616 9.595276018965022 4.821520414718359
Hf 9.279108681832543 9.85565150442116 5.948845641407733
Hf 5.390886242675186 5.016916277582129 6.106147538186616
Hf 10.435501963441316 7.293317207978983 6.564013693796292
Hf 7.276729342209006 3.179820470748981 7.1573609932698785
Hf 7.377128453511002 7.655562677107704 6.91710424720801
Hf 4.969442099920275 9.094558876579837 8.571126435763464
Hf 9.741795720096102 9.375602255052302 8.652882779261333
Hf 7.199805905866865 10.629707100115985 7.570836500525574
Hf 9.218725281183225 5.142431318789955 8.069911353245667
Hf 11.059956892805932 6.964337573267911 9.364526310454062
Hf 6.399444553864791 5.312771826947737 8.906707279806488
Hf 3.9690629023667885 6.445149683596291 8.355328826239168
Hf 8.247128056210823 7.162757135729074 9.976147588917526
Hf 7.188248371147193 9.676580430102215 10.237614527891502
Hf 5.339268444431608 7.461987197704708 10.735912904521054
