23
Energy = -190.22269014 eV
Hf 3.883431106119561 8.686838031628504 6.702870906453974
Hf 2.888121272227162 7.499440438793184 4.091450894716893
Hf 3.696587216957394 6.896494779067694 8.722942103733756
Hf 3.8953255070264103 5.759178626311852 6.024988369326621
Hf 6.137800256146838 10.110604847775795 6.525174242838242
Hf 5.921494444543157 6.337011074666412 10.232683603037135
Hf 5.553233221269355 8.179369704186403 4.390463077043976
Hf 5.297497339307891 4.333690135811677 8.379534171278369
Hf 5.5551088851594095 9.100026948625585 9.260626100762215
Hf 4.80760273485536 5.634157027282905 3.3244526138281665
Hf 6.132340672573596 4.075195333316383 5.638726826332374
Hf 6.559290002645813 7.058357067725609 7.368296335508988
Hf 7.456086507819465 2.485872477802317 7.720544392355635
Hf 8.177531394224621 7.892157411240431 10.048433944507156
Hf 7.6111535469065545 6.13832870605311 4.304080584342132
Hf 8.541784641036923 9.633604005962024 7.919483665240206
Hf 8.062968000400401 4.8515011287176755 9.184764545282778
Hf 8.53982435237953 8.631169397870073 5.2998381675299955
Hf 8.8100527949927 4.682600699651386 6.357233611497278
Hf 9.842534976895406 6.987976893892137 7.597973010087025
Hf 10.854889763716518 9.022725182283471 9.337502928528592
Hf 10.640420541011343 6.796613424958191 4.858606013021587
Hf 11.11954684975831 9.195784736041974 6.543395840434669
