21
Energy = -176.39171429 eV
Hf 6.591133571412547 4.585629826472056 3.0837814052861696
Hf 4.202480384152154 8.655260816460357 3.3390887613715856
Hf 6.276502114242819 7.096442777951561 2.2037133219829843
Hf 8.375187527447107 3.8864240492873123 5.0006118382045335
Hf 8.44566214401198 6.649082633347337 4.255422202485896
Hf 3.8879139238715825 5.6213998649109005 3.6387932758350225
Hf 5.4473257689369 3.23676172987111 5.347091973128205
Hf 7.043098503401077 9.213675895303915 3.940389733713812
Hf 5.019860718309814 9.752799432374795 5.828186909638588
Hf 5.7182349965899375 6.966367432044357 5.032600796849408
Hf 7.56712521518998 8.372844507438899 6.749402524840246
Hf 3.031208912929558 7.699876127404815 5.760949184656227
Hf 7.714768058366327 2.654358957589344 7.272970780421691
Hf 6.420012258704679 5.24486178711316 7.1659551998101865
Hf 9.086731715499141 5.44177292502934 7.379331837196291
Hf 7.230640828936863 7.015571444962971 9.256810344909775
Hf 3.5493874697754784 5.132166737902375 6.9083472116098275
Hf 4.776663613544425 7.880681769809585 8.046867427744337
Hf 5.076121822708352 2.997215450833853 8.250471663676022
Hf 7.419145475726675 4.192502970886745 9.605330478844227
Hf 4.859411599362387 5.442919486124386 9.672499750914296
