20
Energy = -163.93733963 eV
Hf 6.144796818274466 10.54601929487828 6.703603223296025
Hf 8.625434679441492 6.133709924951792 6.485035471319011
Hf 7.439498141868953 9.625685279854356 11.38633037378985
Hf 9.835794225427296 9.614380870086991 9.810213379936533
Hf 9.324011549257966 7.5679436995973415 11.823393488451195
Hf 11.386397428850312 9.824330390456538 4.958251010534431
Hf 9.35221160667744 10.752742746398702 7.111046718099623
Hf 7.576142355824211 8.543925198059275 8.036219199312304
Hf 7.565968148916408 11.318915356024961 9.194280385701765
Hf 5.291014945172722 9.80207334909468 9.51429171072716
Hf 7.7653911958387605 4.349020730155183 8.922223482418678
Hf 8.637550599403736 9.0041267099638 5.116561012627878
Hf 5.866569096212869 5.908797658068957 7.559829800161933
Hf 9.78308553195034 6.25259799533701 9.2938774114568
Hf 8.739966011179487 4.88798593930967 11.466560526091154
Hf 10.56313159223381 8.160156915702707 7.1455462209690275
Hf 10.82117168545045 7.267521325752315 4.518124232905222
Hf 4.459834573425728 8.306527897196158 7.44389424487285
Hf 6.945090564400275 6.7727021571760835 10.363961385619879
Hf 6.196132302192114 7.6800296139341455 5.465949773708594
