26
Energy = -217.82501705 eV
Hf 10.354540100747005 10.224893534587558 3.829649749825596
Hf 10.335005279895078 5.613865633316354 5.790461828394531
Hf 10.641391086705418 9.066505517096456 8.578819834900083
Hf 11.31776224283443 8.51548744281164 5.859034081254341
Hf 10.456247330767017 6.120379598482311 8.687907671343499
Hf 9.290868390548459 10.74001185293027 6.554750694437073
Hf 8.268288748033832 10.348978145930403 9.36733974249357
Hf 9.752880495123614 7.461272137801206 3.724562545386382
Hf 10.0415551421204 3.485414519936235 7.90095281876844
Hf 5.822693410625467 11.51290281243993 8.708407707103772
Hf 8.589149721249438 7.648799768567484 10.278864976964737
Hf 7.779634036326157 9.317407445966206 4.391547785203748
Hf 8.689195731660988 7.80998714479188 6.938913205789527
Hf 6.037306249492427 6.84136357500923 8.288127001610755
Hf 5.87543480371399 9.096303318264829 10.35383232909004
Hf 7.770825647445681 4.712455784047487 6.9496193828917265
Hf 6.480229948313666 9.596829904017099 6.94866038985484
Hf 7.2472572029475515 6.427094422378642 4.783009532396519
Hf 4.727202781576693 7.634239780422735 5.673581846313412
Hf 6.222014232196028 6.237441460312536 11.198259889571204
Hf 8.110291123844112 4.740975328833341 9.8041666753025
Hf 3.802145932913591 6.999121250122906 10.183166423730997
Hf 5.025182270502025 4.7994060877046225 6.15997902231656
Hf 3.8835792032977667 9.066517047507476 8.106148843965899
Hf 4.977584462700652 4.434301077946258 9.25773439377926
Hf 3.2115556333838744 6.17530534488843 7.628189647909028
