24
Energy = -197.79145661 eV
Hf 8.03584482992621 9.138526599355892 4.647860114968456
Hf 5.415157230425295 9.269694237635981 5.65788188265688
Hf 10.763390898114656 9.047806924044844 5.760851005578967
Hf 9.51166924185546 6.661125531695332 4.907225584004353
Hf 5.448368109511317 9.230239053659794 2.8816201078496073
Hf 8.593804481175221 9.905093167372307 7.4457538163002654
Hf 5.71019914920943 9.575110832374712 8.688072236977346
Hf 6.405161124180761 6.887809697959027 3.985187701950514
Hf 12.018545100737722 6.621989456346573 6.1230875784837595
Hf 10.225603358234393 7.532081147555076 8.200366443843194
Hf 8.058839946714643 8.456079715140715 9.807495285487727
Hf 3.631822948922995 7.613192894957539 4.33057904109996
Hf 7.227375117132574 7.192191818857036 7.117687286323625
Hf 5.647144816315603 9.36886669349622 11.535969055968888
Hf 3.979371754825973 7.563655724891431 7.481280648996852
Hf 9.905133072936728 4.876595728706026 7.206819567615012
Hf 7.537193208565696 4.351043231879155 5.795094002045843
Hf 3.413191688539745 8.777044891678445 10.151723128400219
Hf 4.875371009058574 5.352314865746713 5.7865134367803766
Hf 8.285410617631351 5.458785558395193 9.473342319436512
Hf 5.647588390423191 7.019564474265316 9.951193273436493
Hf 5.802044981895756 4.515230182180029 8.294427040959016
Hf 7.967994835294423 2.717300642712328 8.081294136598135
Hf 5.646667811564742 2.4356293648836176 6.486939071753256
