24
Energy = -200.17137946 eV
Hf 3.5065242225602815 3.678634371518673 5.174486340476922
Hf 3.908344006639371 6.630566114573255 4.732735581755827
Hf 4.390006526794854 9.494334693331702 5.232401489288544
Hf 3.761554005225318 7.941994987974304 7.600043318123915
Hf 6.09587653970014 4.517747222888314 4.611468012766145
Hf 4.736373682787045 5.171922993207954 7.210752171042859
Hf 4.750152646387554 9.411763470847303 10.01536226213572
Hf 5.643105842718279 6.8547493852212895 9.546303468581451
Hf 6.214706659943048 8.029117666506417 3.3707033205678893
Hf 6.240248467129205 7.512216497342517 6.0184761949907815
Hf 5.563303234527264 2.438790541904688 6.523002713502862
Hf 6.112535832128612 10.028756223752554 7.78613237982986
Hf 10.41271714939101 7.90487602558851 9.30651919262428
Hf 7.338275072928808 4.328170622075722 8.059041502040955
Hf 7.020200923272928 10.281933802537525 5.070579606485355
Hf 7.729360191727963 9.00661666295278 10.051145747657513
Hf 9.059259267004938 9.859599131652637 7.2574805030338725
Hf 8.250119501685111 2.8739493856302465 5.786062984500681
Hf 8.827616687418947 5.604685387684196 5.415893156339263
Hf 8.37351662599909 6.111897009385217 10.358228769545578
Hf 8.192033453893611 7.215390068377735 7.815054043253249
Hf 8.937698576639349 8.418278632110113 4.590811875942599
Hf 10.099186625754085 5.1648284551200865 8.1035795471043
Hf 10.777163274958678 7.489321422533636 6.528532448387586
