21
Energy = -174.56983462 eV
Hf 8.854031182291648 9.018424141058626 4.047456066467706
Hf 10.192685532503113 6.889575951484655 5.606892455811377
Hf 9.72082031430524 9.478857227471243 6.762070442275317
Hf 5.910854353971399 8.72108623396513 4.058163797103143
Hf 7.206592363235196 10.553424659757194 5.85304908312394
Hf 7.243770395398865 5.613476869065224 4.473128480711821
Hf 7.567911826718639 7.773042601901139 6.133876296649972
Hf 7.449235124014077 2.826629359287421 4.9348553761238785
Hf 5.066460820769921 3.8459053348596584 4.073834127988736
Hf 8.78170790745971 4.737038697584658 6.874298026665893
Hf 9.460073897385183 7.05080702356246 8.534798856169633
Hf 4.547023617689753 6.547684858899936 5.342607878298007
Hf 6.347204274211489 6.614436595941792 8.131135126407317
Hf 5.848117039463066 4.28120755321123 6.755467349741798
Hf 4.784685491207251 9.050149434374747 6.843268736554654
Hf 7.414366937063488 9.555325511647764 8.66168431421099
Hf 7.842285936108404 4.734577195820891 9.595948507180758
Hf 3.536189962469766 6.575094366812116 8.037593018519647
Hf 7.382003561992031 7.345826994449842 10.67325950466057
Hf 5.1089094520946805 5.605153187710905 10.362310180762446
Hf 4.882807892789429 8.414536080112892 9.768919112996207
