29
Energy = -241.70957079 eV
Hf 8.560658902750157 10.752725213326208 7.808238640946307
Hf 7.2676446503227075 11.715452218559085 4.89885253587157
Hf 9.604423525111418 10.358155215684642 5.280884668191993
Hf 6.855967592875688 9.16716371558455 5.94366771654492
Hf 9.042766639780458 8.728107300485096 10.011715460017863
Hf 7.8660684829787195 9.338858218853025 3.2402782353346145
Hf 10.415843378254694 6.159637890450097 9.020434592028966
Hf 6.441528219437144 9.324454141568756 9.00665047352307
Hf 10.521647522882404 7.931305641553123 4.214044028145986
Hf 9.383588698477903 7.955865216157283 7.148895205122304
Hf 5.136648208965025 10.161998741301183 3.869259750866409
Hf 10.889036462550234 5.746201098511325 5.883408662487545
Hf 6.441913352829672 7.6969029214671085 11.263758850073723
Hf 7.511133810264631 6.375374695852133 9.159820502423674
Hf 6.062322385373726 6.4811713750756885 6.657000925787773
Hf 8.679138069216702 4.5945028742810585 7.126756182630697
Hf 4.344454465684011 7.170311025265835 8.976793514721322
Hf 3.8731625783876975 8.477753311895713 6.209757291634145
Hf 5.437698130683797 7.389685876875053 4.000634604791756
Hf 8.163684825666085 6.46607509429224 4.638872771310922
Hf 7.534823753119315 3.2953119971549127 9.421857234238193
Hf 1.6735426179062165 7.2279302977362505 7.891499256049272
Hf 5.308672519717647 4.914841742197427 10.457113103711063
Hf 5.2592791848459095 3.7822598250083725 7.811523877258988
Hf 7.4949345226626685 2.073065707832947 6.750021288731878
Hf 9.126211140397466 3.6487230403921154 4.564095893222369
Hf 3.3590869574298368 5.653784038136336 6.393978257647505
Hf 6.39079284937263 4.121923042969856 5.046581762498814
Hf 2.651299645437836 4.864619971258899 9.065931346992421
