27
Energy = -230.49670413 eV
Hf 10.216241980337214 5.420621293624231 9.082866473017999
Hf 8.486053723482998 3.179564463353907 8.547744864635137
Hf 7.598560981543295 5.295822286588083 10.47095984331098
Hf 4.777208664067259 5.897624558874439 10.314504212519699
Hf 9.923514271485812 4.484284786109884 6.222359069379835
Hf 8.925262921651766 7.88511144699506 9.723217622638407
Hf 5.579116001880902 4.010202230389746 8.330732984497025
Hf 6.453643028435623 7.979070368767846 11.210248000347676
Hf 10.272266026956485 7.534900367806831 7.077638281151195
Hf 7.8050392155316235 5.69259373590118 7.583821072898192
Hf 7.1876306884482455 3.2415018497312453 6.093277614390212
Hf 8.598044104893004 9.787524141988783 7.653015544223266
Hf 3.96382644430313 8.525764256516473 10.01195934282235
Hf 6.210406449196268 10.31742750821655 9.341797515744101
Hf 6.062839854260575 7.773885991972476 8.231248060487088
Hf 7.3449693813591415 7.501125063727248 5.364695129351464
Hf 7.929745331518044 4.949378046809478 3.900808022773876
Hf 5.148623081170369 5.16486190199513 5.526752774982289
Hf 6.34413150980583 10.373512698476684 6.220583017934399
Hf 10.151038174471303 6.803453001704001 4.402145890965581
Hf 3.5043256852911573 6.568392298041035 7.770785434625318
Hf 3.9082039296806936 9.659011710810022 7.543791740550262
Hf 9.064231097503503 9.572410841560266 4.744473890344188
Hf 5.620526948796455 6.676401501024893 3.1200159787220354
Hf 8.245144334176107 7.6177259661913865 2.652027976074873
Hf 4.312882333476614 8.033682747951575 5.25295679177507
Hf 6.260784200408173 9.437043208081326 3.498018004506393
