22
Energy = -184.51786785 eV
Hf 10.603717846338226 8.143374440870971 10.42805863282338
Hf 10.163951753070618 6.675430273377984 5.868835125985311
Hf 4.845900044954781 4.958573875273294 8.024975762532547
Hf 7.549841454545564 5.055636354689001 6.564350887600608
Hf 7.991132245292175 6.963094364030661 10.979733466093235
Hf 7.498881714727165 7.622615054551059 5.074365918832064
Hf 11.766439452906322 7.7636505903409905 7.980847220040527
Hf 9.788517018795197 5.716297907035159 8.784863155968942
Hf 8.41153326185403 10.429363770141762 5.78846985940692
Hf 11.219921436105897 9.518340248596402 6.001421729862632
Hf 9.734933421356267 8.830802546160976 3.8296433986439444
Hf 5.70836405214608 9.329824844583287 9.905067253663068
Hf 7.5263396594242575 11.113350989413805 8.386156482610488
Hf 6.609236362677768 7.142052716097859 8.267792684359291
Hf 10.534408148369737 10.574601801052257 8.69185854358799
Hf 8.458227891838341 9.825715948793135 10.62862724415305
Hf 5.119141038713666 6.354739103092678 10.520809127995815
Hf 5.032420537795123 6.751504069719096 5.844677503785598
Hf 3.8799786199967383 7.745750538600979 8.242046710902468
Hf 7.218506616353433 4.622831088477389 9.503887639391426
Hf 5.63961256102215 9.546929500016539 6.781707297950605
Hf 8.981424410826703 8.454283903902427 7.940320680539837
