27
Energy = -228.97367033 eV
Hf 8.221357589660547 11.15208179563514 5.4640720037719435
Hf 6.360152803952925 11.051391707273051 7.77035085291555
Hf 8.989905325660464 9.697355363224803 8.058368267804127
Hf 7.159626315729091 9.446623626381657 10.089824096681458
Hf 8.16610746653945 8.408950319639994 5.7873935218077825
Hf 5.677311395326393 9.83553496377279 4.932557509068818
Hf 4.463523234409123 9.795835896226993 9.64583534397182
Hf 7.894052988522786 9.355982311333593 3.229246488468495
Hf 9.333541077783115 6.505194359072829 4.229122481165584
Hf 10.285394903647887 6.656927015474148 6.873684258798182
Hf 8.491442522200279 7.009485951398627 9.25413114569177
Hf 3.731096098365603 9.954079980995523 6.96809409000755
Hf 5.961219627428543 8.060919894640332 7.744605832930546
Hf 9.744288093450852 4.608513532675597 8.531524672100005
Hf 6.286989803985278 6.9828349278276285 3.98118627805176
Hf 5.431939210594455 7.056321590007609 10.33807716862167
Hf 3.1621057357694835 7.661677724181906 8.475362505930674
Hf 3.920620518585315 7.202127227756179 5.7480274772980176
Hf 7.4837271641289105 5.180849580066583 6.56289091847778
Hf 7.594243974392173 4.5563485987947265 3.569967986913516
Hf 4.505738814433108 5.282606710969208 7.996082095793961
Hf 6.953996593492143 4.413068153964623 9.479116797287384
Hf 9.842136615851484 3.8734969051981243 5.599367044943293
Hf 8.370974710316116 2.4695647369321105 7.74537020140429
Hf 5.0045739550897546 4.385782426151871 5.063959957171005
Hf 5.638240551871534 2.8098882599926283 7.460044208014127
Hf 7.204717218963813 2.4623722762692264 5.213440424126539
