27
Energy = -228.81224303 eV
Hf 3.501376468704293 7.6381603831165705 9.279553201167504
Hf 6.034631034507188 6.704066978821431 10.561429795090922
Hf 5.617376816535149 9.56288196217048 9.923071278106868
Hf 4.448690493823607 5.014661012636449 8.38456134621902
Hf 6.712441069379771 3.888327207825959 9.94188650658229
Hf 8.353568935822189 8.526712525279553 9.408891057865754
Hf 3.9099816956176423 9.915489744950058 7.578710264252708
Hf 3.4030015233031423 7.121377870024002 6.369274436129364
Hf 5.8169848955827925 7.93082267049563 7.655199455950268
Hf 7.4914298259658265 5.7231879428780195 7.975063394783568
Hf 6.911319190006093 10.600513860121312 7.499412710527071
Hf 8.885659560535608 5.810243529955281 10.42024699480969
Hf 4.21508603070378 4.164754601487983 5.556129791937269
Hf 9.726664139770339 9.589214400581259 7.009978934922435
Hf 6.629124667207088 3.085364061044486 7.085988848790908
Hf 5.26225609441361 9.25614024975411 5.054333204627923
Hf 9.245906688997675 3.671921634671995 8.522019955507524
Hf 7.993181974620683 10.295118968092664 4.804492497623511
Hf 6.1142369100653156 6.187030320428734 5.302782204975827
Hf 5.187566933501396 5.7259930576194975 2.9400224428261312
Hf 10.20689723558298 6.525740475301174 7.878413338146909
Hf 6.713730032093934 3.603226370082078 4.2132001804648285
Hf 8.212369816456274 7.591356977758812 5.7961882287284014
Hf 9.043204399515767 4.469791513722986 5.742474106913365
Hf 7.175686254036742 8.25900823338943 3.0052717496761923
Hf 9.979171697135156 8.354862331027855 4.053183765089576
Hf 8.207920302971596 5.773150481866891 3.132122714170188
