27
Energy = -229.23526426 eV
Hf 2.1491981764097123 6.653207968122053 8.242022300614796
Hf 2.8773815813763335 8.728264530624337 6.538829723671523
Hf 2.763938594481981 6.056180664966961 5.452227868570799
Hf 4.190615700611298 8.739894458221125 9.2231782391086
Hf 4.229267388567156 5.846952367263768 9.97022586985418
Hf 3.6082839366445865 4.172059248405103 7.651992979646529
Hf 4.837519080116485 6.656381410403769 7.226174535135419
Hf 4.798906310828115 8.099552891078018 4.5855290649264004
Hf 5.3878519907161095 10.20965460017514 6.690453151345414
Hf 6.756494130997638 7.239506168275087 10.204990743202181
Hf 6.77750387503051 10.050192004760461 9.391142751521606
Hf 5.196752804777153 4.53718528378024 5.230866125507072
Hf 6.3763291887376425 4.548950682898053 8.784940461876856
Hf 7.150064552610167 8.119603528454613 7.409269173481089
Hf 8.287602666893438 10.651594438449825 7.1003090726050155
Hf 9.36053885838154 8.635009792819966 9.099533934835662
Hf 7.575246406050872 9.182921264583108 4.673834821265289
Hf 9.059523005550064 5.622452141162962 9.2772401643023
Hf 7.016333233804493 6.268584399680964 3.944844859388193
Hf 7.648080407720441 3.643897344938527 6.424825056602677
Hf 8.89557504861326 6.30107107803774 6.333114413870956
Hf 10.352977547996254 8.864107089597079 6.1155124349680685
Hf 11.277244049204624 6.728845312560917 7.989887799479889
Hf 9.565712896982916 7.327505331056617 3.678813784717088
Hf 10.452227826143462 4.107132901255674 7.072598003666892
Hf 9.397851000237376 4.469029518252591 4.269998143574454
Hf 11.567713922943513 6.1525014769202855 5.292572751465363
