28
Energy = -234.81237404 eV
Hf 7.53582949501614 10.013428012004498 10.029839278365937
Hf 5.501957168401124 7.849481553705162 10.881532786650304
Hf 5.502754817248803 9.168693732770377 8.194337327564938
Hf 7.876603776317504 7.430351536348556 9.230856562658252
Hf 7.666293749561659 10.96805423036756 7.443668710546878
Hf 3.9814712390885334 5.094895946639775 10.896119757875635
Hf 4.371922000407556 6.491431364060015 8.638456162310217
Hf 4.7701569518328135 7.779318959471258 5.49844425440623
Hf 6.527072055409784 10.306697171610134 4.833050783818612
Hf 7.962556108645232 8.143774153416777 6.239044137399633
Hf 9.38594076927621 10.444568790701327 5.316210327205537
Hf 6.60464067116045 5.243549125572342 10.382446747856944
Hf 6.558093436802364 5.7635593079531064 6.998952234840396
Hf 5.324994616135203 3.5764093699452 8.469640328311105
Hf 3.970631137760265 4.725006653625416 6.009381559404755
Hf 5.5993603516527655 8.458487770328825 2.8076824499888016
Hf 8.45415675739057 4.17235037399568 8.351291664678184
Hf 8.450436165440872 8.718527843216155 3.3251883274530893
Hf 10.041544834381531 9.362332968038187 7.964393487467161
Hf 4.401957605876109 1.9935372045286994 5.833330073724574
Hf 4.073966964729038 5.927038114531621 3.3045489998074484
Hf 6.855382037003383 6.173959863474053 4.048308427739199
Hf 7.105777700630618 3.029165735121706 6.059550667842555
Hf 10.63377225565922 7.812824513612759 5.34617849214533
Hf 10.16303835475129 6.472809070624928 7.774468002513962
Hf 2.87730318614199 3.276768983364183 3.886868657271494
Hf 5.585573071600596 3.5039291569891677 3.7372857390135503
Hf 9.220422623984613 5.1097714694094325 5.5685941163476365
