25
Energy = -210.66382096 eV
Hf 4.828377866514076 8.986781546087192 5.114427373152063
Hf 7.691768802505935 9.181438664273553 4.071187934079281
Hf 8.838337944821548 6.489495206209415 4.9452551758685
Hf 6.286982980942622 11.129102769556221 5.913767970650124
Hf 6.135422078605398 6.763811341432423 4.3536408081336475
Hf 9.144425853744027 11.089099643948199 6.020130903221051
Hf 4.578386227302826 6.619967595868853 6.8985435380312214
Hf 10.21190475958927 8.489907534810552 6.4232145911120595
Hf 7.214440804903743 8.443139908315011 6.73363039835327
Hf 6.82707055871279 4.742149569521957 6.092091857266847
Hf 9.956717026930477 5.948491639872987 7.64707136324367
Hf 12.160569045464822 10.43433605401248 6.5593706081512595
Hf 5.289633470014295 4.208087512810864 8.387926725956271
Hf 11.895237888353524 8.288569101120299 8.614093272027139
Hf 4.749591491764605 9.48641683500361 7.919704584252461
Hf 7.199909749884967 6.320515550432305 8.722165157037722
Hf 4.708723948215639 6.619103901643092 10.04483562157433
Hf 7.485803552408471 10.884859745654781 8.483962535855854
Hf 10.370769547600391 10.643161088319221 8.53913566258715
Hf 9.409208184982008 5.473777575194039 10.401418278232724
Hf 8.196906490570111 3.6225423383220785 8.436906549909184
Hf 9.198234097802148 8.392024686000541 9.806785997999912
Hf 6.3144250821329235 9.058793752031704 10.171437507271216
Hf 6.690025603026195 4.386807778571622 10.785233969393103
Hf 7.300699692530773 6.981191410310704 11.597634365963648
