26
Energy = -220.89812398 eV
Hf 10.709956881989122 9.554618174982833 6.858120616678632
Hf 10.530464675182802 7.332791086357071 5.173787023216105
Hf 10.47460443080408 6.686733878856813 8.051149076754285
Hf 9.021305934977642 9.72291960143207 4.566553469354006
Hf 9.543633604708708 9.242161135183506 9.265602704004763
Hf 8.033563030122155 10.888703380783564 7.276003957414088
Hf 8.152508305626208 8.233783071012345 6.801204775856801
Hf 8.27067493795753 6.7586216421956795 10.309164099096224
Hf 7.886893621899308 7.017301924290734 3.9911838485138897
Hf 9.271660995228585 4.830510411285844 6.0169925343890736
Hf 6.866927272661313 9.263800688883732 9.508046267617777
Hf 6.135887578547293 9.094679303264346 4.764869950343667
Hf 9.105033754037946 4.170843199445877 8.843831193575335
Hf 7.234164221363392 5.9142033717279725 7.8301010828517486
Hf 6.962349152483624 4.420805946472462 4.404221678418842
Hf 5.05487145136094 9.302908625564742 7.380356181029691
Hf 6.466117175786789 4.3590028933822405 9.97145306967996
Hf 5.293702814783567 6.543655871424098 6.060624302971548
Hf 5.199844555805373 6.959561875536487 9.681948577328908
Hf 6.804865893596036 3.22076495160673 7.126392911017721
Hf 3.313057779897811 8.342895117907954 5.150716038185334
Hf 4.518055328048737 3.7494357609083333 5.289467780799614
Hf 4.663641199655847 6.121948882571152 3.4632388567391894
Hf 2.972963155169941 7.300609022189903 7.82629569000826
Hf 4.1549311882553175 4.612027025846354 8.122263546840879
Hf 2.6041084983611316 5.619369375619423 5.624162600896882
