23
Energy = -192.64973418 eV
Hf 5.407607322727081 7.072836367176783 4.208583956872793
Hf 6.020657962451183 9.90714877574503 4.803927783717746
Hf 8.055442947102351 8.265184328589667 3.4901957986504755
Hf 2.885505200157846 5.9941516719440155 4.979271430376009
Hf 8.72873730982269 10.331906708087976 5.352443521060095
Hf 4.709766330922427 4.494850202350189 3.460556395767745
Hf 5.0202059874447915 4.8388896294801 6.219355159671201
Hf 5.121918419019614 8.331480535023374 9.405565486886134
Hf 7.696452515262635 7.867099208148788 6.240499889233178
Hf 10.337384298548622 7.799946899582417 5.5107474477233716
Hf 7.636024400755211 5.348686651084814 4.544334774549472
Hf 9.577032313082865 9.567279822769791 7.846084998077291
Hf 6.693808190084581 10.10118230092541 7.707524768432573
Hf 9.574722278323954 5.066695025162711 6.638987076281262
Hf 6.733082779186617 6.189605852921939 8.055086000264255
Hf 7.481003441135412 3.408340079574465 6.956029184119207
Hf 4.438207509627857 8.15084468034854 6.662917947091662
Hf 3.8494203591030898 5.952295319248526 8.723490801206326
Hf 10.114688512377509 6.965720258029679 8.354904065454894
Hf 5.712639556501741 3.746311467957771 9.05525373355406
Hf 7.977340099432218 8.180367664789696 9.875689972751942
Hf 8.528602755747082 4.68583263589088 9.483858654395084
Hf 6.023182285469113 6.020207950588421 10.748446258073612
