25
Energy = -210.80541546 eV
Hf 9.850502091397535 6.070625988834112 4.426078948533796
Hf 7.170533555103522 5.921286825108531 4.293422010416014
Hf 5.688482048726309 8.11496056915082 4.922109746920663
Hf 6.97397687969928 10.370004476920492 6.163972746902843
Hf 8.36736663752921 8.62283492747494 4.158778216417701
Hf 11.161092116823646 7.5600790751105675 6.484777844542414
Hf 11.37979532685946 4.746399765850414 6.503041144248548
Hf 9.731789646909387 10.036499811155227 6.395933853034588
Hf 8.367637848684463 4.446328174771131 6.425138735683419
Hf 5.513083456477659 5.827188041953107 6.754142139200226
Hf 4.562729501007254 8.68072223076479 7.427411637624156
Hf 8.04964912149493 7.362913447957648 6.717674951903161
Hf 12.532258340715057 6.356241373103989 8.540889568719814
Hf 5.564685388232782 11.324869381933626 8.384804120734104
Hf 7.198640268180056 5.053464227535553 8.902943091515477
Hf 7.024792789754186 8.805590948657452 9.133402270931965
Hf 9.914215428441844 5.806783718052782 8.773981422576533
Hf 5.12062878852419 6.728801061304791 9.831380778404785
Hf 4.336863400193301 9.523141431139827 10.135546007798222
Hf 8.51093916029789 11.252144325253461 8.711870043368798
Hf 10.35560399574716 8.800059674023982 8.906048167180003
Hf 8.902649466292242 9.46123718482805 11.28015119894715
Hf 7.997322923431008 6.648587302874825 10.975442273232698
Hf 6.622898082350502 11.113606999790683 10.938935536634373
Hf 6.237439589680432 8.501204889002981 11.947699397081934
