22
Energy = -179.14346495 eV
Hf 8.88077233297412 4.686975292848945 9.24063785803303
Hf 9.17525717048278 2.8282079307806702 7.066532805883605
Hf 10.061654579908726 7.327387276327644 8.808713011387725
Hf 6.156170525147322 5.001010233865963 10.146918611823898
Hf 6.6429665455316576 3.8662227499846624 7.594154201105231
Hf 9.48886326882774 5.594771329476203 6.576506331669061
Hf 7.178449416727625 7.221955406599638 8.565281806242556
Hf 8.784998045122368 9.938596539142324 8.500814514293141
Hf 4.716660489410468 7.424186660087813 10.117750112831741
Hf 7.7233379995568034 4.048989574825301 4.907177889485083
Hf 4.270437181077394 5.565601903868878 7.967688629683841
Hf 6.392134331479556 6.791060900794338 5.604801449593568
Hf 9.030913130781375 11.102452352152374 5.8971594862092935
Hf 9.522068190652803 8.403921382536138 6.153759673578102
Hf 6.09275937764789 9.783085363080888 9.466501377586985
Hf 4.895136794191946 4.298236044624134 5.401923134997094
Hf 8.773294979056883 6.61729535338206 3.9748063511857854
Hf 4.227470684007234 8.558741533625822 7.54501332131874
Hf 3.486245011108014 6.747200547701488 5.45960790222376
Hf 6.523484094815473 10.243941650161428 6.696846799861115
Hf 4.827770241876562 9.10455931667677 4.720698771001398
Hf 7.624912272832979 9.308527861910028 4.163629403828437
