20
Energy = -167.67140627 eV
Hf 5.558264597315461 8.324564515673028 5.30409207851713
Hf 7.492076014841945 6.406813744992994 4.170109201959455
Hf 5.8034679357537 5.252887827306253 6.2959500398773764
Hf 8.85462203637669 9.056335046644996 4.982082603693252
Hf 9.27797809352472 9.903376410295742 7.858426719428233
Hf 10.296372109223235 6.32839195324619 4.804535309312892
Hf 8.519734290099318 4.291786484476963 5.858907764731707
Hf 6.917376713029387 10.49395238819726 6.6760263088777165
Hf 6.287787483821544 7.731309491183829 8.007163744164691
Hf 3.615922384653134 7.133417553639889 7.31573815805015
Hf 8.500577247207836 7.021754377064547 6.764604877069142
Hf 11.112427893049714 8.090355913466276 6.921898732003428
Hf 10.585715715445328 5.3369604775048245 7.567615061268353
Hf 6.9152287866927 9.818885506433768 9.623636224272518
Hf 4.972211663973504 5.393510820265167 9.133171231365278
Hf 7.773601073023815 4.840590715585492 8.692863982698103
Hf 4.459076436690244 9.858178960382993 7.708573631352551
Hf 9.502308822386144 7.488653026834476 9.418964226864672
Hf 4.388885404577016 8.094734367110487 9.977229029388925
Hf 6.910324241961537 6.877499363341644 10.662370018751677
