29
Energy = -245.95034495 eV
Hf 12.087192744751265 7.648346169203803 9.881696106306334
Hf 10.64026185380829 7.574153194371886 12.253804342174815
Hf 11.194182654801669 6.372672702736117 7.431209817445201
Hf 10.79757187565089 5.218340249003487 10.276525632713305
Hf 8.774622795578514 5.977545307304023 5.3642905775374015
Hf 10.940349816368343 10.203863927866484 10.645501932920084
Hf 9.294431464158055 5.128001412653044 12.6612370546287
Hf 10.898241095553178 8.169221669822214 5.14973559016455
Hf 11.543583040950137 9.38732292411101 7.765920609711351
Hf 9.082441503564285 4.655237710213676 8.055798142241246
Hf 8.746640142672042 9.71992320393964 12.303988385588838
Hf 8.879369719177902 7.402556507292175 9.921036698623247
Hf 7.548304904185439 4.849383413795254 10.462146254380166
Hf 8.628120801000229 8.026761531312502 6.939848555876714
Hf 7.393483129493191 7.20286000108037 12.43734071770749
Hf 8.483985416497953 10.204740994663688 8.767342634487958
Hf 10.057068165317935 10.891664177290288 5.854370933739215
Hf 10.637136376582715 12.114970167309577 8.459484697878251
Hf 6.578946364599388 5.843921121177747 7.692341682779439
Hf 8.36861942684931 12.114114901021804 10.512030626342268
Hf 8.369863138907991 8.93663464951142 4.195846619721608
Hf 6.324889482982596 9.679819587551679 10.91071791259418
Hf 5.7124388377861095 6.923497377260548 10.242550219746041
Hf 6.201252000496944 7.632232817955573 5.414206081623075
Hf 5.60046590907568 8.710882817911278 8.103520510697527
Hf 8.119069865957325 12.723928399224977 7.37292333374518
Hf 8.039190661582127 11.951356002530108 4.429380084630001
Hf 5.939839768040311 11.582784743662483 8.728592305000026
Hf 6.484033375002643 10.485248564174775 6.0572986163680405
