25
Energy = -212.06975839 eV
Hf 6.336885745255114 5.867322977324829 10.141481036249129
Hf 8.108007173116805 8.459642366003596 9.531761532356557
Hf 5.252269985170412 8.299077162873234 8.769471626209285
Hf 3.6196652013124697 6.098959719595144 9.225326622261921
Hf 4.540005097031518 3.565571903594218 9.21364282889187
Hf 7.3087335663473025 3.3938079489126065 8.879995997329724
Hf 6.645676732755832 10.572300548105254 7.8455313853604745
Hf 8.830305955412385 5.703874192411815 8.432850954679484
Hf 10.517163850005753 7.921214322826839 8.115165515222849
Hf 9.33478679806754 10.407699551063986 7.804660915717457
Hf 5.842491554480291 5.564876953503167 7.229224773341132
Hf 3.146374340939961 7.420793827707932 6.9292968398844845
Hf 10.630837126840584 9.274942922017336 5.6684061655209055
Hf 7.876698856360069 8.109623283639941 6.507381754384865
Hf 3.2745951358194096 4.5004050322255 6.635950765729132
Hf 10.065824609762123 6.2601653620088005 5.724040723276049
Hf 5.575695262047265 2.583933666148495 6.873991661049894
Hf 7.968505601697435 10.598442554794886 5.135146823590267
Hf 8.090667481689385 3.791435715702327 6.169793960100703
Hf 5.089390045883567 9.331593633161946 5.876349579224685
Hf 9.132656064456677 8.12859747728151 3.7434559213188927
Hf 4.557865079862735 6.684184311148399 4.634042802763643
Hf 5.453457857372695 4.037003647356661 4.610013595182661
Hf 6.488302142479825 8.603568794301186 3.568958933050661
Hf 7.509037962068517 5.923568687613223 4.205360314368466
