21
Energy = -174.3909324 eV
Hf 11.270493448179838 7.01291659371493 6.735365858336414
Hf 10.32983866578717 4.896887202792977 8.756938441335613
Hf 9.76116410814316 4.767680148562213 6.015805946022915
Hf 9.07593980457994 7.30280404241703 4.821294487990627
Hf 8.914248245883014 6.953444290174277 7.915279726902758
Hf 8.766451703734099 9.501610851506694 6.8859265197037995
Hf 7.65851751605025 4.095438406596629 7.871144401340418
Hf 7.301277160379711 9.588923411053292 4.726770126553177
Hf 7.120648350366465 4.861020835413717 4.883268769195299
Hf 7.33800031880986 8.97437679171144 9.312369855298389
Hf 6.126752033044598 7.069658536711898 6.747651399059569
Hf 7.308832760752429 6.200154602639253 10.022036711614495
Hf 5.6847525430376304 9.990287862122072 7.17889868240485
Hf 5.068969607296028 3.951172051962916 6.50788229915074
Hf 4.15467239587803 6.070204563817705 4.776959970864765
Hf 4.729013121632831 8.949417101731777 4.589344655514804
Hf 5.21397196867018 4.8635587118692705 9.21893425460133
Hf 6.482095722704546 7.154929752414305 3.46435834513871
Hf 3.3480880546497933 8.308104921005453 6.760132136855992
Hf 4.709558190449711 7.78469098141392 9.275153010011548
Hf 3.334443408376666 5.789456636396151 7.588562163918154
