23
Energy = -191.86262436 eV
Hf 3.414291271834899 7.698570321217855 7.035420391341502
Hf 7.5361856935824925 8.523880157030282 4.181477592225391
Hf 5.274452362884231 6.87430273331248 4.886029770233149
Hf 4.0289121671896995 4.900778894987804 6.806141790763258
Hf 5.632386648434448 9.438722598899647 6.312086700036341
Hf 9.338197743396012 4.0840954166927 4.562122618626357
Hf 3.6160655820820033 6.112952830024928 9.383883017663916
Hf 7.679827006019325 5.804219700317717 3.362389749152444
Hf 7.896634446538697 11.532382940413505 6.11049255330167
Hf 5.9783441224415785 6.773073889616714 7.890383374444442
Hf 6.908066213177267 10.759836533239232 8.533539994276326
Hf 9.636103208371432 10.739534551442638 8.51107359888626
Hf 4.854135918463784 8.85733863961583 9.39277409830427
Hf 10.272371722664605 6.789018327903385 4.783619140533339
Hf 8.173769330231677 6.3091500028283125 6.143685872248246
Hf 6.852461215941945 4.141860881364584 6.3876467538008255
Hf 5.69432102575217 4.1415976583190695 9.10561470046381
Hf 6.091052078908362 6.479858181431344 10.72998040848588
Hf 8.78782109364832 9.09989595817526 6.623917108825062
Hf 8.035506775665887 8.343396645057947 9.627626567908578
Hf 8.419277250875082 5.439137741395361 9.227090830782153
Hf 10.30961358484104 4.596477741946581 7.000222509067721
Hf 10.335901712006077 7.242857237019356 8.04519541478051
