22
Energy = -183.44249919 eV
Hf 3.763677254954728 5.624818526502495 8.261051323817123
Hf 5.554013176709227 7.220784424110897 9.988469142053003
Hf 7.692675006670278 5.297931521929427 9.355867916829206
Hf 3.45952425374205 8.505396537702167 8.353673471960752
Hf 3.4420212960458034 6.685986090823438 5.617750781245673
Hf 6.11643567788798 4.858812145068582 6.75755363361362
Hf 10.400836482095029 6.108731553807823 8.719433655190668
Hf 5.663893240979068 7.657159863455972 7.145279038783989
Hf 8.433852002902528 8.167958713256457 9.811754486145816
Hf 3.8026525136978875 3.797501160050304 5.727486455435918
Hf 5.991844708954597 9.830259972735542 9.067262786685314
Hf 10.555311669043741 8.728174629618428 7.557467911242554
Hf 8.32440474902231 10.282004190277798 7.6467558120483075
Hf 6.605836989662058 3.1052405113043626 4.767896282565795
Hf 8.992494513314666 4.303428846941035 6.893453118747165
Hf 5.2419013406627615 5.299880567619355 3.8203893010995187
Hf 8.291977498884258 7.154461124309375 7.1460832218990555
Hf 10.618257212686737 6.455464995988475 5.812010062630266
Hf 6.063932142821925 10.202055798656568 6.022281406903882
Hf 6.11996340877888 7.930618394715509 4.2468225401310535
Hf 8.06469548554972 5.732386827775241 4.404712860311656
Hf 8.80316340939172 8.99838167806472 5.057816068585036
