24
Energy = -198.29107306 eV
Hf 6.473263462246265 6.3541425106034986 3.3744696052538394
Hf 6.389708694999265 6.405495373203225 9.570436835591796
Hf 8.011404035069049 4.309084387682077 4.605181073179374
Hf 7.933768190935278 4.296521007446694 8.375627024124757
Hf 8.904157820564352 7.148007526993028 4.761760269826919
Hf 8.793914219141636 7.1954284259837324 8.185916222737113
Hf 6.327842730864217 8.942517140373864 4.691670903859437
Hf 6.36903198963754 8.875370152327491 8.075325033260182
Hf 3.9951866875323514 7.085826581149775 4.534468393518856
Hf 3.9180792859327553 7.08865183948258 8.280860250143752
Hf 4.97659496150612 4.219128512270512 4.511258365504368
Hf 4.9354780027505365 4.270206863113435 8.368401199492194
Hf 6.337476350391208 6.2217385750382785 6.427993366597061
Hf 9.299738283263633 2.4931559266257652 6.512350001905106
Hf 9.987637724088502 5.250582762019995 6.5449422922570655
Hf 10.85141750238098 8.35093121838203 6.869725642839016
Hf 8.763786965723014 9.739195880192492 5.839935115485495
Hf 6.704653943805722 11.225859427968187 6.792693088006165
Hf 4.136088975617161 9.317092739810196 6.428766833779087
Hf 1.7987136570988767 7.705282460360032 6.3651463479766575
Hf 2.9609834104357047 5.103216796858359 6.408216594055035
Hf 3.6507569664234194 2.3546729673709303 6.470721315263262
Hf 6.467659836486724 2.6830299384572784 6.475537427132738
Hf 9.018081354647693 10.166112042711621 8.502087429174933
