21
Energy = -174.24761596 eV
Hf 9.970713200963605 2.994179550152723 5.109401180529321
Hf 6.699700182052481 6.745398714578396 10.280609640319003
Hf 5.672043119332922 6.738786660267724 4.011767357867604
Hf 9.880344715932413 5.271372728235087 6.461123951508442
Hf 9.158659759823776 8.581896017360213 6.192784021605274
Hf 7.350373764083335 9.239402949135194 4.170956826061761
Hf 6.111107151894758 8.038813724908632 6.599067311641265
Hf 8.487096079474354 8.407698074524376 8.790326988273076
Hf 4.252994884318534 6.750207063624543 8.632630930134807
Hf 3.4320189089953197 7.125630629229771 5.840996235639682
Hf 3.8607951628709767 9.498386830150723 7.440958698414596
Hf 5.859063792673972 9.232965229672445 9.344230906526061
Hf 7.764777892720221 3.1766879817193425 7.248704332598952
Hf 5.018599120783845 4.723044716952166 6.367926331928085
Hf 6.712214650069045 10.621434334655122 6.790578257165202
Hf 8.617620738311473 6.677022318695091 4.239337739107575
Hf 8.809484049317835 4.948069825272317 9.455358453787992
Hf 4.625903474490698 9.48967574861531 4.720654056083124
Hf 7.464492117062889 4.261302108979164 4.762287201951807
Hf 7.448110389129214 5.972874809016793 7.302648655714898
Hf 5.944498767503948 4.346452807951723 9.16996728121044
