27
Energy = -229.41035224 eV
Hf 10.375149632053756 6.706488425302068 7.242956338538524
Hf 8.52987429950719 5.7856055692702935 11.444080987742472
Hf 7.925897950647567 3.3168270296013223 9.76489150959695
Hf 8.892484942646014 8.665365471756774 4.855556118227495
Hf 9.6032786437519 3.8802860070103233 7.269855838754889
Hf 5.939412412207703 5.303518331116631 10.995024175204044
Hf 8.248857192619758 8.629385168873576 7.660215590560813
Hf 6.863607519572877 8.038116387865667 10.502026502815514
Hf 5.14612440889283 3.902675910744371 8.819459851509967
Hf 4.874308767753068 5.332254946991941 6.473497161628679
Hf 4.6292582989842845 6.802722178681945 9.035585234938987
Hf 7.603993028183275 5.846774878010064 8.510929050118492
Hf 10.377199274627694 5.015929980785603 9.588392245279234
Hf 7.209383422790483 10.591671758182398 6.016327428791236
Hf 6.975871097104039 3.389901042324389 6.750550004187055
Hf 3.1736170434354327 8.065586818721059 6.471834156043436
Hf 8.392866708726388 5.710617746221829 5.381438736999706
Hf 4.54290452681817 10.490352179770781 5.563321542415126
Hf 5.9478633522498985 7.817254642737064 5.227882765787793
Hf 9.70529103118507 7.773988121119274 9.892218222164662
Hf 5.383577861259188 9.324927127940645 7.958321325155449
Hf 6.0494182013426485 4.964746733974727 3.852586616209496
Hf 3.41279131448078 6.18944971847868 4.247666657053392
Hf 7.818835210365073 7.097774411959695 2.9062222640454953
Hf 3.5344998511087447 8.905140291786383 3.6626454206303696
Hf 6.418493457454754 9.794068887872633 3.2410087482366907
Hf 5.200222438102151 7.23965278407035 2.2853258920743906
