22
Energy = -184.57340848 eV
Hf 5.731876890000394 8.258635136107253 9.514038894401946
Hf 7.582872781209442 10.094761594161719 7.9976838377116355
Hf 5.634417425146918 9.572695210750625 5.738908793978043
Hf 9.640627291500397 5.864589301274115 8.584407927428158
Hf 5.196908878278097 6.690228703603392 4.651899157394043
Hf 7.200359624697393 5.237549921134016 10.194150219299596
Hf 4.264183931917505 5.745810137487317 9.342475320038497
Hf 7.762188622306722 7.626799599241421 6.090782249568335
Hf 3.9847023316999484 4.8064770745499015 6.629559602425157
Hf 7.198132042803666 8.577678438585533 3.395879145443772
Hf 5.614719208289362 3.368273523214754 8.343376445953435
Hf 7.800977471752373 5.910776270006921 3.651717117086342
Hf 3.8681391047374682 7.631242870171614 7.148183177205163
Hf 6.486112926813003 5.961651918697572 7.665257815525471
Hf 9.848105204784881 7.8256528451660765 4.254309531059796
Hf 8.340575121403521 3.5880162965802027 7.934228690246689
Hf 8.5285272241811 10.196141175691178 5.324206875194696
Hf 6.648224965000131 4.014032341327903 5.536575125422143
Hf 4.5929270934913005 10.340912417635478 8.19065828525003
Hf 9.539642976146308 5.208277066317175 5.802365565963821
Hf 8.44415799116625 7.971401485365314 9.570294013718636
Hf 10.181888129532501 8.452360822544097 7.192251516034887
