28
Energy = -238.83601363 eV
Hf 11.29553470513984 6.0331025541528005 5.215151235825438
Hf 10.658678297357008 4.7576534262625385 7.591484541992672
Hf 10.915969708136233 7.690246599924925 7.7384057987613595
Hf 9.100168980293068 3.983996257281051 5.139051107051985
Hf 9.123859169528577 6.460459222876754 3.459279683538084
Hf 10.174623031270851 8.650568676676674 4.961963610520358
Hf 8.095898355183664 3.3709968081236745 8.023796454563492
Hf 8.72804486406644 6.62577436420578 6.334007538377764
Hf 8.924604050048792 6.004475370774501 9.415254787789454
Hf 6.546364036454228 5.236663222023259 4.077790398011828
Hf 6.353445775476446 2.948690071143145 5.6433126952324875
Hf 8.470063584809424 9.478682486607836 7.200817463994937
Hf 6.4146074070498535 4.699389976043875 9.99824809624478
Hf 7.136972641250185 8.493963880442113 4.440306890626959
Hf 6.347204611208052 11.050942777992859 6.137186436263996
Hf 8.799572517907814 8.84215910939989 9.795172261227894
Hf 3.9038300406553663 4.715047867809197 5.908453276920691
Hf 6.287942101764524 5.482433125751466 7.146254551204756
Hf 4.340483439467032 9.63053855136109 4.747119327089504
Hf 6.203219893656231 10.39849270075352 9.020584762609317
Hf 5.637276105116941 8.352260680780095 7.0270669839587265
Hf 5.055099114307882 3.1740685762874867 8.093143737839029
Hf 4.477583800557736 7.017356783885459 4.320844552922159
Hf 6.243107683307335 7.527803150741116 10.043442228181847
Hf 3.7665222850518676 10.566142678714783 7.291364998635101
Hf 3.9438357539573463 5.82226416180892 8.833001408746814
Hf 2.8406420988880696 7.776590811997202 6.62333627107243
Hf 3.789435597756697 8.704284668374111 9.302915481796179
