29
Energy = -241.82690917 eV
Hf 7.957163927782047 8.625604683642544 3.949973558790975
Hf 8.276780984229632 5.68499724046601 4.1349352021094585
Hf 5.550084905206742 6.92225834359918 3.8420639929853917
Hf 5.3148233630217785 9.519269711589784 5.243505156371559
Hf 10.150334090050887 7.864768315042645 5.635341355347092
Hf 8.109604340553513 10.03476503628226 6.433801510228206
Hf 3.372731268023131 5.156792431108111 4.126682995994532
Hf 8.842793372662092 2.794011093228199 4.797021396408555
Hf 5.949732872480627 3.9273686183166734 4.269438108678468
Hf 3.1541492978905143 7.691086632189392 5.402560270298164
Hf 10.451285294970706 4.8709446828427705 5.644907279940877
Hf 3.1901121717977405 10.184364324321987 7.197955875925213
Hf 7.492101958374878 7.211631228436885 6.614798125632859
Hf 10.855048796451356 10.717818883075719 6.38961561039246
Hf 4.867639785361979 5.525203338457931 6.363899311274058
Hf 5.773666971540391 11.146875905475106 7.630702404337624
Hf 7.52688748105241 4.068237403240632 6.8302772965270915
Hf 4.914155948028149 8.185221044942708 7.980877032428204
Hf 10.046131324325957 2.9800647019247912 7.523986573437492
Hf 9.156160877702442 11.488186694741504 8.541805780279903
Hf 9.623961508522427 5.826293125532362 8.178134998842571
Hf 10.100089075031192 8.846890810432614 8.304116451225806
Hf 7.3621583359896485 9.194516880536419 9.316924040056158
Hf 6.258075295047227 5.619862854284329 9.148334163260342
Hf 4.621095185104398 10.266348433599804 9.881657254044853
Hf 8.433444382575418 6.817118693389083 10.703323892136387
Hf 8.401866200894991 3.9829256429625417 10.00386395068302
Hf 5.668828720156822 7.6600071167144925 11.115796966040056
Hf 6.593363261446312 5.117173848788054 11.882779133491995
