21
Energy = -174.76004679 eV
Hf 4.647578748586041 7.0508271131282605 2.2838561730485023
Hf 7.459785408638149 7.581597925769118 2.357263316217064
Hf 6.6832115515169646 5.138738328112459 3.222081250051978
Hf 4.557349164032333 3.465542026088486 4.245360687856952
Hf 5.808580854379973 8.665577676212118 4.4318163039426155
Hf 2.904733700775246 8.600119087030116 4.144315798755989
Hf 7.298625683166437 2.7412192271824605 4.655435271275828
Hf 8.332893714073307 7.466290513939286 5.064448364514591
Hf 9.141061419610212 4.705342912299786 4.999415021837735
Hf 4.012855813293074 6.226712466121856 5.038041923318796
Hf 1.8489827402939023 6.998846927984415 6.457181784442299
Hf 5.530668680608993 2.122172678817427 6.608150892467377
Hf 3.282075662660744 4.0090392087519735 6.793756081837079
Hf 6.3413367364462365 5.072646138681668 6.329909311328622
Hf 9.003830491225655 6.113031067300725 7.380353544888773
Hf 3.9521033541117356 8.780941526489835 6.684745532359272
Hf 6.655235085703827 7.973506959773375 7.356183705293018
Hf 8.055369138877873 3.314986162493622 7.64709207995385
Hf 4.163757011451247 6.397399198439554 8.294827110313504
Hf 5.259008881710349 3.748847981605902 8.795133567491531
Hf 7.01281132512134 5.778470040061504 9.162487445087965
