26
Energy = -218.91447558 eV
Hf 7.048212010016064 3.314044322789233 5.3051003177701
Hf 5.51430271298695 3.8865533952987645 7.673315844851575
Hf 5.878375363677688 5.454099755040885 10.052574335752066
Hf 8.155107722150396 4.538989179199597 8.136851584481802
Hf 8.59408004008911 6.277728057055953 10.50395024608242
Hf 9.678070220856215 5.254978793958265 5.703155517191673
Hf 10.357721610856238 6.364470902572871 8.277120674346808
Hf 6.7831022111833565 8.270520721636414 11.27577058281399
Hf 8.250361666959094 5.031780584371759 3.2227641465810306
Hf 5.500011688014941 4.765517553424415 3.1514261615087844
Hf 4.151428504727753 4.403518765782975 5.4136145320418185
Hf 4.05404497240849 6.346498396315558 7.495954823899194
Hf 11.454601492484633 7.476028109557077 5.886604205003471
Hf 6.676066056167289 6.127339546959429 5.518152677748469
Hf 4.296183005796214 7.886795416016768 9.84481673481956
Hf 6.861692645475441 7.508527270221771 8.418915346467546
Hf 9.078737965953618 7.615957521788848 3.9231967544695787
Hf 8.93375167164289 8.33732476506065 6.58639665996408
Hf 9.257758788740567 8.961158203045445 9.516904802507531
Hf 7.881958533559531 11.061164898185545 10.654970789953675
Hf 4.211703934481151 7.216910137628554 4.518606410178972
Hf 6.457072606522734 7.292271229265859 2.688009636988658
Hf 4.8411761777870845 9.164439996793135 7.080929270617185
Hf 5.516689351951348 10.274384601124574 9.612047534463903
Hf 6.662213309990866 9.071354535777953 4.868887750591787
Hf 7.498802268667235 10.603331315501874 7.70481001279207
