27
Energy = -227.1409319 eV
Hf 10.003691496163155 7.339051274387831 8.736890645980845
Hf 10.006270375253491 4.36833422598227 8.493122673605734
Hf 10.19692543601165 10.261863283342212 7.953512354812946
Hf 7.54159223707339 3.2034063681326983 8.690380043661241
Hf 7.655830066868544 9.106309512514851 8.636791978210756
Hf 10.483871969128547 5.888315771398994 6.251747181429826
Hf 8.946849535163478 8.352937429502028 6.166096595032974
Hf 8.20205879503526 5.473226088514896 10.442220269419712
Hf 8.022691057035356 11.039360227806544 6.489250740827301
Hf 8.49139784509164 5.8398075736089865 4.0663554998905065
Hf 8.495959431710116 3.6700724613813964 5.999184480840949
Hf 5.999730895293893 7.425152709797554 10.48980814006554
Hf 5.462940513625845 4.721404153021624 9.960811967621352
Hf 5.643100249081453 3.943820096563353 6.670118360982193
Hf 7.683148661512492 6.00369588533921 7.641990437907048
Hf 4.6333832972418785 6.442867394548871 7.806470221203766
Hf 3.3354127804782583 6.94783034820138 10.148832657043823
Hf 4.554292256591031 9.223578552596917 8.864519394548998
Hf 7.59369626987533 8.718730969064158 3.752307790062715
Hf 5.855731380812883 4.1485305604325715 3.690199230081198
Hf 6.379555117375489 6.618694732331543 2.2255433697023657
Hf 5.863768249152009 9.17530619175792 6.278569600761598
Hf 3.330590235833945 4.849777677292226 5.3959233101389055
Hf 5.849484277165163 6.5952381104767595 5.050879126747725
Hf 3.2339483370432704 7.729800566072989 5.589450674713168
Hf 3.718299996810629 6.249535172989935 3.0617178619592007
Hf 4.833787469508822 8.854260420240472 3.4490819680296787
