27
Energy = -223.51621759 eV
Hf 6.112079798911721 2.5094574643330674 5.110124754607822
Hf 6.28974329732763 5.224383041721324 4.383751708136181
Hf 4.288216051691672 7.109964695122236 5.685354590370045
Hf 5.460759362443163 4.572784512884873 6.976389053919708
Hf 5.131942693166626 9.881578716483196 5.308662304310522
Hf 6.917117861349082 8.178733059519832 3.8368549833963908
Hf 9.595235845003538 9.235669802626314 3.8262898066287305
Hf 8.212425935709824 4.162618572349129 6.1654538379115875
Hf 7.19525538020591 10.911261731446572 3.4785475329127378
Hf 9.329985858802821 6.207642710727246 4.1924126261616514
Hf 2.9984540453876245 9.131297614331197 7.387794015529338
Hf 3.700566168207736 6.671530278838531 8.443126547770582
Hf 11.879865307376328 7.366996199054281 4.812946190521468
Hf 7.177875537091649 6.947573191788811 6.504021857210399
Hf 11.02068996737105 5.312294014972505 6.430481722229859
Hf 3.7625838247793655 8.93787704437789 10.159976886287117
Hf 9.23715293984505 5.57465894111777 8.640422471807657
Hf 6.59324729271933 6.3580050192620865 9.463128726690067
Hf 4.359698815719811 6.414161095067463 11.368913968926803
Hf 9.87822084155367 8.0942060621185 6.460943676762021
Hf 8.616540581807804 8.527190261159424 8.96242470315246
Hf 7.853204718233946 10.145031310004702 6.029048903138231
Hf 5.711269443781481 9.137273115344573 8.049335676906107
Hf 11.358216477650426 7.29288593137917 8.735615872082587
Hf 6.441643517422482 8.428221081753744 11.383800665522076
Hf 9.037012351180305 7.024397279325025 11.171711292521922
Hf 6.8412622631117985 5.788296310534447 12.29187289090994
