26
Energy = -219.1596834 eV
Hf 4.486628098370036 6.083497731964169 5.060386652049898
Hf 6.414918071872252 7.599640243270645 3.4394731208420457
Hf 4.0702031261423235 7.583150128848639 7.811393689367913
Hf 4.472536898499601 9.055473859875189 5.150283903164025
Hf 5.852465475097136 4.919832494242673 7.6725588247904914
Hf 7.443546266243643 5.056549897686492 5.010581090335101
Hf 8.512708124594926 3.4013655755186027 7.43619916600638
Hf 10.495682168841634 4.920177282615021 5.781880105761809
Hf 10.75422228190735 4.897065245802687 8.785398000760354
Hf 7.862972546998165 5.00070720270608 10.045602442135875
Hf 8.745074206926974 6.080306437954958 7.460985192733722
Hf 9.272714238415798 7.59476042946703 4.801014195848326
Hf 6.745620917276075 7.497504732356253 9.101392876591087
Hf 4.940684724666304 6.0412479500915675 10.450958969511454
Hf 6.490232263462659 7.53889333649111 6.139111820027046
Hf 5.730049934393754 10.199552606884485 7.713913685358929
Hf 7.376998400364006 10.098096163608131 5.038094952878711
Hf 4.919394709030165 9.031574822816662 10.39053987929505
Hf 8.694212665415314 9.000695058016893 7.462129011362716
Hf 10.407130711272869 10.290791806936772 5.849529719446685
Hf 7.789632696737897 10.095528029749007 10.082691956545288
Hf 8.369004547595699 11.695071320254028 7.5114096716784555
Hf 10.648229585604216 10.273284080614705 8.812176455302366
Hf 7.120276281552707 7.547086701366291 11.758386795652495
Hf 9.686071418156173 7.5522223388988206 9.96375381827539
Hf 11.2338700216138 7.6095475655003755 7.246852253710136
