20
Energy = -165.74047476 eV
Hf 9.511129550885085 9.156401684051728 6.361695216550723
Hf 8.175835131611894 8.820790073672297 3.7469519916845195
Hf 6.813083145882777 10.261024731711654 6.019805059362398
Hf 9.670838190692589 6.616366102950591 4.860896555686125
Hf 7.682062295889616 8.998127692525177 8.716586652696838
Hf 9.623521589480072 6.544820038578687 7.885585765084067
Hf 7.273327114083209 7.517951440934149 6.056524441096155
Hf 5.418652205158669 7.702734870459075 10.296219345312613
Hf 5.0968485407325534 8.422924740757265 4.491764453559046
Hf 7.003795536047417 5.989253665201253 3.680919105572145
Hf 6.100448317379771 7.969910326166006 1.9721917450458442
Hf 6.613293679033402 6.2463412937816605 8.251635686520338
Hf 8.157543990918022 6.599005139684985 10.533089105311863
Hf 4.704828146062912 8.512451150091675 7.481341464148485
Hf 4.611085118125752 5.944783939809306 5.847705988353374
Hf 3.846297163314656 5.894602290823455 8.604007373321659
Hf 8.279850569584701 4.1007090043123045 8.968473495480733
Hf 8.145427725688041 4.512543467773874 6.1508992454610265
Hf 5.82981137701078 4.766727183461687 10.413247775125365
Hf 5.616291031999926 3.691895380865357 7.665026907584307
