20
Energy = -165.18094174 eV
Hf 9.269388136177787 5.85190524342254 9.463487061256023
Hf 7.033534189319118 3.9121554194826644 8.933637522382888
Hf 6.527214524343857 6.2582739128112 10.491854185728249
Hf 8.300118354960917 4.335663815050973 6.528553519565692
Hf 7.647894753886177 8.621838928031798 9.829480512936358
Hf 10.355220404417622 6.1555460929503 6.676738887580992
Hf 9.830747460978909 8.487561964024408 8.24887185039584
Hf 7.41638994359092 6.799627350401733 7.67704808985442
Hf 4.667730945003148 5.300581299538069 8.764844475987998
Hf 5.239132023252936 3.9696944553981193 6.400501808976362
Hf 9.363758176266396 8.470116248010584 5.5773442467102985
Hf 3.4238630451226215 6.453473140766145 6.734789390185679
Hf 6.038191233594897 6.520792624367417 5.367095297670243
Hf 8.600791362341358 6.23979133489754 4.120097245024505
Hf 7.17990852368653 9.676280766063801 7.101530395874457
Hf 3.577211490679393 6.157430988811624 4.0741646620457255
Hf 4.9922873123585045 8.200002458223874 8.585972526549481
Hf 5.486587188476751 7.447033940540521 2.7795910036300233
Hf 7.1682023228797345 8.981364462132477 4.194483677259218
Hf 4.446028237158785 8.780672360732988 5.269752453111952
