28
Energy = -239.23240454 eV
Hf 6.543708754449994 6.542522130908051 2.6514377594416088
Hf 8.98061622952056 6.51633599503874 3.9797284234515256
Hf 7.396146641291001 9.110134650352247 3.7871898765801957
Hf 10.025060146815553 8.758436134900688 5.659885618163771
Hf 11.068978454442476 6.002341209739415 5.808296302883439
Hf 6.593938259712175 4.439380313526191 4.679305886720035
Hf 4.564683383986712 8.382094600169545 3.189957772694093
Hf 9.192759610083288 4.043637025502295 5.637613382209529
Hf 4.1322758533898005 5.683604569325359 3.8437511252324414
Hf 11.245180397163796 7.373961101443778 8.072109998677918
Hf 6.019220686313271 7.235075620935558 5.433230255797353
Hf 5.014447191579375 10.00931548033929 5.2222865702613674
Hf 7.310367337286221 9.836906429015308 6.761676739674475
Hf 8.566001289874984 6.729616474024061 7.055100735732315
Hf 9.46407596356676 9.368099516132627 8.382879955960956
Hf 10.049271991919948 4.713357367740149 8.32211371728855
Hf 3.200043436233301 7.697043830639062 5.737612440517809
Hf 4.533688234903938 9.36105785408117 7.952288227818998
Hf 9.170219803347596 7.0915870531614695 10.095803413334101
Hf 6.958888269712436 3.862043950763944 7.4844402250554225
Hf 6.02751562998972 6.793870315156161 8.387635219921666
Hf 6.944600035696478 9.174597500892489 9.758058667691511
Hf 4.263226476891048 4.839358196085261 6.569880866900379
Hf 7.670342844918771 4.64328922664298 9.943879292876664
Hf 3.091641161099205 6.701658967762643 8.358067279525516
Hf 6.574220195331571 6.677194284746145 11.313258850563209
Hf 4.340689704251239 7.812549383243115 10.434410838825775
Hf 4.765150806639281 4.864591879463915 9.841931016560178
