22
Energy = -184.91139554 eV
Hf 7.0949322214689 7.528181426888548 3.21641297896722
Hf 4.496577228993442 7.4884693708199945 4.054834253607181
Hf 6.169220443783883 5.059468392272286 4.539639501221897
Hf 9.04119349085047 6.047084754352999 4.907812049195247
Hf 6.036846952525707 10.086599742083298 4.635793921087416
Hf 8.893736051898784 9.00262668756512 4.62924126076212
Hf 4.0157804985707815 5.889897335341938 6.508825377443242
Hf 6.559186286932607 7.939864128916712 6.153989149186444
Hf 3.746110893477875 8.863220777385049 6.268148113000677
Hf 8.180306584827493 3.4464293978409337 6.030676266884886
Hf 5.594465658049592 3.370431009510629 6.900753044760804
Hf 7.711832860086703 3.6596928169205687 9.11125254132821
Hf 4.853389281722694 4.729611065778513 9.119315177399383
Hf 9.99657219594927 4.885952555746871 7.4742470300533945
Hf 8.148778102685245 10.368863574913737 6.844209162002273
Hf 9.728714286720916 7.855431410508416 7.241044986083529
Hf 5.5611898612354835 10.298408320595776 7.707860524628538
Hf 4.706365179327524 7.694203131632829 8.83761270432075
Hf 7.183465049653131 5.800441699619848 7.591209772667901
Hf 7.570247371119238 8.682304053008469 9.206498502468076
Hf 6.647756488933115 6.206305062461558 10.528680661045316
Hf 9.24154141036315 6.25811056812245 9.691768246978375
