28
Energy = -237.05886692 eV
Hf 3.374944225615171 8.343293603574057 8.223083381118162
Hf 5.075726220561337 5.600317450244467 8.114483127818124
Hf 6.5314715127945995 5.279523198465532 10.607160639739437
Hf 3.5758687900074464 10.899528900924393 6.888853004981623
Hf 7.029169506946714 3.263668496390171 8.42008649949967
Hf 3.6747021442528065 6.136979029502211 5.513876221741502
Hf 8.947259538725891 7.091895369941489 10.81027840506046
Hf 8.32932169731481 9.898496608199084 9.705253932874752
Hf 5.543152251162898 3.94257555252555 5.935696479012219
Hf 6.423158602981555 7.900525869389331 9.224933947045924
Hf 5.492695111526637 10.419314477333547 8.821479151140126
Hf 2.70401324250299 8.948789863617924 5.227192143850836
Hf 9.068123715639462 4.070583996052825 10.46998930117056
Hf 8.361698181041161 5.7788958041011025 8.37243851681841
Hf 5.297524101036152 8.484097383833797 6.307361710031779
Hf 9.9754558163234 3.431421881140962 7.860473497546285
Hf 4.521350173827531 7.98150983867053 3.3942281843764492
Hf 7.49042192721924 6.66445558725139 5.958240075794556
Hf 11.063852788022905 5.726168655776575 9.241818001673982
Hf 8.348076636407885 3.8981097110843694 5.540137229952248
Hf 6.140252585418957 5.6466074610196255 3.682326113958855
Hf 10.108307905797888 8.25161976074303 8.159264158072924
Hf 7.7964375389006095 9.769565536591555 6.8626212060819025
Hf 5.017376623527529 10.582423284772576 4.43392027525887
Hf 10.620898648582942 5.8111289815732645 6.259385070988337
Hf 7.297477804914605 8.59021327047896 3.7827254143170888
Hf 9.063916618293703 6.1594432776150185 3.723309590309641
Hf 9.821466020084873 8.412920230414626 5.2993452864289115
