29
Energy = -246.56068153 eV
Hf 10.951437877741512 6.430282352746731 4.856392377015878
Hf 10.77270520922419 7.43945553841447 7.339863206242284
Hf 10.541339103113886 8.743227645083978 9.795483552613787
Hf 9.405763667814847 5.876951354796832 9.615542973396101
Hf 9.660361341978243 4.560798564891224 6.796031290742381
Hf 9.338182337221147 4.475137099616937 3.842167641782073
Hf 8.640246508720086 8.019944620202269 11.497899500309185
Hf 9.237984485208644 7.1436299303709605 2.8224032121556064
Hf 9.550084253487421 9.056488910499112 4.97960747921404
Hf 9.848107852697085 10.2168034546344 7.5477826586279635
Hf 6.982110533978917 5.611728083518273 2.968122162654853
Hf 8.042245195897783 6.62026155047199 5.584498360250414
Hf 7.979307348213964 8.085365033664734 8.597432815394898
Hf 6.973917698107184 3.9046729133994535 5.409206065065411
Hf 7.051102392890184 4.462690564912032 8.291100178792242
Hf 8.18076589716353 10.62444008631065 9.770089383331797
Hf 4.508540728788356 4.171721196329305 6.781836216035765
Hf 7.137564328528947 10.026384460324756 6.343565313920619
Hf 5.366154492840983 6.962794061848372 7.589034237749565
Hf 6.266098632512789 9.117804358182001 11.07774540640124
Hf 6.761017359584005 8.47846782608877 3.790672899581946
Hf 4.904941421674539 6.089871959102289 4.605480697929207
Hf 6.530208787026794 6.170933736948389 10.654029177144665
Hf 3.6546946721555122 5.390387414069019 9.15492916398906
Hf 5.14622823796646 9.95300209567777 8.548541672131538
Hf 4.373590925477917 8.888673837565163 5.7807418163735464
Hf 2.7886757923010688 6.315550362848666 6.408444008193456
Hf 2.7696778837701346 8.279352078887944 8.187863746236843
Hf 4.15706710358223 7.809005483636225 10.39830339151987
