20
Energy = -164.42200745 eV
Hf 5.671533104488939 10.077519019221366 10.098392250325041
Hf 12.140887555936303 8.079780142652208 6.216032409446822
Hf 9.665902367199475 9.159784685747436 6.053799386895204
Hf 6.237362390795854 12.211084994211914 8.367413957343249
Hf 10.265138816887116 6.618833205539772 10.529981604050542
Hf 9.562856056749478 4.56022048615037 8.433527362100468
Hf 7.9393316003543895 11.511490907666037 10.632376884066076
Hf 8.628143746442849 7.243969931789199 8.235334314134125
Hf 5.150094681893832 9.636875960674896 7.334900100890479
Hf 7.996614922460447 8.505108343831887 10.895185249648817
Hf 10.84428851075409 9.044366145900758 8.857782841493346
Hf 7.140431281640481 8.02546482198176 5.642171300287882
Hf 5.697666363942428 7.294277324127401 9.159220478936788
Hf 6.860084663603877 5.032154789050469 7.534893329572465
Hf 8.041879276506622 10.142812226660114 8.240889755721707
Hf 9.789055843093934 6.159074127603151 5.855119395468195
Hf 7.055176132394579 10.94279905406905 5.760282446044915
Hf 4.925811216312748 6.76915330100011 6.565855191697004
Hf 11.638908888102323 6.317047821433803 8.139846085167493
Hf 7.619757641827262 5.539107772074793 10.317920718095978
