28
Energy = -232.48402625 eV
Hf 4.178477642593854 8.849154456964062 10.919455293016348
Hf 6.396001924141532 6.7147954171821755 11.310892869583629
Hf 8.630276190508216 4.985824798475409 11.478193276484404
Hf 6.863586090729259 4.57532914614675 9.388763613318929
Hf 4.6395647390934665 6.642732917267157 8.966492988896935
Hf 2.8105611562039887 8.838135956142507 8.558943854572963
Hf 4.934985839419864 4.713007922602446 6.4751976051618865
Hf 3.18354467223567 6.886348062890803 6.384224294113803
Hf 3.4426285770873193 4.904211246596465 4.158947751539805
Hf 4.408149958854964 11.00881295953909 9.020488611172455
Hf 9.728251098680206 4.290551522491815 8.966923870959814
Hf 6.4530198405953065 9.057270063456098 9.241992631629833
Hf 8.624502951483102 6.8892844808488265 9.499803261076321
Hf 8.037353085909508 4.179399136609863 6.57506221002241
Hf 10.97869240949965 3.9121258318738517 6.1559088941109845
Hf 6.900888783111893 11.372759377243096 7.206238964106848
Hf 4.9128068989090075 9.289802423208656 6.643112789534513
Hf 5.186563044966486 7.023381793617479 4.434764561006565
Hf 6.407884001546599 4.524136277123681 4.105816497614814
Hf 6.842015759841229 6.9552441122685575 6.893904853442708
Hf 9.990293934139059 6.494309133775521 6.774636440743894
Hf 9.325994223122917 4.098226597471901 3.989599297352002
Hf 8.329062269749004 6.792471569809093 4.252365768720008
Hf 8.898036056882473 9.307585508254874 7.3832765034219445
Hf 9.328144230158813 11.471142080331788 5.75143914861523
Hf 11.214424641316699 6.060625474231469 4.252754090812822
Hf 7.41649551663115 9.661832166162304 4.9023927499447835
Hf 10.236153709173989 8.94010452407646 4.866126598693882
