21
Energy = -173.44911913 eV
Hf 11.06871465048436 6.59995951174073 9.1917345502787
Hf 9.868561876315173 6.627532013547201 6.539322690443111
Hf 9.07967034175797 6.560369391613654 3.5322553978139717
Hf 9.585987118997338 8.929931718945001 8.171736938752638
Hf 8.6119997517531 8.918908715004305 5.508296827794719
Hf 8.435657196507217 11.390391071423322 7.037915619355679
Hf 8.422303580646876 7.205610871948719 10.222909541582535
Hf 8.854682134727454 4.829743777829773 8.559456644512444
Hf 7.945141875927827 4.804159265886406 5.493189181045234
Hf 6.787739515228386 5.067487989722999 3.007761654532683
Hf 6.697223122206463 7.0651645383136765 7.558851761445324
Hf 6.490241123608709 5.1932070752396795 9.985099170886425
Hf 6.107580026689216 3.948779392338243 7.608129744755137
Hf 5.034267946527291 5.208633625539909 5.468603890310197
Hf 6.954793160098886 9.873438956289538 9.022497489259198
Hf 6.474383633902732 7.485248915567385 4.288470757458148
Hf 5.4549188718219215 7.652430312399645 10.379247256070482
Hf 6.026593627610822 9.975599386234936 6.242657571508011
Hf 4.052457962134653 7.687786841446976 5.922651647368977
Hf 4.079762960892998 5.991490252561702 8.370783557961078
Hf 4.407439350654528 8.980681721345602 8.277978553698059
