28
Energy = -235.35400305 eV
Hf 13.855661874293366 13.620970133681944 7.468658635234289
Hf 10.388944671258395 9.38767484791482 6.35378492162607
Hf 9.633454146907344 7.332989113238745 10.14293870414349
Hf 8.426649711032645 7.351046101604272 7.137032967942388
Hf 12.55698721733741 6.640595741252139 9.535050785147172
Hf 7.396007240504999 7.950073528186568 11.953657471828526
Hf 7.188629675238492 12.794390367036899 9.669197643478537
Hf 9.683980530649775 5.160045377378535 8.666408486648015
Hf 12.05738332951933 11.51432014226773 7.135606706719241
Hf 11.210768111258254 6.864558199289462 7.15226531832557
Hf 14.057802266791839 11.248820017311811 9.199511020260452
Hf 11.382205631852907 9.592768061580491 9.328628218344024
Hf 9.655037845235546 11.833644686628032 10.445995618030551
Hf 5.452328304426441 8.806580530886485 7.665857174255668
Hf 6.181247983139466 11.705767770825767 7.262024434579619
Hf 7.743485824458477 9.74750130144513 9.258992156163355
Hf 6.837549632402135 10.853446752932927 11.860583789770988
Hf 6.864061729055604 6.716836596393328 9.382577506165712
Hf 9.614857396972287 9.675554087149374 12.016771489501346
Hf 7.640538408491476 9.855703214329756 6.0396722291388585
Hf 11.905514965321691 8.010444728555182 11.933079172126751
Hf 12.003647955301124 13.117535867205321 9.52819337271781
Hf 4.966775059194293 11.1215936835986 9.61874088970998
Hf 14.109183347227164 8.84135909791377 10.500079252817388
Hf 12.406883101458954 10.954739590161033 11.711210064175912
Hf 13.39527595245439 8.772740456666043 7.522050238147035
Hf 5.195526807541469 8.651762294713174 10.54685777632635
Hf 9.142157450258313 11.995702897280305 7.517111616753692
