26
Energy = -220.08468979 eV
Hf 7.840712473581895 10.269483296426523 5.5394354236617405
Hf 6.721512346370292 10.668381786908684 8.55089257883768
Hf 11.270413949276918 9.320492041531185 9.229343804577681
Hf 9.562531283903661 11.116207404923852 7.7465036740545665
Hf 10.242569775635701 8.811655611388932 6.204506083906854
Hf 5.742452095980372 8.86248081154963 4.087843824206992
Hf 11.860598950248642 6.9534144894025225 7.590094703409075
Hf 5.0617580558162505 10.495664796924554 6.269556130689862
Hf 9.87181261672668 8.783861661482621 11.714719301460972
Hf 8.903914340220952 10.938248925011479 10.364429989272397
Hf 6.7766139105707 9.150538281618752 11.103632081165514
Hf 10.793805134761136 6.219858600491961 5.012046137064119
Hf 8.264614998050332 7.557168656591606 4.287674543099736
Hf 6.502672002979368 7.868802911228329 6.766001667174373
Hf 5.509299144160109 6.032996971321375 4.798725154220513
Hf 9.345274835387306 5.822956050457456 7.337360678008107
Hf 8.202435623363451 4.802495004775713 4.996883978842946
Hf 4.388269972150484 8.820808857697246 8.624038018602109
Hf 3.672870072615028 8.164094489098524 5.827452069990791
Hf 6.603920286969113 4.74161345790811 7.357999351597
Hf 8.638878775673394 8.268292075470455 9.019035888477378
Hf 10.668126762736486 6.476658090985277 10.253227994269992
Hf 8.32396327367606 4.825137914267767 9.733606347713891
Hf 4.188335071439948 6.096836303745801 7.502188672848449
Hf 5.992098151308337 6.578173410536146 9.690372163494184
Hf 8.098418424547917 6.70340707423679 11.67881286566546
