23
Energy = -191.22630201 eV
Hf 10.698377653197337 5.256272364194741 8.384858301299174
Hf 7.059739367114206 7.405061687280557 11.17457748753668
Hf 9.458545364317258 7.7702493610834305 9.46043873845873
Hf 8.071406418898983 5.154899108049745 9.604570566852969
Hf 9.022862938943364 3.1840099037427176 7.858387822500353
Hf 10.81309479816151 7.802055322378951 6.896694010860555
Hf 5.749911677811932 7.13870003323673 8.622553644763807
Hf 6.0420095889223555 4.168373543220231 7.847683841608966
Hf 9.870770453439654 9.995967674005847 5.300503450619958
Hf 5.316617555948007 5.145725579209329 10.466328128735098
Hf 8.495860241899136 5.469620310890791 6.457166594827503
Hf 9.694104065785421 10.189837815579564 8.032397784877615
Hf 7.696299056323805 9.416892883801884 3.752982200479214
Hf 7.7965619714068115 8.30149566004793 6.5670963758993635
Hf 7.293815943653798 9.762982619208392 9.312579297845318
Hf 3.4488696689956515 5.355484058033178 8.243866553067496
Hf 9.598482398406578 7.350703153632871 4.320919772163149
Hf 4.94576303238477 6.1272602662673785 5.934757719157224
Hf 3.1740945393370286 7.908646116113117 7.087541827005696
Hf 7.282695644215712 11.03322474229081 6.331246064552651
Hf 5.199329380268269 8.929453702665365 5.035207840435839
Hf 5.063531025094617 9.863229006168204 7.71218204627653
Hf 6.9276268384268 6.748392547722528 4.027563966450703
