32
Energy = -273.89822032 eV
Hf 4.750905931739048 5.44299447951668 9.686561964906359
Hf 6.8317611439951715 3.5274234847397636 9.055543871611112
Hf 4.015760703362322 8.1897941594669 9.73044190094445
Hf 3.657671898683447 6.958917753282017 7.159237403239467
Hf 6.23733469172557 7.739261407248555 11.492831976266242
Hf 5.163547213255385 4.283955497884358 6.855767240227174
Hf 3.663686078068857 9.90450718644374 7.5925376519021865
Hf 7.11262720857996 4.864746140304213 11.43180587304034
Hf 7.432008802211873 6.493126898973999 9.162748476305834
Hf 4.725174001619632 8.871204338138437 4.99760648497242
Hf 7.237977841002206 6.270632139161857 6.220161911878221
Hf 4.713841989002518 6.088102930654223 4.657289990331818
Hf 5.837486815139243 10.320864918071555 9.861608470035407
Hf 5.694448184585584 11.361698175316857 6.072268405887764
Hf 9.028907358887702 6.87174387803331 11.596291174755216
Hf 6.1300374017512205 8.664972920136965 7.534400327944396
Hf 9.533181312928921 4.6115634314842415 9.661410016279891
Hf 8.603380837209592 9.372369700728942 10.394273853574852
Hf 8.477919439647126 3.669378512568567 6.8110234122216395
Hf 7.348138841886696 7.045585817204399 3.4916688514049263
Hf 8.166340218878258 11.018747128619376 7.858959971299884
Hf 6.775961382366046 4.259151888551397 4.324312445177234
Hf 9.222602878393438 8.223213146842165 7.425154547365072
Hf 8.177154215290651 12.486940728424024 5.455872766304328
Hf 7.757094997759049 9.735958909176746 5.009938172738492
Hf 10.997593202528572 7.282556516391501 9.554034995148683
Hf 9.384057335401128 5.133249759265049 4.525902335578127
Hf 10.77712083295209 5.666430044470979 6.966188105644222
Hf 10.892652388004905 10.19458334665021 8.757756201867352
Hf 10.415510882322465 10.482028786156206 5.963106340343705
Hf 10.246362114920522 7.784237075631032 4.695597551507493
Hf 12.019098481434877 8.219353345494875 6.9978917958736115
