38
Energy = -328.21745813 eV
Hf 10.328067989711395 11.140101737050069 8.189204359730043
Hf 10.879394246544155 8.511536895932595 9.377002932053005
Hf 11.403210317152887 9.223430782973484 6.573205440180733
Hf 10.990870766359064 6.441409729985324 7.163292913032692
Hf 9.315713659821268 10.95362033442661 5.3957301327786125
Hf 8.403929418806602 10.02908222352092 10.127286976633183
Hf 7.777698421556151 11.96476777936377 7.781234107100458
Hf 10.551979641183644 5.658020160858465 9.972402010961233
Hf 9.026572081110787 7.49079421103627 11.378336500258724
Hf 8.406309923922594 9.107258255171606 7.193311278301733
Hf 9.798556915489884 7.679828045278706 4.807243426045824
Hf 8.221452789495714 6.6985464600524995 8.608591642603947
Hf 5.816381383395226 10.001802435952444 8.745859837171725
Hf 6.182223816875793 10.650984430106156 5.828032764048279
Hf 7.165703650090502 8.583469630741243 4.240361745791682
Hf 9.55725872024155 4.069236473015364 7.751881189395263
Hf 7.660066315074456 5.070526963151154 10.713319926997205
Hf 6.31643783407911 7.825436384979752 10.635483245192574
Hf 10.071831581655545 4.599872804005436 4.6765101293490545
Hf 7.7815157821209855 5.6413964986929495 5.810207778571704
Hf 3.5592350263511383 10.224746740582225 6.973691552963211
Hf 8.338986022537208 6.231392265840998 2.9235341227443925
Hf 3.378871993480218 8.213135617477585 9.03616832516221
Hf 5.270284974352859 7.889610563336929 6.790153564429462
Hf 5.178278344985377 5.692657050405806 9.093287892865105
Hf 4.10347862043753 8.853756584214405 4.327725648511061
Hf 8.25717879653475 2.6006035039802518 5.765459725368427
Hf 6.808732199191258 3.366276107063509 8.070665640026974
Hf 5.449330734157285 6.375692109825042 3.1444662296352672
Hf 4.868822972174387 5.098342576607966 5.997520391781084
Hf 2.18568522619891 7.995612845593778 6.369964221163767
Hf 7.06764938216168 3.778400797949097 3.490894857538543
Hf 2.507373091685576 5.577550000534546 7.726056509729356
Hf 2.6752164608676545 6.078615770694169 4.368722761608842
Hf 4.024943048232531 3.1868212583934312 8.070828245067933
Hf 5.364673192397099 2.2711296282840734 5.591317570334709
Hf 4.181158036799587 3.872204044678476 3.390401428322456
Hf 2.570546286112571 3.423828571488665 5.663003328077902
