35
Energy = -298.04741643 eV
Hf 1.4039085382799734 6.885792717547838 10.634797863035452
Hf 1.4309558319684421 6.377665536755129 7.9418063104290635
Hf 2.64880136719637 8.865662416165526 8.917265023713568
Hf 4.121440199665683 7.550704021008919 11.204285125970042
Hf 2.8727236487239485 7.893562174853914 6.035341464580955
Hf 3.4022319748756353 5.125396951378612 9.639415540123295
Hf 3.593184818233225 5.035852979519745 6.544973786990957
Hf 8.750346933773026 9.158631197162414 2.4740807452209563
Hf 4.111461436863591 6.162553819629094 3.8060624602472513
Hf 4.589833666185903 9.902860320126084 6.930923309131346
Hf 5.495215103621541 9.696650879004984 9.685832528010959
Hf 7.007673413710465 6.585798358694056 3.0413591476959376
Hf 5.766474001656049 7.156747328612569 5.688337484258281
Hf 4.973393919779929 7.197939859375643 8.296563514311611
Hf 6.294947368190854 5.658550321551796 10.667589482363239
Hf 5.989370680197436 4.206895255342409 8.012467063231094
Hf 6.487790222188562 9.437482852063416 4.176671269827189
Hf 6.960219355728518 8.255108998512025 11.856356792936117
Hf 7.334829481317817 9.54896095920425 6.98004078422435
Hf 9.063406416436335 7.724474746222804 4.947264494627029
Hf 9.054617271523243 10.623217831153982 4.88151658324709
Hf 6.074997396285975 4.269064857406388 4.968431157799567
Hf 8.196585055442759 5.925236889390586 6.8892291031344755
Hf 7.970414685554718 7.78659344166155 9.209535704334222
Hf 9.849968375308212 6.666248218205064 2.2651558520271804
Hf 8.789346842153194 4.485868518585055 9.274281904983523
Hf 10.208134925260861 9.344874371562165 7.295279649606256
Hf 8.94016993297673 6.417445142328785 11.490231834588235
Hf 8.211509259527093 3.108470165192815 6.667134333405486
Hf 11.36231018401726 8.788046935349183 3.885618956722816
Hf 8.964215258871306 4.5397018301953285 4.1731497438228535
Hf 10.553575431863894 6.738579089660871 8.750128286340296
Hf 11.910510650564738 7.28062236848752 6.403397341646749
Hf 10.753129877659141 4.552177580022915 6.71870965752558
Hf 11.5457050617435 5.872750680464975 4.1902548539197415
