32
Energy = -273.21247793 eV
Hf 10.326347117631272 8.605554082321351 5.863766534416534
Hf 8.224290815846375 9.560194619512986 3.966629049547947
Hf 11.749184390459014 7.161714767961004 7.89239903047922
Hf 11.175861189902546 5.822138027966798 5.613934888753377
Hf 9.874386840765336 9.127476611770518 8.821413236749065
Hf 7.705847995238387 9.635506002834044 6.820181235962568
Hf 9.05219130962564 6.747982046267236 3.8898658083456557
Hf 6.697307903099269 7.724524316588 2.4309955113030135
Hf 10.475749585318768 6.607790418869158 10.202462821763604
Hf 10.70661424191744 4.412922427054871 8.16993978037823
Hf 8.9968638673836 4.179876782697203 5.496717138701257
Hf 8.817868775481713 6.462530794840315 7.54076469981859
Hf 5.570476676142997 10.11394535089838 4.731922583040469
Hf 8.08773869752605 7.987054739112509 10.886299496211555
Hf 6.775595610417623 4.983088668937648 3.3536016521687912
Hf 4.627402855115436 6.098163121900419 1.6283242996591802
Hf 6.5359998166506035 7.425865879431269 5.367802558617663
Hf 8.32911012099753 4.846657221081051 10.191865686915925
Hf 7.195866056768908 10.22405111800128 9.525509188312522
Hf 8.037030839839037 3.2936193289004114 7.916011133420226
Hf 3.9110896674424285 8.35109045385754 3.139734865996907
Hf 6.187345644008919 4.76990839557689 6.368825532189042
Hf 5.98432909310015 7.330281896307106 8.604988963160917
Hf 3.6641396624795686 8.196733533235614 5.996906650967442
Hf 4.1588145601854265 5.780660882535361 4.340242108383326
Hf 4.972732050556687 10.13345370116726 7.804857584458406
Hf 3.5974246399346637 5.721766076274638 7.5270679192801895
Hf 6.138119043263054 6.118567669613846 11.528843635854495
Hf 5.58642951756301 4.2972463068719575 9.282472045589195
Hf 3.079343896487948 8.287124525021298 8.77712568047812
Hf 5.065811725961571 8.808841161388473 10.877300888573382
Hf 3.7244275122251462 6.206796645663168 10.345684451673609
