31
Energy = -262.94922351 eV
Hf 5.6818449370709825 11.01338087306505 7.326766563749055
Hf 7.86230565232938 9.79880038943173 2.933207332959338
Hf 7.288958061658362 9.027780247947026 11.024429152937302
Hf 11.655082435487554 7.5443778263775245 6.735561796720387
Hf 8.186281944956562 6.994959503771676 3.4488690296115077
Hf 5.814339381797094 10.935319971732683 4.432561121022454
Hf 6.579764017176807 8.171093757819408 8.353087032461483
Hf 10.227510309642131 8.900784653340912 4.328897990557236
Hf 10.466209228631817 9.954518820646319 6.884468969587737
Hf 4.372879909616032 8.914549898227248 5.961629736115036
Hf 5.558631170414756 8.239623719743461 3.4615835944230486
Hf 8.692481199469022 11.425157930215857 5.209632196880093
Hf 9.305008940295883 6.381893389201699 6.075017088614631
Hf 5.617113788410464 6.312701302720295 5.778835110036218
Hf 6.229262273917758 11.568374288085058 10.11013571650738
Hf 7.589510745335164 4.4914780402256405 4.748417285118315
Hf 7.517853098117921 8.893233070301278 5.729332494186428
Hf 8.233194291344347 10.651925347418759 8.341654127344361
Hf 8.891997887135938 3.2052736145439504 7.017551522373197
Hf 5.835080605553991 3.3671106236087 6.447394167654676
Hf 4.56153277019199 9.405315921231965 9.942277191132213
Hf 10.378753495911697 5.366473966128732 8.644263651971787
Hf 5.417027655915844 6.7427881312209825 10.69707082506829
Hf 7.348512827585227 5.247863648732564 8.30153644543569
Hf 9.607476307730664 8.055234969165515 8.910995651325889
Hf 8.540128149046014 6.182440222510348 10.91604635361462
Hf 3.8859633957832407 7.103441737013248 8.179054831457103
Hf 6.706239025042602 2.393717484593637 8.847787168429221
Hf 6.494878248946867 4.111291286396094 11.049419741906787
Hf 9.008249665890325 3.434371364584241 10.009824450984178
Hf 4.619998827163069 4.434930421553961 8.922259857335225
