34
Energy = -291.1275852 eV
Hf 4.036781524611852 4.4146674889538335 5.917266964980228
Hf 6.367599090521473 3.3609560965990597 4.770656447732565
Hf 5.853368927320783 3.108271593046458 7.663484253929216
Hf 8.130166830045653 3.314823629578819 9.366301620524998
Hf 8.698325983966528 3.4219023631129213 6.464810762297807
Hf 5.417498800786003 5.959117983988883 3.8336881782587087
Hf 10.413505385630698 4.7501722728634 8.472479541388887
Hf 8.374558539580127 5.354681806945369 4.033832242756286
Hf 4.3989589504659685 6.156513360087526 8.503638061672723
Hf 5.816146647688575 7.212544877971944 11.136970849500756
Hf 6.713753363252839 5.65390041853036 6.481216651081161
Hf 10.618912390007585 5.348644365760291 5.773740235995396
Hf 8.240007312039035 5.266931868655379 11.589849324106915
Hf 7.399221952011178 8.198114115805026 4.296697329464139
Hf 9.002701572876383 7.89729473822559 6.761123754835267
Hf 10.776402460849663 7.8811703271000635 4.575713806148735
Hf 3.645138262531866 7.071721864984651 5.851836240211055
Hf 11.686024619243586 7.243508694252512 7.625667967016364
Hf 9.42907600049962 10.28955333737626 4.763046755001322
Hf 7.815683381492344 6.483452211742035 9.146737670173417
Hf 4.563991438001267 9.224657200898038 4.358242694049787
Hf 10.625629593552883 6.758585003325268 10.39557525274119
Hf 6.02590695080456 8.550487621524658 7.054210017889865
Hf 5.831216570951415 4.479323451301695 10.29513570683676
Hf 11.140229194503396 9.912425168271591 6.814488031623492
Hf 6.640964966346717 10.953542983538687 5.139783373151063
Hf 4.2886798990923305 9.103935424243046 9.380080429896557
Hf 9.928745785314915 9.339103533320937 9.397727034378528
Hf 8.439292616001891 10.899035760110339 7.381862533833726
Hf 3.0901474282514148 9.666349400482405 6.870181592641638
Hf 8.514420134453532 8.079871927677548 11.59604063946369
Hf 3.8916404941376808 11.892563941168678 5.368798014485166
Hf 6.991245070284451 9.69064825931171 9.885194266028511
Hf 5.302268058995678 11.288133195123699 7.831758261276359
