32
Energy = -274.54766459 eV
Hf 12.775198291342226 9.852351109644953 14.525531556803172
Hf 8.267300888677964 8.758499891288094 12.970620359625281
Hf 10.577811367177183 11.390185792443054 10.311427860967804
Hf 10.02143519473402 11.019623001523266 14.118428669343922
Hf 10.959301454164967 6.929503920347784 7.963778771482892
Hf 11.371415750917013 9.468006613688914 12.15644831345603
Hf 9.982332335476588 6.180578552397449 12.644173999142394
Hf 12.926603053917086 7.314234614027227 12.90839080379402
Hf 6.335955655473648 9.1116733859081 7.450453558324289
Hf 6.722616823695333 9.109551785551362 10.271210531165455
Hf 8.784802039166019 13.09216845912413 7.0031896807794
Hf 7.851797367832706 11.46636713606075 11.645821394550682
Hf 10.293354497925957 10.99758224062248 5.705059761172391
Hf 12.083917069489244 9.826000004268673 7.668393573407583
Hf 13.141661526360933 8.301138769793864 9.857927118822753
Hf 8.844806474902864 8.443285912699807 6.038969871670072
Hf 7.447119086814451 11.009113515340351 5.881716348419006
Hf 12.010227204950974 5.867147962659818 10.51300446112758
Hf 8.855888544233274 13.5903001019998 9.820677027674943
Hf 13.415301485722733 11.439256400476472 9.831055977372726
Hf 11.819790242282252 13.918048497878086 10.417007504147833
Hf 8.961780990984668 10.245921626088402 8.20384843789484
Hf 11.493039222341077 12.61383518001198 7.794809099899111
Hf 9.922350740550186 13.336746699790803 12.418006148999536
Hf 7.414577036753472 6.551730857604629 11.236142866203677
Hf 6.641455447754034 11.811215446387864 8.710250360671925
Hf 7.874825070364281 6.898245687398399 8.348429474247109
Hf 10.54909473012741 8.194023838948693 14.625920418456094
Hf 12.649251587451525 12.200260499681114 12.677319780765293
Hf 9.49675090963543 5.139720552116428 9.909551291615246
Hf 14.242542913692908 9.825765166683682 12.107923045118573
Hf 9.777290624524996 7.971827820558209 10.300415576358764
