38
Energy = -328.73486818 eV
Hf 8.749164160412233 7.6130163655578995 2.4670684741892153
Hf 10.280659537416339 9.664161935275969 4.006867359067021
Hf 6.307753206800198 6.253081791586104 3.3182108191044106
Hf 8.19988654867761 10.590070426363672 2.452694537228565
Hf 10.38626651792724 6.950265237837089 4.898292500177684
Hf 5.94752979517537 8.873650134669242 2.277255715636908
Hf 5.754444993479868 3.998682110032324 4.984057233350331
Hf 8.617580186189134 4.610886336854713 3.8345586422274813
Hf 3.6654092332881265 6.025281631908305 4.290082182015929
Hf 7.521743184266889 8.86308796211234 4.7391276371979165
Hf 10.469085373977205 6.569675857808239 7.915666776704176
Hf 9.608592295700264 9.331340786474547 6.861963373700865
Hf 5.866275968801391 11.144512996583636 4.008243841360446
Hf 10.324755591224203 4.3488468244179606 6.080352761892997
Hf 8.49254560021738 11.557599090095913 5.227378075888619
Hf 7.962549456579254 6.104618039079057 6.145343419958596
Hf 7.996233919174839 2.7702726987796713 6.452070376159403
Hf 3.113578899786749 4.290243388061562 6.310195371412064
Hf 4.345565059139084 8.740268795323034 4.856474216806651
Hf 5.073007537068415 6.581135677186701 6.864401776066814
Hf 9.658765168513625 3.758904518754176 8.828692513647578
Hf 5.053876651498541 2.6520774651072103 7.6087000673304015
Hf 6.88509537042728 4.763383684379251 8.557709588678298
Hf 2.394296559775129 7.100976431984775 6.781249176613652
Hf 9.987592746394618 8.883738495901753 9.711120337260954
Hf 7.2844147051627095 8.07835593766115 8.519843095116094
Hf 6.25290822063184 10.468292270693729 6.873925722821053
Hf 3.579598218480521 4.906377098130723 8.980345838924508
Hf 3.721891277364644 9.488132551267986 7.5666082878558925
Hf 7.411303819910806 1.9398188661790856 9.148466504248285
Hf 8.878097287634453 6.339938486137037 10.370627858890366
Hf 8.117667458582451 10.825987800925366 9.05032305723419
Hf 3.6743873391982227 7.62290156417286 9.527963304654472
Hf 7.828483567337443 3.871589068767864 11.190518758668206
Hf 5.254953645147697 3.2361486551875247 10.484659415374045
Hf 5.994714404496724 6.306154908145509 10.870888867104027
Hf 5.428932121927831 9.989991942181364 9.774625839481363
Hf 7.665944991132099 8.920083496348674 11.263058422194545
