37
Energy = -316.11738811 eV
Hf 7.606348866593658 4.247482274983241 4.482297671904311
Hf 8.085286225991053 1.934419133971652 6.221844548949012
Hf 7.0175478016479245 6.498514229781926 2.5499147182430333
Hf 9.89467888925422 4.132322163661073 6.7155461841442525
Hf 6.483762649799595 8.876341367610706 1.1476338527145022
Hf 4.37181939548217 7.452109233844035 2.2550655727992077
Hf 9.259483386687101 6.700958352985943 5.201076766599985
Hf 8.326456461254368 8.96090428701863 3.4267814664096794
Hf 5.430861876328085 9.707789161828618 3.6436493400962084
Hf 8.105869397088192 3.010649384485937 8.832462462446468
Hf 11.562012272759446 6.855319796484535 7.153804209692215
Hf 10.649356558233636 9.263558903779247 5.609907677638136
Hf 6.359909309365512 7.429589377710264 5.244779111414639
Hf 4.890390240169327 5.224343172850372 4.04529741598652
Hf 11.929877842660712 9.599587565238364 8.123335567593871
Hf 9.17618865189996 8.279048203084875 8.001136035064262
Hf 9.694680945595307 11.207358690630619 7.557280262163661
Hf 5.512076344617058 3.0809898722497504 6.166731355946895
Hf 7.290711630166331 5.317317876009284 7.191051308228368
Hf 3.479412592303311 7.9680265319113825 4.978924152741929
Hf 11.381707458923975 7.630284625685895 9.981859009167353
Hf 6.19564498752007 1.0523926818053617 8.063466645766896
Hf 4.73008160409965 10.030006786288403 6.5722992713688555
Hf 9.756677812475141 5.487308000792626 9.242999681980985
Hf 7.669052512152534 10.027007154376074 5.966102312462435
Hf 4.302530911649224 5.845592266999421 7.01410443536365
Hf 10.002521488196813 10.156282556606794 10.188520965608543
Hf 6.001759276146502 7.936651027934724 8.28883235363928
Hf 5.242716419614025 3.71834141333955 8.915532360477693
Hf 8.715945154257879 7.71838409128768 10.918726790801562
Hf 6.842495066863072 5.703049083119792 10.31789873309272
Hf 2.8963302952652974 8.345922743370869 8.048413963649322
Hf 4.453211967244451 10.300513357480712 9.414497790514176
Hf 4.041098182120327 6.4741888058264445 10.008308671361474
Hf 7.298690683818211 10.374282857855796 9.083247368690254
Hf 5.7963269124624235 8.449450103339158 11.255057712656942
Hf 2.869940585651329 8.790476691381908 11.011076807871675
