39
Energy = -337.48308836 eV
Hf 3.492374495007585 7.657733881367904 2.6974179581381494
Hf 6.1902378430864 6.457658026835489 2.402470754485663
Hf 3.7442390590993395 4.954307872167821 2.9903982265514366
Hf 5.639848749551154 9.263117313964239 3.6357047671343956
Hf 2.1598354492323217 6.35882519518227 5.117345379452198
Hf 3.4395336024417777 3.6311278930799613 5.6146518627695645
Hf 3.239221391297562 9.116750351846083 5.121657213894381
Hf 5.086998601920024 6.7329716717141395 4.915658483587136
Hf 7.989164419116977 8.231333485101965 4.729447219719875
Hf 6.163254913810713 3.893582614226581 4.036352098528638
Hf 8.84756540374038 5.0918169707816014 3.5640422915645953
Hf 7.578282688667211 10.886094856615829 5.784296180786477
Hf 1.919599665378743 5.115568789171086 7.6986051049117155
Hf 4.771185001392293 5.538655111439976 7.449732954992073
Hf 3.7267292411945174 3.165025073620223 8.551588916122759
Hf 2.862446227489418 7.809513532115542 7.724444327101327
Hf 8.490402010844052 2.7420567832715554 5.281184592826884
Hf 6.971841524513055 10.788703128246778 8.706845017820614
Hf 5.681562922286023 8.968979163467102 6.773679334398179
Hf 10.404890245255997 7.1253286153402255 5.156006769912547
Hf 10.609006778223383 4.366541369773795 5.8321841037523035
Hf 6.174260273114438 2.8910006163169326 6.967457707503834
Hf 9.149934736453073 8.971574334535658 7.62141156040265
Hf 7.897529503510045 5.482694402130928 6.172375247894667
Hf 10.563992415580957 10.138967191766735 5.502004444117846
Hf 7.138796795954519 6.852584823945164 8.598804654542857
Hf 6.234365953319029 4.001241184228373 9.712492576530371
Hf 9.382760970431894 11.958291044592164 7.547336355994675
Hf 3.582921894697306 5.801838088510038 9.994065293926035
Hf 9.509020763375853 10.823420718902348 10.073631367155834
Hf 4.944185567673102 8.499530192956692 9.785479846831258
Hf 12.015654380594317 7.987707437062198 7.231636760245759
Hf 10.452988651545843 5.892700197068643 8.234700713994012
Hf 8.85355015725806 3.514816733220837 8.142184819842111
Hf 11.617858940770184 10.491116333025351 8.297184476426382
Hf 6.160400742065461 6.386987074829087 11.271695187453208
Hf 10.788742945704525 8.205114176170966 9.976585264212774
Hf 7.818002475564273 8.649777946916641 10.736567330615943
Hf 8.816348940541118 5.704282407067857 10.57207796736354
