35
Energy = -297.10596966 eV
Hf 8.254592040374675 8.223620741904353 12.229584314038334
Hf 10.185821017285608 6.829173293123686 10.316358523865533
Hf 7.139272553118993 5.6880116816861355 11.624042608569852
Hf 9.636814490867314 9.647281055375633 10.44349711776941
Hf 5.562217611700511 8.130720712809318 11.848990777561678
Hf 11.729388090870454 4.510947769642112 9.419177781046496
Hf 9.036545403827423 4.112636159921929 9.6860253600546
Hf 4.34055991457952 6.068951962569926 10.669756704629995
Hf 5.979937548408225 4.642503508937478 8.985499862402474
Hf 6.768972128305553 10.329703294305316 10.568052697628517
Hf 10.096771405304233 8.906502669305018 7.882428762742414
Hf 7.509011043123011 7.596005761086881 9.416759697063306
Hf 8.524241693556764 11.348853681474544 8.538459277291025
Hf 10.361282175535404 3.3318625037791803 7.129136664052546
Hf 7.628758254289819 2.5490245731181718 7.8471933826162
Hf 4.507183931736693 8.521744111570648 9.133749431456572
Hf 10.98946749183645 6.168079533561065 7.343815385303762
Hf 6.91360934629459 12.90378879711712 6.749154969734387
Hf 9.10013107169732 11.243284926726112 5.837966947723969
Hf 8.957841300101125 7.917446419684803 5.382435706942544
Hf 6.901429343894594 9.391692793532876 6.926457162076457
Hf 4.967156655220742 11.225283332750202 8.000045798586672
Hf 8.103151324172794 5.402810894170747 6.984209730961875
Hf 8.187819775017012 3.00954292917129 5.149007367979298
Hf 3.2872878661532203 5.84977505843667 8.115776963487582
Hf 3.9348534920103884 9.07740678335526 6.339024536122193
Hf 5.590496081407646 6.7877263197048245 6.931314501876001
Hf 5.606709988660117 3.9233338813671104 6.215072983139273
Hf 7.5365061672130835 12.806603844870288 4.066262351258246
Hf 9.972096944043503 5.209927508132931 4.668266230132833
Hf 5.396726104206686 11.20014675748966 5.0710222732709935
Hf 7.804429370900796 9.980316474049824 3.6335480522247696
Hf 6.025665691545769 8.059794310051235 4.2719093385704
Hf 7.075960644031054 5.216224351797545 4.018853446162684
Hf 8.5181473178544 7.1905898304497065 2.769734257082312
