39
Energy = -337.13913655 eV
Hf 7.560023172744066 2.5084602380567818 7.123087299542269
Hf 8.824851900311462 4.270697935933606 9.447256357286513
Hf 8.994480800220515 2.671179923884951 4.54012519044171
Hf 6.241617272360665 2.082744991102291 4.512832948140026
Hf 11.131887047497596 5.985812520654428 8.73817786507458
Hf 5.985316040432195 3.1722630828564826 9.536907620237775
Hf 9.324152781063926 7.0045728650064065 10.932389029044847
Hf 9.894733514356156 4.415687893061746 6.601884541542913
Hf 10.806913322727814 7.3498481389787464 5.958161475144462
Hf 4.7160715827591755 3.0776079720604814 6.875538255762773
Hf 6.498317815074487 5.903236306632223 10.620306326582977
Hf 7.469844824537563 3.6806537918455633 2.516178269774632
Hf 6.87704402300205 4.826026022212408 5.091168152243183
Hf 10.571578893669104 8.913776483060614 8.989997262599807
Hf 9.455752555600279 5.634053201041575 3.890909417448307
Hf 8.738558755597031 6.783081226951338 7.718691099148074
Hf 7.500873390966741 8.648665796556944 9.207351123632312
Hf 6.406418441293661 5.233163629963877 7.839817864625929
Hf 4.737570163401893 4.405926697740233 3.341218839393475
Hf 9.332760002148843 9.801747713141284 6.498779430736557
Hf 9.035307829728183 9.907223941491731 11.315196965158362
Hf 7.081474222813093 6.481873625087872 2.503639701064738
Hf 3.8184013392781786 5.155219426098028 9.040299573798276
Hf 7.458138674040812 7.873538186159031 5.1494243873871115
Hf 8.741699331695195 11.32995336467963 8.946340204668461
Hf 6.804902378320477 8.418693762272584 12.013232852963332
Hf 3.363742490327626 5.520543757857653 6.015646398654882
Hf 5.149649001934828 7.792479351199302 6.992705244464536
Hf 9.311321330557549 8.803667686062507 3.4173523275504922
Hf 4.520765045468443 7.325712479146812 3.718151250347407
Hf 6.448216221790266 10.689603188310151 7.2837029350607585
Hf 4.6122576156052 8.166003013479346 10.014199253893738
Hf 6.2890270359689096 10.803007331885066 10.417255859296546
Hf 7.558657446925818 10.858052037654744 4.584119043035692
Hf 6.427476309446853 9.204637577786846 2.6789204041826196
Hf 2.4742423469153674 7.449783707897023 8.147087160926029
Hf 4.789205203742764 10.114011220337334 4.919037981015204
Hf 2.635138394412327 8.317169887647541 5.596377559744135
Hf 3.6537676328310815 10.035622886667172 7.821880472882515
