30
Energy = -253.30217114 eV
Hf 7.291872364021076 11.006030315466793 4.710218018960957
Hf 8.061073001915057 11.077941456381717 7.6564473683313
Hf 7.112433237886098 8.518647874558777 6.411112983625463
Hf 5.504077994526426 6.566871569850075 4.322446775706966
Hf 7.301130263307765 7.173886476060503 9.75921800576584
Hf 5.216391156753095 9.375798637348494 3.92041616869735
Hf 5.9309586072373985 9.729636146957516 9.116137915225364
Hf 4.000163051998769 4.938247622339587 6.684749181104569
Hf 8.463970718134588 9.842424424089536 10.41793909711798
Hf 9.447893275326466 4.8989125171914845 10.81855909820082
Hf 8.494945927835849 3.1657393577069692 6.218382205319078
Hf 6.740672615379816 5.476113315751668 6.851550237908183
Hf 5.377862271055234 4.7102946249789595 9.347544979591502
Hf 8.072133792653876 8.31769653270811 3.6555183662063557
Hf 9.920412041738013 7.162434108733089 5.599082530132651
Hf 11.660032495891368 6.08857694082708 9.407167362536565
Hf 9.314187108650916 5.596025283799505 7.966193901012478
Hf 8.193732474046028 5.366189789168676 4.226094012874737
Hf 5.967619790377084 3.718215905450986 4.76550781750073
Hf 4.638602416372796 7.279843599487427 8.361650809829188
Hf 9.95901781544158 7.620118613649566 11.039642437734695
Hf 3.595508818675768 8.147133607021384 5.804545166323731
Hf 5.227232730390228 10.987981776788589 6.712477198822738
Hf 7.986881857353614 3.172862861533485 9.03981288161709
Hf 9.761447017133136 8.589806229726861 8.235784936653552
Hf 9.645541911529651 9.87206935543703 5.550596619566995
Hf 2.89641873700051 10.743619110196514 5.225260980206472
Hf 5.762947834324613 2.7363123898646413 7.365524209468138
Hf 2.9748333633698927 9.859793211099447 7.9452882679534005
Hf 10.837343504156388 3.486940087319835 8.792143112668665
