38
Energy = -324.72515635 eV
Hf 10.874028029298069 10.642294983382977 8.153252570397767
Hf 7.944362794830533 11.514206272121386 9.024871583238335
Hf 5.148231019345045 12.135535486996853 9.678206415917856
Hf 11.942426743631279 8.965806362993005 10.262431266195517
Hf 5.830765535532058 11.82546175482185 6.928040192952504
Hf 8.656909933422769 10.969067545132978 6.232748610990986
Hf 9.010664236233184 8.909554225420969 10.125099816954734
Hf 11.309220772591358 9.798556066101419 5.465510826657061
Hf 3.1154443988983105 12.041839370728388 7.887783074578066
Hf 10.30664249655399 7.109915034192036 12.059220989656557
Hf 6.264980241759086 9.775896732898596 10.850691156109068
Hf 12.463369818120787 8.309820843990066 7.500238970826824
Hf 9.440802571611176 8.130053613952915 7.115921457965341
Hf 8.968597107026161 8.884454463729035 4.171114370127021
Hf 6.278927053041247 9.515161566948224 4.907582944898345
Hf 6.521232451490298 9.110981435148753 7.990590127052581
Hf 3.815727215754523 9.629364338008827 9.2344541847946
Hf 10.849023223004234 6.529476648326295 9.271662562414155
Hf 3.8363082867338676 9.732469554934768 6.31335823890424
Hf 7.474923448567197 7.098450115330416 12.018910111933733
Hf 7.835567460514178 6.321453013389264 9.009202080642122
Hf 9.561628769067852 4.490602494000086 11.000711196198635
Hf 7.022004246116707 7.418639724110687 2.912530954306073
Hf 5.21613741228641 7.052757203171985 10.187207911797536
Hf 11.25996989704088 6.8757321078658515 5.106715451492546
Hf 8.561146074769693 5.077907316715854 13.444722745421688
Hf 6.896327899723197 6.6001137705131265 5.924403274102093
Hf 9.770273642254084 4.974470917736702 6.996460409972911
Hf 4.120528287023686 7.116927154623303 7.379458128709765
Hf 10.150152677281282 7.216989025962788 2.4108851396988045
Hf 4.451372826147762 7.18104368821799 4.395269646113057
Hf 6.669056057702449 4.46695201039381 11.182917305772877
Hf 8.035456564200263 3.4040018027006256 8.894434626550913
Hf 9.026337098410016 5.337790575474339 4.229949253255237
Hf 7.205905144070949 3.679641289475921 6.111114650511495
Hf 5.409298901079394 4.536850828312323 8.394769051479658
Hf 6.215323118387061 4.889411213100943 3.6141072947829787
Hf 4.497064936454704 4.745961214609519 5.768661275712042
